MODEL 1
REMARK VINA RESULT:      -7.1      0.000      0.000
REMARK  Name = 
REMARK  16 active torsions:
REMARK  status: ('A' for Active; 'I' for Inactive)
REMARK    1  A    between atoms: C_1  and  C_2
REMARK    2  A    between atoms: C_2  and  C_3
REMARK    3  A    between atoms: C_3  and  C_4
REMARK    4  A    between atoms: C_4  and  C_5
REMARK    5  A    between atoms: C_5  and  C_6
REMARK    6  A    between atoms: C_6  and  C_7
REMARK    7  A    between atoms: C_7  and  C_8
REMARK    8  A    between atoms: C_8  and  C_9
REMARK    9  A    between atoms: C_9  and  C_10
REMARK   10  A    between atoms: C_9  and  O_11
REMARK   11  A    between atoms: C_9  and  C_12
REMARK   12  A    between atoms: C_12  and  C_13
REMARK   13  A    between atoms: C_13  and  C_14
REMARK   14  A    between atoms: C_18  and  C_19
REMARK   15  A    between atoms: C_20  and  O_21
REMARK   16  A    between atoms: C_22  and  C_23
REMARK                            x       y       z     vdW  Elec       q    Type
REMARK                         _______ _______ _______ _____ _____    ______ ____
ROOT
ATOM      1  C   UNL     1       5.445   5.136  16.977  0.00  0.00    +0.000 C 
ENDROOT
BRANCH   1   2
ATOM      2  C   UNL     1       6.933   5.327  16.632  0.00  0.00    +0.000 C 
ATOM      3  C   UNL     1       7.839   4.600  17.632  0.00  0.00    +0.000 C 
BRANCH   2   4
ATOM      4  O   UNL     1       7.219   6.728  16.706  0.00  0.00    +0.000 OA
ATOM      5  H   UNL     1       6.936   7.052  17.578  0.00  0.00    +0.000 HD
ENDBRANCH   2   4
BRANCH   2   6
ATOM      6  C   UNL     1       7.223   4.829  15.201  0.00  0.00    +0.000 C 
BRANCH   6   7
ATOM      7  C   UNL     1       6.091   5.154  14.227  0.00  0.00    +0.000 C 
BRANCH   7   8
ATOM      8  C   UNL     1       5.374   3.906  13.749  0.00  0.00    +0.000 C 
BRANCH   8   9
ATOM      9  C   UNL     1       6.222   3.234  12.676  0.00  0.00    +0.000 C 
BRANCH   9  10
ATOM     10  C   UNL     1       5.352   2.789  11.514  0.00  0.00    +0.000 C 
BRANCH  10  11
ATOM     11  C   UNL     1       4.148   3.710  11.372  0.00  0.00    +0.000 C 
BRANCH  11  13
ATOM     12  C   UNL     1       2.681   4.359   9.452  0.00  0.00    +0.000 C 
ATOM     13  C   UNL     1       3.221   3.206  10.274  0.00  0.00    +0.000 C 
ENDBRANCH  11  13
ENDBRANCH  10  11
ENDBRANCH   9  10
ENDBRANCH   8   9
ENDBRANCH   7   8
ENDBRANCH   6   7
ENDBRANCH   2   6
ENDBRANCH   1   2
BRANCH   1  14
ATOM     14  C   UNL     1       4.988   6.000  18.150  0.00  0.00    +0.000 C 
BRANCH  14  15
ATOM     15  C   UNL     1       4.034   5.256  19.033  0.00  0.00    +0.000 A 
ATOM     16  O   UNL     1       4.476   3.948  19.333  0.00  0.00    +0.000 OA
ATOM     17  C   UNL     1       3.771   3.125  20.161  0.00  0.00    +0.000 A 
ATOM     18  O   UNL     1       4.178   2.003  20.433  0.00  0.00    +0.000 OA
ATOM     19  C   UNL     1       2.493   3.648  20.701  0.00  0.00    +0.000 A 
ATOM     20  C   UNL     1       1.711   2.723  21.586  0.00  0.00    +0.000 C 
ATOM     21  C   UNL     1       2.099   4.895  20.388  0.00  0.00    +0.000 A 
ATOM     22  C   UNL     1       2.891   5.753  19.527  0.00  0.00    +0.000 A 
ATOM     23  C   UNL     1       2.412   7.144  19.191  0.00  0.00    +0.000 C 
BRANCH  21  24
ATOM     24  O   UNL     1       0.935   5.463  20.847  0.00  0.00    +0.000 OA
ATOM     25  H   UNL     1       0.628   5.001  21.637  0.00  0.00    +0.000 HD
ENDBRANCH  21  24
ENDBRANCH  14  15
ENDBRANCH   1  14
TORSDOF 12
ENDMDL
MODEL 2
REMARK VINA RESULT:      -7.1      3.055      6.981
REMARK  Name = 
REMARK  16 active torsions:
REMARK  status: ('A' for Active; 'I' for Inactive)
REMARK    1  A    between atoms: C_1  and  C_2
REMARK    2  A    between atoms: C_2  and  C_3
REMARK    3  A    between atoms: C_3  and  C_4
REMARK    4  A    between atoms: C_4  and  C_5
REMARK    5  A    between atoms: C_5  and  C_6
REMARK    6  A    between atoms: C_6  and  C_7
REMARK    7  A    between atoms: C_7  and  C_8
REMARK    8  A    between atoms: C_8  and  C_9
REMARK    9  A    between atoms: C_9  and  C_10
REMARK   10  A    between atoms: C_9  and  O_11
REMARK   11  A    between atoms: C_9  and  C_12
REMARK   12  A    between atoms: C_12  and  C_13
REMARK   13  A    between atoms: C_13  and  C_14
REMARK   14  A    between atoms: C_18  and  C_19
REMARK   15  A    between atoms: C_20  and  O_21
REMARK   16  A    between atoms: C_22  and  C_23
REMARK                            x       y       z     vdW  Elec       q    Type
REMARK                         _______ _______ _______ _____ _____    ______ ____
ROOT
ATOM      1  C   UNL     1       3.552   2.942  20.074  0.00  0.00    +0.000 C 
ENDROOT
BRANCH   1   2
ATOM      2  C   UNL     1       2.020   2.963  19.920  0.00  0.00    +0.000 C 
ATOM      3  C   UNL     1       1.317   2.765  21.268  0.00  0.00    +0.000 C 
BRANCH   2   4
ATOM      4  O   UNL     1       1.655   1.877  19.062  0.00  0.00    +0.000 OA
ATOM      5  H   UNL     1       1.938   1.047  19.481  0.00  0.00    +0.000 HD
ENDBRANCH   2   4
BRANCH   2   6
ATOM      6  C   UNL     1       1.560   4.289  19.279  0.00  0.00    +0.000 C 
BRANCH   6   7
ATOM      7  C   UNL     1       2.053   5.514  20.049  0.00  0.00    +0.000 C 
BRANCH   7   8
ATOM      8  C   UNL     1       2.751   6.513  19.146  0.00  0.00    +0.000 C 
BRANCH   8   9
ATOM      9  C   UNL     1       2.062   7.865  19.286  0.00  0.00    +0.000 C 
BRANCH   9  10
ATOM     10  C   UNL     1       1.917   8.529  17.929  0.00  0.00    +0.000 C 
BRANCH  10  11
ATOM     11  C   UNL     1       1.491   9.981  18.094  0.00  0.00    +0.000 C 
BRANCH  11  13
ATOM     12  C   UNL     1      -0.553  11.351  18.548  0.00  0.00    +0.000 C 
ATOM     13  C   UNL     1       0.183  10.065  18.869  0.00  0.00    +0.000 C 
ENDBRANCH  11  13
ENDBRANCH  10  11
ENDBRANCH   9  10
ENDBRANCH   8   9
ENDBRANCH   7   8
ENDBRANCH   6   7
ENDBRANCH   2   6
ENDBRANCH   1   2
BRANCH   1  14
ATOM     14  C   UNL     1       4.283   2.761  18.746  0.00  0.00    +0.000 C 
BRANCH  14  15
ATOM     15  C   UNL     1       5.131   3.954  18.427  0.00  0.00    +0.000 A 
ATOM     16  O   UNL     1       6.007   4.297  19.480  0.00  0.00    +0.000 OA
ATOM     17  C   UNL     1       6.895   5.326  19.368  0.00  0.00    +0.000 A 
ATOM     18  O   UNL     1       7.667   5.598  20.278  0.00  0.00    +0.000 OA
ATOM     19  C   UNL     1       6.872   6.100  18.103  0.00  0.00    +0.000 A 
ATOM     20  C   UNL     1       7.832   7.248  18.002  0.00  0.00    +0.000 C 
ATOM     21  C   UNL     1       6.019   5.750  17.124  0.00  0.00    +0.000 A 
ATOM     22  C   UNL     1       5.108   4.630  17.268  0.00  0.00    +0.000 A 
ATOM     23  C   UNL     1       4.158   4.273  16.152  0.00  0.00    +0.000 C 
BRANCH  21  24
ATOM     24  O   UNL     1       5.932   6.405  15.919  0.00  0.00    +0.000 OA
ATOM     25  H   UNL     1       5.783   5.771  15.207  0.00  0.00    +0.000 HD
ENDBRANCH  21  24
ENDBRANCH  14  15
ENDBRANCH   1  14
TORSDOF 12
ENDMDL
MODEL 3
REMARK VINA RESULT:      -7.0      3.159      5.845
REMARK  Name = 
REMARK  16 active torsions:
REMARK  status: ('A' for Active; 'I' for Inactive)
REMARK    1  A    between atoms: C_1  and  C_2
REMARK    2  A    between atoms: C_2  and  C_3
REMARK    3  A    between atoms: C_3  and  C_4
REMARK    4  A    between atoms: C_4  and  C_5
REMARK    5  A    between atoms: C_5  and  C_6
REMARK    6  A    between atoms: C_6  and  C_7
REMARK    7  A    between atoms: C_7  and  C_8
REMARK    8  A    between atoms: C_8  and  C_9
REMARK    9  A    between atoms: C_9  and  C_10
REMARK   10  A    between atoms: C_9  and  O_11
REMARK   11  A    between atoms: C_9  and  C_12
REMARK   12  A    between atoms: C_12  and  C_13
REMARK   13  A    between atoms: C_13  and  C_14
REMARK   14  A    between atoms: C_18  and  C_19
REMARK   15  A    between atoms: C_20  and  O_21
REMARK   16  A    between atoms: C_22  and  C_23
REMARK                            x       y       z     vdW  Elec       q    Type
REMARK                         _______ _______ _______ _____ _____    ______ ____
ROOT
ATOM      1  C   UNL     1       5.503   3.733  16.464  0.00  0.00    +0.000 C 
ENDROOT
BRANCH   1   2
ATOM      2  C   UNL     1       6.514   4.807  16.024  0.00  0.00    +0.000 C 
ATOM      3  C   UNL     1       6.884   4.658  14.543  0.00  0.00    +0.000 C 
BRANCH   2   4
ATOM      4  O   UNL     1       7.704   4.629  16.801  0.00  0.00    +0.000 OA
ATOM      5  H   UNL     1       8.261   5.418  16.693  0.00  0.00    +0.000 HD
ENDBRANCH   2   4
BRANCH   2   6
ATOM      6  C   UNL     1       5.951   6.220  16.284  0.00  0.00    +0.000 C 
BRANCH   6   7
ATOM      7  C   UNL     1       6.564   6.875  17.522  0.00  0.00    +0.000 C 
BRANCH   7   8
ATOM      8  C   UNL     1       7.769   7.730  17.176  0.00  0.00    +0.000 C 
BRANCH   8   9
ATOM      9  C   UNL     1       8.362   8.283  18.466  0.00  0.00    +0.000 C 
BRANCH   9  10
ATOM     10  C   UNL     1       8.610   9.775  18.340  0.00  0.00    +0.000 C 
BRANCH  10  11
ATOM     11  C   UNL     1       9.239  10.316  19.616  0.00  0.00    +0.000 C 
BRANCH  11  13
ATOM     12  C   UNL     1      10.425  11.546  17.788  0.00  0.00    +0.000 C 
ATOM     13  C   UNL     1      10.350  11.303  19.282  0.00  0.00    +0.000 C 
ENDBRANCH  11  13
ENDBRANCH  10  11
ENDBRANCH   9  10
ENDBRANCH   8   9
ENDBRANCH   7   8
ENDBRANCH   6   7
ENDBRANCH   2   6
ENDBRANCH   1   2
BRANCH   1  14
ATOM     14  C   UNL     1       4.098   4.290  16.679  0.00  0.00    +0.000 C 
BRANCH  14  15
ATOM     15  C   UNL     1       3.529   3.833  17.988  0.00  0.00    +0.000 A 
ATOM     16  O   UNL     1       4.448   3.078  18.748  0.00  0.00    +0.000 OA
ATOM     17  C   UNL     1       4.138   2.609  19.990  0.00  0.00    +0.000 A 
ATOM     18  O   UNL     1       4.952   1.977  20.650  0.00  0.00    +0.000 OA
ATOM     19  C   UNL     1       2.772   2.893  20.494  0.00  0.00    +0.000 A 
ATOM     20  C   UNL     1       2.432   2.348  21.850  0.00  0.00    +0.000 C 
ATOM     21  C   UNL     1       1.920   3.609  19.741  0.00  0.00    +0.000 A 
ATOM     22  C   UNL     1       2.296   4.116  18.435  0.00  0.00    +0.000 A 
ATOM     23  C   UNL     1       1.309   4.908  17.612  0.00  0.00    +0.000 C 
BRANCH  21  24
ATOM     24  O   UNL     1       0.640   3.924  20.129  0.00  0.00    +0.000 OA
ATOM     25  H   UNL     1       0.404   4.805  19.812  0.00  0.00    +0.000 HD
ENDBRANCH  21  24
ENDBRANCH  14  15
ENDBRANCH   1  14
TORSDOF 12
ENDMDL
MODEL 4
REMARK VINA RESULT:      -7.0      1.690      1.852
REMARK  Name = 
REMARK  16 active torsions:
REMARK  status: ('A' for Active; 'I' for Inactive)
REMARK    1  A    between atoms: C_1  and  C_2
REMARK    2  A    between atoms: C_2  and  C_3
REMARK    3  A    between atoms: C_3  and  C_4
REMARK    4  A    between atoms: C_4  and  C_5
REMARK    5  A    between atoms: C_5  and  C_6
REMARK    6  A    between atoms: C_6  and  C_7
REMARK    7  A    between atoms: C_7  and  C_8
REMARK    8  A    between atoms: C_8  and  C_9
REMARK    9  A    between atoms: C_9  and  C_10
REMARK   10  A    between atoms: C_9  and  O_11
REMARK   11  A    between atoms: C_9  and  C_12
REMARK   12  A    between atoms: C_12  and  C_13
REMARK   13  A    between atoms: C_13  and  C_14
REMARK   14  A    between atoms: C_18  and  C_19
REMARK   15  A    between atoms: C_20  and  O_21
REMARK   16  A    between atoms: C_22  and  C_23
REMARK                            x       y       z     vdW  Elec       q    Type
REMARK                         _______ _______ _______ _____ _____    ______ ____
ROOT
ATOM      1  C   UNL     1       5.583   5.988  18.038  0.00  0.00    +0.000 C 
ENDROOT
BRANCH   1   2
ATOM      2  C   UNL     1       6.527   6.433  16.907  0.00  0.00    +0.000 C 
ATOM      3  C   UNL     1       7.596   7.407  17.417  0.00  0.00    +0.000 C 
BRANCH   2   4
ATOM      4  O   UNL     1       5.737   7.112  15.924  0.00  0.00    +0.000 OA
ATOM      5  H   UNL     1       6.291   7.793  15.505  0.00  0.00    +0.000 HD
ENDBRANCH   2   4
BRANCH   2   6
ATOM      6  C   UNL     1       7.201   5.210  16.252  0.00  0.00    +0.000 C 
BRANCH   6   7
ATOM      7  C   UNL     1       6.242   4.030  16.091  0.00  0.00    +0.000 C 
BRANCH   7   8
ATOM      8  C   UNL     1       5.630   3.978  14.704  0.00  0.00    +0.000 C 
BRANCH   8   9
ATOM      9  C   UNL     1       6.751   3.866  13.678  0.00  0.00    +0.000 C 
BRANCH   9  10
ATOM     10  C   UNL     1       6.178   3.686  12.284  0.00  0.00    +0.000 C 
BRANCH  10  11
ATOM     11  C   UNL     1       4.659   3.606  12.343  0.00  0.00    +0.000 C 
BRANCH  11  13
ATOM     12  C   UNL     1       3.290   3.966  10.280  0.00  0.00    +0.000 C 
ATOM     13  C   UNL     1       4.112   2.969  11.073  0.00  0.00    +0.000 C 
ENDBRANCH  11  13
ENDBRANCH  10  11
ENDBRANCH   9  10
ENDBRANCH   8   9
ENDBRANCH   7   8
ENDBRANCH   6   7
ENDBRANCH   2   6
ENDBRANCH   1   2
BRANCH   1  14
ATOM     14  C   UNL     1       4.146   6.465  17.840  0.00  0.00    +0.000 C 
BRANCH  14  15
ATOM     15  C   UNL     1       3.164   5.403  18.228  0.00  0.00    +0.000 A 
ATOM     16  O   UNL     1       3.215   4.276  17.378  0.00  0.00    +0.000 OA
ATOM     17  C   UNL     1       2.431   3.181  17.591  0.00  0.00    +0.000 A 
ATOM     18  O   UNL     1       2.503   2.200  16.862  0.00  0.00    +0.000 OA
ATOM     19  C   UNL     1       1.489   3.240  18.735  0.00  0.00    +0.000 A 
ATOM     20  C   UNL     1       0.612   2.041  18.942  0.00  0.00    +0.000 C 
ATOM     21  C   UNL     1       1.462   4.331  19.519  0.00  0.00    +0.000 A 
ATOM     22  C   UNL     1       2.332   5.467  19.278  0.00  0.00    +0.000 A 
ATOM     23  C   UNL     1       2.267   6.679  20.175  0.00  0.00    +0.000 C 
BRANCH  21  24
ATOM     24  O   UNL     1       0.627   4.471  20.602  0.00  0.00    +0.000 OA
ATOM     25  H   UNL     1      -0.050   5.134  20.416  0.00  0.00    +0.000 HD
ENDBRANCH  21  24
ENDBRANCH  14  15
ENDBRANCH   1  14
TORSDOF 12
ENDMDL
MODEL 5
REMARK VINA RESULT:      -6.9      2.975      7.944
REMARK  Name = 
REMARK  16 active torsions:
REMARK  status: ('A' for Active; 'I' for Inactive)
REMARK    1  A    between atoms: C_1  and  C_2
REMARK    2  A    between atoms: C_2  and  C_3
REMARK    3  A    between atoms: C_3  and  C_4
REMARK    4  A    between atoms: C_4  and  C_5
REMARK    5  A    between atoms: C_5  and  C_6
REMARK    6  A    between atoms: C_6  and  C_7
REMARK    7  A    between atoms: C_7  and  C_8
REMARK    8  A    between atoms: C_8  and  C_9
REMARK    9  A    between atoms: C_9  and  C_10
REMARK   10  A    between atoms: C_9  and  O_11
REMARK   11  A    between atoms: C_9  and  C_12
REMARK   12  A    between atoms: C_12  and  C_13
REMARK   13  A    between atoms: C_13  and  C_14
REMARK   14  A    between atoms: C_18  and  C_19
REMARK   15  A    between atoms: C_20  and  O_21
REMARK   16  A    between atoms: C_22  and  C_23
REMARK                            x       y       z     vdW  Elec       q    Type
REMARK                         _______ _______ _______ _____ _____    ______ ____
ROOT
ATOM      1  C   UNL     1       3.656   3.019  20.035  0.00  0.00    +0.000 C 
ENDROOT
BRANCH   1   2
ATOM      2  C   UNL     1       2.272   3.690  19.968  0.00  0.00    +0.000 C 
ATOM      3  C   UNL     1       1.254   2.967  20.858  0.00  0.00    +0.000 C 
BRANCH   2   4
ATOM      4  O   UNL     1       1.816   3.610  18.613  0.00  0.00    +0.000 OA
ATOM      5  H   UNL     1       0.863   3.415  18.623  0.00  0.00    +0.000 HD
ENDBRANCH   2   4
BRANCH   2   6
ATOM      6  C   UNL     1       2.369   5.173  20.380  0.00  0.00    +0.000 C 
BRANCH   6   7
ATOM      7  C   UNL     1       2.419   6.113  19.175  0.00  0.00    +0.000 C 
BRANCH   7   8
ATOM      8  C   UNL     1       2.112   7.548  19.558  0.00  0.00    +0.000 C 
BRANCH   8   9
ATOM      9  C   UNL     1       1.549   7.567  20.974  0.00  0.00    +0.000 C 
BRANCH   9  10
ATOM     10  C   UNL     1       1.016   8.947  21.314  0.00  0.00    +0.000 C 
BRANCH  10  11
ATOM     11  C   UNL     1      -0.350   8.836  21.976  0.00  0.00    +0.000 C 
BRANCH  11  13
ATOM     12  C   UNL     1      -0.715  11.234  22.593  0.00  0.00    +0.000 C 
ATOM     13  C   UNL     1      -0.467   9.835  23.121  0.00  0.00    +0.000 C 
ENDBRANCH  11  13
ENDBRANCH  10  11
ENDBRANCH   9  10
ENDBRANCH   8   9
ENDBRANCH   7   8
ENDBRANCH   6   7
ENDBRANCH   2   6
ENDBRANCH   1   2
BRANCH   1  14
ATOM     14  C   UNL     1       4.327   2.898  18.668  0.00  0.00    +0.000 C 
BRANCH  14  15
ATOM     15  C   UNL     1       5.218   4.071  18.396  0.00  0.00    +0.000 A 
ATOM     16  O   UNL     1       6.058   4.383  19.488  0.00  0.00    +0.000 OA
ATOM     17  C   UNL     1       6.976   5.389  19.423  0.00  0.00    +0.000 A 
ATOM     18  O   UNL     1       7.716   5.633  20.367  0.00  0.00    +0.000 OA
ATOM     19  C   UNL     1       7.026   6.173  18.165  0.00  0.00    +0.000 A 
ATOM     20  C   UNL     1       8.019   7.297  18.115  0.00  0.00    +0.000 C 
ATOM     21  C   UNL     1       6.207   5.854  17.149  0.00  0.00    +0.000 A 
ATOM     22  C   UNL     1       5.262   4.757  17.244  0.00  0.00    +0.000 A 
ATOM     23  C   UNL     1       4.351   4.434  16.086  0.00  0.00    +0.000 C 
BRANCH  21  24
ATOM     24  O   UNL     1       6.187   6.521  15.947  0.00  0.00    +0.000 OA
ATOM     25  H   UNL     1       6.690   6.028  15.286  0.00  0.00    +0.000 HD
ENDBRANCH  21  24
ENDBRANCH  14  15
ENDBRANCH   1  14
TORSDOF 12
ENDMDL
MODEL 6
REMARK VINA RESULT:      -6.9      1.129      1.326
REMARK  Name = 
REMARK  16 active torsions:
REMARK  status: ('A' for Active; 'I' for Inactive)
REMARK    1  A    between atoms: C_1  and  C_2
REMARK    2  A    between atoms: C_2  and  C_3
REMARK    3  A    between atoms: C_3  and  C_4
REMARK    4  A    between atoms: C_4  and  C_5
REMARK    5  A    between atoms: C_5  and  C_6
REMARK    6  A    between atoms: C_6  and  C_7
REMARK    7  A    between atoms: C_7  and  C_8
REMARK    8  A    between atoms: C_8  and  C_9
REMARK    9  A    between atoms: C_9  and  C_10
REMARK   10  A    between atoms: C_9  and  O_11
REMARK   11  A    between atoms: C_9  and  C_12
REMARK   12  A    between atoms: C_12  and  C_13
REMARK   13  A    between atoms: C_13  and  C_14
REMARK   14  A    between atoms: C_18  and  C_19
REMARK   15  A    between atoms: C_20  and  O_21
REMARK   16  A    between atoms: C_22  and  C_23
REMARK                            x       y       z     vdW  Elec       q    Type
REMARK                         _______ _______ _______ _____ _____    ______ ____
ROOT
ATOM      1  C   UNL     1       4.908   4.453  16.134  0.00  0.00    +0.000 C 
ENDROOT
BRANCH   1   2
ATOM      2  C   UNL     1       6.117   5.341  15.789  0.00  0.00    +0.000 C 
ATOM      3  C   UNL     1       7.031   5.543  17.003  0.00  0.00    +0.000 C 
BRANCH   2   4
ATOM      4  O   UNL     1       5.616   6.622  15.390  0.00  0.00    +0.000 OA
ATOM      5  H   UNL     1       5.436   6.595  14.434  0.00  0.00    +0.000 HD
ENDBRANCH   2   4
BRANCH   2   6
ATOM      6  C   UNL     1       6.922   4.731  14.623  0.00  0.00    +0.000 C 
BRANCH   6   7
ATOM      7  C   UNL     1       6.216   3.531  13.991  0.00  0.00    +0.000 C 
BRANCH   7   8
ATOM      8  C   UNL     1       6.319   3.541  12.477  0.00  0.00    +0.000 C 
BRANCH   8   9
ATOM      9  C   UNL     1       4.977   3.976  11.899  0.00  0.00    +0.000 C 
BRANCH   9  10
ATOM     10  C   UNL     1       4.307   2.817  11.184  0.00  0.00    +0.000 C 
BRANCH  10  11
ATOM     11  C   UNL     1       2.978   3.261  10.588  0.00  0.00    +0.000 C 
BRANCH  11  13
ATOM     12  C   UNL     1       2.134   5.046   9.052  0.00  0.00    +0.000 C 
ATOM     13  C   UNL     1       3.206   3.998   9.275  0.00  0.00    +0.000 C 
ENDBRANCH  11  13
ENDBRANCH  10  11
ENDBRANCH   9  10
ENDBRANCH   8   9
ENDBRANCH   7   8
ENDBRANCH   6   7
ENDBRANCH   2   6
ENDBRANCH   1   2
BRANCH   1  14
ATOM     14  C   UNL     1       3.725   5.244  16.687  0.00  0.00    +0.000 C 
BRANCH  14  15
ATOM     15  C   UNL     1       3.297   4.715  18.022  0.00  0.00    +0.000 A 
ATOM     16  O   UNL     1       3.343   3.305  18.091  0.00  0.00    +0.000 OA
ATOM     17  C   UNL     1       3.035   2.633  19.236  0.00  0.00    +0.000 A 
ATOM     18  O   UNL     1       3.103   1.412  19.290  0.00  0.00    +0.000 OA
ATOM     19  C   UNL     1       2.608   3.447  20.400  0.00  0.00    +0.000 A 
ATOM     20  C   UNL     1       2.244   2.694  21.646  0.00  0.00    +0.000 C 
ATOM     21  C   UNL     1       2.569   4.786  20.297  0.00  0.00    +0.000 A 
ATOM     22  C   UNL     1       2.931   5.469  19.070  0.00  0.00    +0.000 A 
ATOM     23  C   UNL     1       2.866   6.975  18.988  0.00  0.00    +0.000 C 
BRANCH  21  24
ATOM     24  O   UNL     1       2.191   5.619  21.324  0.00  0.00    +0.000 OA
ATOM     25  H   UNL     1       2.807   6.359  21.394  0.00  0.00    +0.000 HD
ENDBRANCH  21  24
ENDBRANCH  14  15
ENDBRANCH   1  14
TORSDOF 12
ENDMDL
MODEL 7
REMARK VINA RESULT:      -6.9      3.289      6.310
REMARK  Name = 
REMARK  16 active torsions:
REMARK  status: ('A' for Active; 'I' for Inactive)
REMARK    1  A    between atoms: C_1  and  C_2
REMARK    2  A    between atoms: C_2  and  C_3
REMARK    3  A    between atoms: C_3  and  C_4
REMARK    4  A    between atoms: C_4  and  C_5
REMARK    5  A    between atoms: C_5  and  C_6
REMARK    6  A    between atoms: C_6  and  C_7
REMARK    7  A    between atoms: C_7  and  C_8
REMARK    8  A    between atoms: C_8  and  C_9
REMARK    9  A    between atoms: C_9  and  C_10
REMARK   10  A    between atoms: C_9  and  O_11
REMARK   11  A    between atoms: C_9  and  C_12
REMARK   12  A    between atoms: C_12  and  C_13
REMARK   13  A    between atoms: C_13  and  C_14
REMARK   14  A    between atoms: C_18  and  C_19
REMARK   15  A    between atoms: C_20  and  O_21
REMARK   16  A    between atoms: C_22  and  C_23
REMARK                            x       y       z     vdW  Elec       q    Type
REMARK                         _______ _______ _______ _____ _____    ______ ____
ROOT
ATOM      1  C   UNL     1       1.581   5.159  20.661  0.00  0.00    +0.000 C 
ENDROOT
BRANCH   1   2
ATOM      2  C   UNL     1       2.059   3.697  20.712  0.00  0.00    +0.000 C 
ATOM      3  C   UNL     1       0.988   2.736  20.184  0.00  0.00    +0.000 C 
BRANCH   2   4
ATOM      4  O   UNL     1       2.315   3.370  22.083  0.00  0.00    +0.000 OA
ATOM      5  H   UNL     1       1.703   3.884  22.638  0.00  0.00    +0.000 HD
ENDBRANCH   2   4
BRANCH   2   6
ATOM      6  C   UNL     1       3.362   3.526  19.903  0.00  0.00    +0.000 C 
BRANCH   6   7
ATOM      7  C   UNL     1       3.314   2.322  18.963  0.00  0.00    +0.000 C 
BRANCH   7   8
ATOM      8  C   UNL     1       4.029   2.593  17.652  0.00  0.00    +0.000 C 
BRANCH   8   9
ATOM      9  C   UNL     1       4.020   4.094  17.391  0.00  0.00    +0.000 C 
BRANCH   9  10
ATOM     10  C   UNL     1       4.863   4.426  16.173  0.00  0.00    +0.000 C 
BRANCH  10  11
ATOM     11  C   UNL     1       5.880   5.507  16.513  0.00  0.00    +0.000 C 
BRANCH  11  13
ATOM     12  C   UNL     1       7.509   5.260  18.396  0.00  0.00    +0.000 C 
ATOM     13  C   UNL     1       6.079   5.592  18.021  0.00  0.00    +0.000 C 
ENDBRANCH  11  13
ENDBRANCH  10  11
ENDBRANCH   9  10
ENDBRANCH   8   9
ENDBRANCH   7   8
ENDBRANCH   6   7
ENDBRANCH   2   6
ENDBRANCH   1   2
BRANCH   1  14
ATOM     14  C   UNL     1       2.616   6.105  20.058  0.00  0.00    +0.000 C 
BRANCH  14  15
ATOM     15  C   UNL     1       2.020   7.451  19.776  0.00  0.00    +0.000 A 
ATOM     16  O   UNL     1       1.221   7.927  20.839  0.00  0.00    +0.000 OA
ATOM     17  C   UNL     1       0.628   9.154  20.795  0.00  0.00    +0.000 A 
ATOM     18  O   UNL     1      -0.042   9.566  21.733  0.00  0.00    +0.000 OA
ATOM     19  C   UNL     1       0.824   9.953  19.561  0.00  0.00    +0.000 A 
ATOM     20  C   UNL     1       0.142  11.289  19.513  0.00  0.00    +0.000 C 
ATOM     21  C   UNL     1       1.585   9.465  18.566  0.00  0.00    +0.000 A 
ATOM     22  C   UNL     1       2.225   8.167  18.660  0.00  0.00    +0.000 A 
ATOM     23  C   UNL     1       3.065   7.648  17.519  0.00  0.00    +0.000 C 
BRANCH  21  24
ATOM     24  O   UNL     1       1.826  10.137  17.392  0.00  0.00    +0.000 OA
ATOM     25  H   UNL     1       2.398   9.611  16.820  0.00  0.00    +0.000 HD
ENDBRANCH  21  24
ENDBRANCH  14  15
ENDBRANCH   1  14
TORSDOF 12
ENDMDL
MODEL 8
REMARK VINA RESULT:      -6.8      3.666      6.172
REMARK  Name = 
REMARK  16 active torsions:
REMARK  status: ('A' for Active; 'I' for Inactive)
REMARK    1  A    between atoms: C_1  and  C_2
REMARK    2  A    between atoms: C_2  and  C_3
REMARK    3  A    between atoms: C_3  and  C_4
REMARK    4  A    between atoms: C_4  and  C_5
REMARK    5  A    between atoms: C_5  and  C_6
REMARK    6  A    between atoms: C_6  and  C_7
REMARK    7  A    between atoms: C_7  and  C_8
REMARK    8  A    between atoms: C_8  and  C_9
REMARK    9  A    between atoms: C_9  and  C_10
REMARK   10  A    between atoms: C_9  and  O_11
REMARK   11  A    between atoms: C_9  and  C_12
REMARK   12  A    between atoms: C_12  and  C_13
REMARK   13  A    between atoms: C_13  and  C_14
REMARK   14  A    between atoms: C_18  and  C_19
REMARK   15  A    between atoms: C_20  and  O_21
REMARK   16  A    between atoms: C_22  and  C_23
REMARK                            x       y       z     vdW  Elec       q    Type
REMARK                         _______ _______ _______ _____ _____    ______ ____
ROOT
ATOM      1  C   UNL     1       4.699   5.065  16.794  0.00  0.00    +0.000 C 
ENDROOT
BRANCH   1   2
ATOM      2  C   UNL     1       6.178   5.278  17.165  0.00  0.00    +0.000 C 
ATOM      3  C   UNL     1       7.076   5.267  15.923  0.00  0.00    +0.000 C 
BRANCH   2   4
ATOM      4  O   UNL     1       6.574   4.192  18.011  0.00  0.00    +0.000 OA
ATOM      5  H   UNL     1       5.997   4.189  18.794  0.00  0.00    +0.000 HD
ENDBRANCH   2   4
BRANCH   2   6
ATOM      6  C   UNL     1       6.358   6.604  17.932  0.00  0.00    +0.000 C 
BRANCH   6   7
ATOM      7  C   UNL     1       7.814   7.070  17.961  0.00  0.00    +0.000 C 
BRANCH   7   8
ATOM      8  C   UNL     1       7.945   8.551  17.658  0.00  0.00    +0.000 C 
BRANCH   8   9
ATOM      9  C   UNL     1       8.803   9.197  18.739  0.00  0.00    +0.000 C 
BRANCH   9  10
ATOM     10  C   UNL     1       8.934  10.689  18.491  0.00  0.00    +0.000 C 
BRANCH  10  11
ATOM     11  C   UNL     1      10.247  10.994  17.785  0.00  0.00    +0.000 C 
BRANCH  11  13
ATOM     12  C   UNL     1      10.908  13.316  17.124  0.00  0.00    +0.000 C 
ATOM     13  C   UNL     1      10.812  12.324  18.267  0.00  0.00    +0.000 C 
ENDBRANCH  11  13
ENDBRANCH  10  11
ENDBRANCH   9  10
ENDBRANCH   8   9
ENDBRANCH   7   8
ENDBRANCH   6   7
ENDBRANCH   2   6
ENDBRANCH   1   2
BRANCH   1  14
ATOM     14  C   UNL     1       4.261   3.607  16.900  0.00  0.00    +0.000 C 
BRANCH  14  15
ATOM     15  C   UNL     1       3.567   3.343  18.202  0.00  0.00    +0.000 A 
ATOM     16  O   UNL     1       4.404   2.709  19.147  0.00  0.00    +0.000 OA
ATOM     17  C   UNL     1       3.974   2.425  20.409  0.00  0.00    +0.000 A 
ATOM     18  O   UNL     1       4.716   1.898  21.227  0.00  0.00    +0.000 OA
ATOM     19  C   UNL     1       2.570   2.774  20.736  0.00  0.00    +0.000 A 
ATOM     20  C   UNL     1       2.098   2.430  22.118  0.00  0.00    +0.000 C 
ATOM     21  C   UNL     1       1.799   3.369  19.810  0.00  0.00    +0.000 A 
ATOM     22  C   UNL     1       2.301   3.683  18.485  0.00  0.00    +0.000 A 
ATOM     23  C   UNL     1       1.403   4.344  17.467  0.00  0.00    +0.000 C 
BRANCH  21  24
ATOM     24  O   UNL     1       0.491   3.732  20.025  0.00  0.00    +0.000 OA
ATOM     25  H   UNL     1      -0.054   3.474  19.271  0.00  0.00    +0.000 HD
ENDBRANCH  21  24
ENDBRANCH  14  15
ENDBRANCH   1  14
TORSDOF 12
ENDMDL
MODEL 9
REMARK VINA RESULT:      -6.8      1.596      2.505
REMARK  Name = 
REMARK  16 active torsions:
REMARK  status: ('A' for Active; 'I' for Inactive)
REMARK    1  A    between atoms: C_1  and  C_2
REMARK    2  A    between atoms: C_2  and  C_3
REMARK    3  A    between atoms: C_3  and  C_4
REMARK    4  A    between atoms: C_4  and  C_5
REMARK    5  A    between atoms: C_5  and  C_6
REMARK    6  A    between atoms: C_6  and  C_7
REMARK    7  A    between atoms: C_7  and  C_8
REMARK    8  A    between atoms: C_8  and  C_9
REMARK    9  A    between atoms: C_9  and  C_10
REMARK   10  A    between atoms: C_9  and  O_11
REMARK   11  A    between atoms: C_9  and  C_12
REMARK   12  A    between atoms: C_12  and  C_13
REMARK   13  A    between atoms: C_13  and  C_14
REMARK   14  A    between atoms: C_18  and  C_19
REMARK   15  A    between atoms: C_20  and  O_21
REMARK   16  A    between atoms: C_22  and  C_23
REMARK                            x       y       z     vdW  Elec       q    Type
REMARK                         _______ _______ _______ _____ _____    ______ ____
ROOT
ATOM      1  C   UNL     1       5.785   3.979  16.417  0.00  0.00    +0.000 C 
ENDROOT
BRANCH   1   2
ATOM      2  C   UNL     1       6.408   5.259  15.831  0.00  0.00    +0.000 C 
ATOM      3  C   UNL     1       7.158   6.060  16.902  0.00  0.00    +0.000 C 
BRANCH   2   4
ATOM      4  O   UNL     1       5.341   6.072  15.331  0.00  0.00    +0.000 OA
ATOM      5  H   UNL     1       4.624   5.486  15.033  0.00  0.00    +0.000 HD
ENDBRANCH   2   4
BRANCH   2   6
ATOM      6  C   UNL     1       7.363   4.914  14.670  0.00  0.00    +0.000 C 
BRANCH   6   7
ATOM      7  C   UNL     1       6.632   4.761  13.337  0.00  0.00    +0.000 C 
BRANCH   7   8
ATOM      8  C   UNL     1       6.122   3.347  13.125  0.00  0.00    +0.000 C 
BRANCH   8   9
ATOM      9  C   UNL     1       5.815   3.155  11.644  0.00  0.00    +0.000 C 
BRANCH   9  10
ATOM     10  C   UNL     1       4.326   2.946  11.434  0.00  0.00    +0.000 C 
BRANCH  10  11
ATOM     11  C   UNL     1       3.708   4.173  10.779  0.00  0.00    +0.000 C 
BRANCH  11  13
ATOM     12  C   UNL     1       2.219   4.973   8.934  0.00  0.00    +0.000 C 
ATOM     13  C   UNL     1       2.910   3.771   9.546  0.00  0.00    +0.000 C 
ENDBRANCH  11  13
ENDBRANCH  10  11
ENDBRANCH   9  10
ENDBRANCH   8   9
ENDBRANCH   7   8
ENDBRANCH   6   7
ENDBRANCH   2   6
ENDBRANCH   1   2
BRANCH   1  14
ATOM     14  C   UNL     1       4.272   3.909  16.223  0.00  0.00    +0.000 C 
BRANCH  14  15
ATOM     15  C   UNL     1       3.547   4.262  17.485  0.00  0.00    +0.000 A 
ATOM     16  O   UNL     1       3.390   5.655  17.652  0.00  0.00    +0.000 OA
ATOM     17  C   UNL     1       2.716   6.179  18.716  0.00  0.00    +0.000 A 
ATOM     18  O   UNL     1       2.565   7.388  18.836  0.00  0.00    +0.000 OA
ATOM     19  C   UNL     1       2.188   5.219  19.716  0.00  0.00    +0.000 A 
ATOM     20  C   UNL     1       1.474   5.808  20.897  0.00  0.00    +0.000 C 
ATOM     21  C   UNL     1       2.363   3.900  19.529  0.00  0.00    +0.000 A 
ATOM     22  C   UNL     1       3.061   3.378  18.370  0.00  0.00    +0.000 A 
ATOM     23  C   UNL     1       3.246   1.890  18.198  0.00  0.00    +0.000 C 
BRANCH  21  24
ATOM     24  O   UNL     1       1.904   2.940  20.400  0.00  0.00    +0.000 OA
ATOM     25  H   UNL     1       1.408   2.266  19.918  0.00  0.00    +0.000 HD
ENDBRANCH  21  24
ENDBRANCH  14  15
ENDBRANCH   1  14
TORSDOF 12
ENDMDL
