MODEL 1
REMARK VINA RESULT:      -7.9      0.000      0.000
REMARK  Name = 
REMARK  5 active torsions:
REMARK  status: ('A' for Active; 'I' for Inactive)
REMARK    1  A    between atoms: O_1  and  C_2
REMARK    2  A    between atoms: C_2  and  C_3
REMARK    3  A    between atoms: C_3  and  N_4
REMARK    4  A    between atoms: C_15  and  C_16
REMARK    5  A    between atoms: C_19  and  O_20
REMARK                            x       y       z     vdW  Elec       q    Type
REMARK                         _______ _______ _______ _____ _____    ______ ____
ROOT
ATOM      1  N   UNL     1      -1.025  12.475  19.447  0.00  0.00    +0.000 NA
ATOM      2  C   UNL     1      -0.617  12.307  20.845  0.00  0.00    +0.000 C 
ATOM      3  O   UNL     1      -0.379  10.953  21.250  0.00  0.00    +0.000 OA
ATOM      4  C   UNL     1       0.383  10.235  20.367  0.00  0.00    +0.000 A 
ATOM      5  C   UNL     1       0.835   8.987  20.788  0.00  0.00    +0.000 A 
ATOM      6  C   UNL     1       1.585   8.189  19.924  0.00  0.00    +0.000 A 
ATOM      7  C   UNL     1       1.889   8.645  18.638  0.00  0.00    +0.000 A 
ATOM      8  C   UNL     1       1.419   9.893  18.212  0.00  0.00    +0.000 A 
ATOM      9  C   UNL     1       0.645  10.686  19.070  0.00  0.00    +0.000 A 
ATOM     10  C   UNL     1       0.106  12.018  18.622  0.00  0.00    +0.000 C 
ATOM     11  C   UNL     1       2.715   7.834  17.758  0.00  0.00    +0.000 C 
ATOM     12  C   UNL     1       3.118   6.641  18.209  0.00  0.00    +0.000 C 
ATOM     13  C   UNL     1       2.729   6.101  19.557  0.00  0.00    +0.000 C 
ATOM     14  O   UNL     1       1.994   6.984  20.422  0.00  0.00    +0.000 OA
ENDROOT
BRANCH  12  15
ATOM     15  C   UNL     1       4.014   5.833  17.375  0.00  0.00    +0.000 A 
ATOM     16  C   UNL     1       4.850   6.464  16.445  0.00  0.00    +0.000 A 
ATOM     17  C   UNL     1       5.651   5.707  15.585  0.00  0.00    +0.000 A 
ATOM     18  C   UNL     1       5.609   4.318  15.662  0.00  0.00    +0.000 A 
ATOM     19  C   UNL     1       4.795   3.679  16.591  0.00  0.00    +0.000 A 
ATOM     20  C   UNL     1       3.993   4.435  17.448  0.00  0.00    +0.000 A 
BRANCH  18  21
ATOM     21  O   UNL     1       6.347   3.542  14.821  0.00  0.00    +0.000 OA
ATOM     22  H   UNL     1       5.864   2.716  14.657  0.00  0.00    +0.000 HD
ENDBRANCH  18  21
ENDBRANCH  12  15
BRANCH   1  23
ATOM     23  C   UNL     1      -2.254  11.730  19.108  0.00  0.00    +0.000 C 
BRANCH  23  24
ATOM     24  C   UNL     1      -2.495  11.515  17.608  0.00  0.00    +0.000 C 
BRANCH  24  25
ATOM     25  O   UNL     1      -3.779  12.029  17.261  0.00  0.00    +0.000 OA
ATOM     26  H   UNL     1      -4.355  11.264  17.092  0.00  0.00    +0.000 HD
ENDBRANCH  24  25
ENDBRANCH  23  24
ENDBRANCH   1  23
TORSDOF 5
ENDMDL
MODEL 2
REMARK VINA RESULT:      -7.9      3.086      8.674
REMARK  Name = 
REMARK  5 active torsions:
REMARK  status: ('A' for Active; 'I' for Inactive)
REMARK    1  A    between atoms: O_1  and  C_2
REMARK    2  A    between atoms: C_2  and  C_3
REMARK    3  A    between atoms: C_3  and  N_4
REMARK    4  A    between atoms: C_15  and  C_16
REMARK    5  A    between atoms: C_19  and  O_20
REMARK                            x       y       z     vdW  Elec       q    Type
REMARK                         _______ _______ _______ _____ _____    ______ ____
ROOT
ATOM      1  N   UNL     1       4.840   3.580  18.115  0.00  0.00    +0.000 NA
ATOM      2  C   UNL     1       5.600   4.517  17.282  0.00  0.00    +0.000 C 
ATOM      3  O   UNL     1       4.840   5.607  16.745  0.00  0.00    +0.000 OA
ATOM      4  C   UNL     1       4.028   6.222  17.661  0.00  0.00    +0.000 A 
ATOM      5  C   UNL     1       3.425   7.416  17.273  0.00  0.00    +0.000 A 
ATOM      6  C   UNL     1       2.558   8.074  18.144  0.00  0.00    +0.000 A 
ATOM      7  C   UNL     1       2.299   7.541  19.410  0.00  0.00    +0.000 A 
ATOM      8  C   UNL     1       2.895   6.332  19.791  0.00  0.00    +0.000 A 
ATOM      9  C   UNL     1       3.748   5.656  18.908  0.00  0.00    +0.000 A 
ATOM     10  C   UNL     1       4.375   4.341  19.287  0.00  0.00    +0.000 C 
ATOM     11  C   UNL     1       1.437   8.256  20.336  0.00  0.00    +0.000 C 
ATOM     12  C   UNL     1       0.877   9.395  19.911  0.00  0.00    +0.000 C 
ATOM     13  C   UNL     1       1.079   9.937  18.524  0.00  0.00    +0.000 C 
ATOM     14  O   UNL     1       2.017   9.242  17.685  0.00  0.00    +0.000 OA
ENDROOT
BRANCH  12  15
ATOM     15  C   UNL     1       0.063  10.177  20.847  0.00  0.00    +0.000 A 
ATOM     16  C   UNL     1      -0.057   9.757  22.179  0.00  0.00    +0.000 A 
ATOM     17  C   UNL     1      -0.893  10.443  23.064  0.00  0.00    +0.000 A 
ATOM     18  C   UNL     1      -1.605  11.548  22.610  0.00  0.00    +0.000 A 
ATOM     19  C   UNL     1      -1.484  11.986  21.295  0.00  0.00    +0.000 A 
ATOM     20  C   UNL     1      -0.651  11.299  20.410  0.00  0.00    +0.000 A 
BRANCH  18  21
ATOM     21  O   UNL     1      -2.456  12.226  23.430  0.00  0.00    +0.000 OA
ATOM     22  H   UNL     1      -3.287  11.727  23.495  0.00  0.00    +0.000 HD
ENDBRANCH  18  21
ENDBRANCH  12  15
BRANCH   1  23
ATOM     23  C   UNL     1       3.700   2.967  17.405  0.00  0.00    +0.000 C 
BRANCH  23  24
ATOM     24  C   UNL     1       3.043   1.781  18.124  0.00  0.00    +0.000 C 
BRANCH  24  25
ATOM     25  O   UNL     1       4.018   0.760  18.330  0.00  0.00    +0.000 OA
ATOM     26  H   UNL     1       3.684   0.189  19.043  0.00  0.00    +0.000 HD
ENDBRANCH  24  25
ENDBRANCH  23  24
ENDBRANCH   1  23
TORSDOF 5
ENDMDL
MODEL 3
REMARK VINA RESULT:      -7.7      2.832      8.414
REMARK  Name = 
REMARK  5 active torsions:
REMARK  status: ('A' for Active; 'I' for Inactive)
REMARK    1  A    between atoms: O_1  and  C_2
REMARK    2  A    between atoms: C_2  and  C_3
REMARK    3  A    between atoms: C_3  and  N_4
REMARK    4  A    between atoms: C_15  and  C_16
REMARK    5  A    between atoms: C_19  and  O_20
REMARK                            x       y       z     vdW  Elec       q    Type
REMARK                         _______ _______ _______ _____ _____    ______ ____
ROOT
ATOM      1  N   UNL     1       5.906   5.574  16.832  0.00  0.00    +0.000 NA
ATOM      2  C   UNL     1       5.265   4.428  17.484  0.00  0.00    +0.000 C 
ATOM      3  O   UNL     1       4.610   4.723  18.724  0.00  0.00    +0.000 OA
ATOM      4  C   UNL     1       3.822   5.843  18.684  0.00  0.00    +0.000 A 
ATOM      5  C   UNL     1       2.990   6.072  19.777  0.00  0.00    +0.000 A 
ATOM      6  C   UNL     1       2.189   7.213  19.815  0.00  0.00    +0.000 A 
ATOM      7  C   UNL     1       2.215   8.122  18.754  0.00  0.00    +0.000 A 
ATOM      8  C   UNL     1       3.065   7.897  17.665  0.00  0.00    +0.000 A 
ATOM      9  C   UNL     1       3.888   6.764  17.634  0.00  0.00    +0.000 A 
ATOM     10  C   UNL     1       4.830   6.518  16.487  0.00  0.00    +0.000 C 
ATOM     11  C   UNL     1       1.340   9.283  18.773  0.00  0.00    +0.000 C 
ATOM     12  C   UNL     1       0.565   9.460  19.849  0.00  0.00    +0.000 C 
ATOM     13  C   UNL     1       0.588   8.537  21.035  0.00  0.00    +0.000 C 
ATOM     14  O   UNL     1       1.398   7.355  20.921  0.00  0.00    +0.000 OA
ENDROOT
BRANCH  12  15
ATOM     15  C   UNL     1      -0.382  10.580  19.864  0.00  0.00    +0.000 A 
ATOM     16  C   UNL     1      -0.563  11.318  21.042  0.00  0.00    +0.000 A 
ATOM     17  C   UNL     1      -1.519  12.336  21.099  0.00  0.00    +0.000 A 
ATOM     18  C   UNL     1      -2.290  12.610  19.974  0.00  0.00    +0.000 A 
ATOM     19  C   UNL     1      -2.110  11.896  18.793  0.00  0.00    +0.000 A 
ATOM     20  C   UNL     1      -1.157  10.877  18.737  0.00  0.00    +0.000 A 
BRANCH  18  21
ATOM     21  O   UNL     1      -3.256  13.570  19.996  0.00  0.00    +0.000 OA
ATOM     22  H   UNL     1      -3.674  13.570  20.872  0.00  0.00    +0.000 HD
ENDBRANCH  18  21
ENDBRANCH  12  15
BRANCH   1  23
ATOM     23  C   UNL     1       6.923   6.229  17.680  0.00  0.00    +0.000 C 
BRANCH  23  24
ATOM     24  C   UNL     1       7.734   5.283  18.576  0.00  0.00    +0.000 C 
BRANCH  24  25
ATOM     25  O   UNL     1       7.303   5.434  19.927  0.00  0.00    +0.000 OA
ATOM     26  H   UNL     1       8.104   5.516  20.473  0.00  0.00    +0.000 HD
ENDBRANCH  24  25
ENDBRANCH  23  24
ENDBRANCH   1  23
TORSDOF 5
ENDMDL
MODEL 4
REMARK VINA RESULT:      -7.7      2.813      8.311
REMARK  Name = 
REMARK  5 active torsions:
REMARK  status: ('A' for Active; 'I' for Inactive)
REMARK    1  A    between atoms: O_1  and  C_2
REMARK    2  A    between atoms: C_2  and  C_3
REMARK    3  A    between atoms: C_3  and  N_4
REMARK    4  A    between atoms: C_15  and  C_16
REMARK    5  A    between atoms: C_19  and  O_20
REMARK                            x       y       z     vdW  Elec       q    Type
REMARK                         _______ _______ _______ _____ _____    ______ ____
ROOT
ATOM      1  N   UNL     1       5.033   4.001  17.688  0.00  0.00    +0.000 NA
ATOM      2  C   UNL     1       3.984   3.278  18.415  0.00  0.00    +0.000 C 
ATOM      3  O   UNL     1       3.383   4.004  19.494  0.00  0.00    +0.000 OA
ATOM      4  C   UNL     1       3.042   5.292  19.175  0.00  0.00    +0.000 A 
ATOM      5  C   UNL     1       2.263   5.989  20.096  0.00  0.00    +0.000 A 
ATOM      6  C   UNL     1       1.912   7.316  19.849  0.00  0.00    +0.000 A 
ATOM      7  C   UNL     1       2.334   7.945  18.675  0.00  0.00    +0.000 A 
ATOM      8  C   UNL     1       3.131   7.247  17.759  0.00  0.00    +0.000 A 
ATOM      9  C   UNL     1       3.505   5.921  18.015  0.00  0.00    +0.000 A 
ATOM     10  C   UNL     1       4.385   5.163  17.058  0.00  0.00    +0.000 C 
ATOM     11  C   UNL     1       1.922   9.311  18.395  0.00  0.00    +0.000 C 
ATOM     12  C   UNL     1       1.180   9.937  19.316  0.00  0.00    +0.000 C 
ATOM     13  C   UNL     1       0.789   9.302  20.621  0.00  0.00    +0.000 C 
ATOM     14  O   UNL     1       1.140   7.920  20.802  0.00  0.00    +0.000 OA
ENDROOT
BRANCH  12  15
ATOM     15  C   UNL     1       0.686  11.288  19.030  0.00  0.00    +0.000 A 
ATOM     16  C   UNL     1       1.596  12.304  18.707  0.00  0.00    +0.000 A 
ATOM     17  C   UNL     1       1.154  13.614  18.511  0.00  0.00    +0.000 A 
ATOM     18  C   UNL     1      -0.202  13.901  18.639  0.00  0.00    +0.000 A 
ATOM     19  C   UNL     1      -1.119  12.900  18.944  0.00  0.00    +0.000 A 
ATOM     20  C   UNL     1      -0.676  11.591  19.142  0.00  0.00    +0.000 A 
BRANCH  18  21
ATOM     21  O   UNL     1      -0.672  15.171  18.490  0.00  0.00    +0.000 OA
ATOM     22  H   UNL     1      -1.143  15.425  19.300  0.00  0.00    +0.000 HD
ENDBRANCH  18  21
ENDBRANCH  12  15
BRANCH   1  23
ATOM     23  C   UNL     1       6.148   4.431  18.556  0.00  0.00    +0.000 C 
BRANCH  23  24
ATOM     24  C   UNL     1       7.319   5.106  17.829  0.00  0.00    +0.000 C 
BRANCH  24  25
ATOM     25  O   UNL     1       7.967   4.147  16.995  0.00  0.00    +0.000 OA
ATOM     26  H   UNL     1       8.109   4.571  16.132  0.00  0.00    +0.000 HD
ENDBRANCH  24  25
ENDBRANCH  23  24
ENDBRANCH   1  23
TORSDOF 5
ENDMDL
MODEL 5
REMARK VINA RESULT:      -7.6      3.245      8.487
REMARK  Name = 
REMARK  5 active torsions:
REMARK  status: ('A' for Active; 'I' for Inactive)
REMARK    1  A    between atoms: O_1  and  C_2
REMARK    2  A    between atoms: C_2  and  C_3
REMARK    3  A    between atoms: C_3  and  N_4
REMARK    4  A    between atoms: C_15  and  C_16
REMARK    5  A    between atoms: C_19  and  O_20
REMARK                            x       y       z     vdW  Elec       q    Type
REMARK                         _______ _______ _______ _____ _____    ______ ____
ROOT
ATOM      1  N   UNL     1       4.196   2.932  18.443  0.00  0.00    +0.000 NA
ATOM      2  C   UNL     1       5.053   3.753  17.582  0.00  0.00    +0.000 C 
ATOM      3  O   UNL     1       4.427   4.920  17.036  0.00  0.00    +0.000 OA
ATOM      4  C   UNL     1       3.713   5.647  17.953  0.00  0.00    +0.000 A 
ATOM      5  C   UNL     1       3.258   6.901  17.552  0.00  0.00    +0.000 A 
ATOM      6  C   UNL     1       2.494   7.676  18.424  0.00  0.00    +0.000 A 
ATOM      7  C   UNL     1       2.192   7.200  19.703  0.00  0.00    +0.000 A 
ATOM      8  C   UNL     1       2.638   5.932  20.096  0.00  0.00    +0.000 A 
ATOM      9  C   UNL     1       3.385   5.141  19.214  0.00  0.00    +0.000 A 
ATOM     10  C   UNL     1       3.849   3.764  19.607  0.00  0.00    +0.000 C 
ATOM     11  C   UNL     1       1.441   8.032  20.628  0.00  0.00    +0.000 C 
ATOM     12  C   UNL     1       1.021   9.225  20.191  0.00  0.00    +0.000 C 
ATOM     13  C   UNL     1       1.266   9.715  18.792  0.00  0.00    +0.000 C 
ATOM     14  O   UNL     1       2.096   8.895  17.952  0.00  0.00    +0.000 OA
ENDROOT
BRANCH  12  15
ATOM     15  C   UNL     1       0.327  10.118  21.124  0.00  0.00    +0.000 A 
ATOM     16  C   UNL     1      -0.251   9.590  22.287  0.00  0.00    +0.000 A 
ATOM     17  C   UNL     1      -0.986  10.411  23.147  0.00  0.00    +0.000 A 
ATOM     18  C   UNL     1      -1.139  11.758  22.836  0.00  0.00    +0.000 A 
ATOM     19  C   UNL     1      -0.558  12.299  21.694  0.00  0.00    +0.000 A 
ATOM     20  C   UNL     1       0.174  11.478  20.833  0.00  0.00    +0.000 A 
BRANCH  18  21
ATOM     21  O   UNL     1      -1.875  12.586  23.629  0.00  0.00    +0.000 OA
ATOM     22  H   UNL     1      -1.676  12.386  24.558  0.00  0.00    +0.000 HD
ENDBRANCH  18  21
ENDBRANCH  12  15
BRANCH   1  23
ATOM     23  C   UNL     1       2.976   2.455  17.760  0.00  0.00    +0.000 C 
BRANCH  23  24
ATOM     24  C   UNL     1       1.847   1.990  18.689  0.00  0.00    +0.000 C 
BRANCH  24  25
ATOM     25  O   UNL     1       0.628   2.619  18.295  0.00  0.00    +0.000 OA
ATOM     26  H   UNL     1       0.722   2.856  17.357  0.00  0.00    +0.000 HD
ENDBRANCH  24  25
ENDBRANCH  23  24
ENDBRANCH   1  23
TORSDOF 5
ENDMDL
MODEL 6
REMARK VINA RESULT:      -7.6      2.821      8.377
REMARK  Name = 
REMARK  5 active torsions:
REMARK  status: ('A' for Active; 'I' for Inactive)
REMARK    1  A    between atoms: O_1  and  C_2
REMARK    2  A    between atoms: C_2  and  C_3
REMARK    3  A    between atoms: C_3  and  N_4
REMARK    4  A    between atoms: C_15  and  C_16
REMARK    5  A    between atoms: C_19  and  O_20
REMARK                            x       y       z     vdW  Elec       q    Type
REMARK                         _______ _______ _______ _____ _____    ______ ____
ROOT
ATOM      1  N   UNL     1       4.868   3.967  17.600  0.00  0.00    +0.000 NA
ATOM      2  C   UNL     1       3.834   3.231  18.334  0.00  0.00    +0.000 C 
ATOM      3  O   UNL     1       3.281   3.921  19.462  0.00  0.00    +0.000 OA
ATOM      4  C   UNL     1       2.950   5.226  19.206  0.00  0.00    +0.000 A 
ATOM      5  C   UNL     1       2.213   5.895  20.181  0.00  0.00    +0.000 A 
ATOM      6  C   UNL     1       1.875   7.236  19.999  0.00  0.00    +0.000 A 
ATOM      7  C   UNL     1       2.266   7.906  18.836  0.00  0.00    +0.000 A 
ATOM      8  C   UNL     1       3.020   7.233  17.866  0.00  0.00    +0.000 A 
ATOM      9  C   UNL     1       3.382   5.894  18.057  0.00  0.00    +0.000 A 
ATOM     10  C   UNL     1       4.216   5.162  17.040  0.00  0.00    +0.000 C 
ATOM     11  C   UNL     1       1.866   9.287  18.625  0.00  0.00    +0.000 C 
ATOM     12  C   UNL     1       1.165   9.886  19.595  0.00  0.00    +0.000 C 
ATOM     13  C   UNL     1       0.810   9.206  20.887  0.00  0.00    +0.000 C 
ATOM     14  O   UNL     1       1.145   7.812  21.001  0.00  0.00    +0.000 OA
ENDROOT
BRANCH  12  15
ATOM     15  C   UNL     1       0.683  11.255  19.380  0.00  0.00    +0.000 A 
ATOM     16  C   UNL     1      -0.642  11.580  19.698  0.00  0.00    +0.000 A 
ATOM     17  C   UNL     1      -1.143  12.856  19.424  0.00  0.00    +0.000 A 
ATOM     18  C   UNL     1      -0.311  13.801  18.833  0.00  0.00    +0.000 A 
ATOM     19  C   UNL     1       1.012  13.497  18.527  0.00  0.00    +0.000 A 
ATOM     20  C   UNL     1       1.511  12.221  18.797  0.00  0.00    +0.000 A 
BRANCH  18  21
ATOM     21  O   UNL     1      -0.767  15.045  18.519  0.00  0.00    +0.000 OA
ATOM     22  H   UNL     1      -0.981  15.514  19.342  0.00  0.00    +0.000 HD
ENDBRANCH  18  21
ENDBRANCH  12  15
BRANCH   1  23
ATOM     23  C   UNL     1       6.018   4.347  18.445  0.00  0.00    +0.000 C 
BRANCH  23  24
ATOM     24  C   UNL     1       7.206   4.962  17.693  0.00  0.00    +0.000 C 
BRANCH  24  25
ATOM     25  O   UNL     1       8.300   4.047  17.716  0.00  0.00    +0.000 OA
ATOM     26  H   UNL     1       9.051   4.492  17.288  0.00  0.00    +0.000 HD
ENDBRANCH  24  25
ENDBRANCH  23  24
ENDBRANCH   1  23
TORSDOF 5
ENDMDL
MODEL 7
REMARK VINA RESULT:      -7.6      0.578      1.142
REMARK  Name = 
REMARK  5 active torsions:
REMARK  status: ('A' for Active; 'I' for Inactive)
REMARK    1  A    between atoms: O_1  and  C_2
REMARK    2  A    between atoms: C_2  and  C_3
REMARK    3  A    between atoms: C_3  and  N_4
REMARK    4  A    between atoms: C_15  and  C_16
REMARK    5  A    between atoms: C_19  and  O_20
REMARK                            x       y       z     vdW  Elec       q    Type
REMARK                         _______ _______ _______ _____ _____    ______ ____
ROOT
ATOM      1  N   UNL     1      -0.969  12.739  19.417  0.00  0.00    +0.000 NA
ATOM      2  C   UNL     1      -0.522  12.627  20.809  0.00  0.00    +0.000 C 
ATOM      3  O   UNL     1      -0.326  11.288  21.278  0.00  0.00    +0.000 OA
ATOM      4  C   UNL     1       0.377  10.493  20.411  0.00  0.00    +0.000 A 
ATOM      5  C   UNL     1       0.793   9.251  20.884  0.00  0.00    +0.000 A 
ATOM      6  C   UNL     1       1.480   8.379  20.041  0.00  0.00    +0.000 A 
ATOM      7  C   UNL     1       1.760   8.753  18.723  0.00  0.00    +0.000 A 
ATOM      8  C   UNL     1       1.326   9.997  18.246  0.00  0.00    +0.000 A 
ATOM      9  C   UNL     1       0.615  10.865  19.084  0.00  0.00    +0.000 A 
ATOM     10  C   UNL     1       0.114  12.193  18.582  0.00  0.00    +0.000 C 
ATOM     11  C   UNL     1       2.523   7.864  17.863  0.00  0.00    +0.000 C 
ATOM     12  C   UNL     1       2.893   6.680  18.364  0.00  0.00    +0.000 C 
ATOM     13  C   UNL     1       2.527   6.228  19.750  0.00  0.00    +0.000 C 
ATOM     14  O   UNL     1       1.857   7.185  20.589  0.00  0.00    +0.000 OA
ENDROOT
BRANCH  12  15
ATOM     15  C   UNL     1       3.727   5.793  17.547  0.00  0.00    +0.000 A 
ATOM     16  C   UNL     1       3.583   4.404  17.665  0.00  0.00    +0.000 A 
ATOM     17  C   UNL     1       4.424   3.543  16.955  0.00  0.00    +0.000 A 
ATOM     18  C   UNL     1       5.407   4.079  16.129  0.00  0.00    +0.000 A 
ATOM     19  C   UNL     1       5.551   5.456  15.990  0.00  0.00    +0.000 A 
ATOM     20  C   UNL     1       4.712   6.316  16.701  0.00  0.00    +0.000 A 
BRANCH  18  21
ATOM     21  O   UNL     1       6.269   3.277  15.445  0.00  0.00    +0.000 OA
ATOM     22  H   UNL     1       6.528   3.727  14.624  0.00  0.00    +0.000 HD
ENDBRANCH  18  21
ENDBRANCH  12  15
BRANCH   1  23
ATOM     23  C   UNL     1      -2.237  12.030  19.156  0.00  0.00    +0.000 C 
BRANCH  23  24
ATOM     24  C   UNL     1      -2.418  11.521  17.720  0.00  0.00    +0.000 C 
BRANCH  24  25
ATOM     25  O   UNL     1      -2.636  10.111  17.747  0.00  0.00    +0.000 OA
ATOM     26  H   UNL     1      -3.041   9.903  18.606  0.00  0.00    +0.000 HD
ENDBRANCH  24  25
ENDBRANCH  23  24
ENDBRANCH   1  23
TORSDOF 5
ENDMDL
MODEL 8
REMARK VINA RESULT:      -7.4      3.124      8.498
REMARK  Name = 
REMARK  5 active torsions:
REMARK  status: ('A' for Active; 'I' for Inactive)
REMARK    1  A    between atoms: O_1  and  C_2
REMARK    2  A    between atoms: C_2  and  C_3
REMARK    3  A    between atoms: C_3  and  N_4
REMARK    4  A    between atoms: C_15  and  C_16
REMARK    5  A    between atoms: C_19  and  O_20
REMARK                            x       y       z     vdW  Elec       q    Type
REMARK                         _______ _______ _______ _____ _____    ______ ____
ROOT
ATOM      1  N   UNL     1       3.628   3.677  18.438  0.00  0.00    +0.000 NA
ATOM      2  C   UNL     1       4.599   4.461  17.667  0.00  0.00    +0.000 C 
ATOM      3  O   UNL     1       4.093   5.685  17.120  0.00  0.00    +0.000 OA
ATOM      4  C   UNL     1       3.366   6.432  18.008  0.00  0.00    +0.000 A 
ATOM      5  C   UNL     1       3.026   7.726  17.619  0.00  0.00    +0.000 A 
ATOM      6  C   UNL     1       2.255   8.527  18.461  0.00  0.00    +0.000 A 
ATOM      7  C   UNL     1       1.830   8.035  19.699  0.00  0.00    +0.000 A 
ATOM      8  C   UNL     1       2.160   6.728  20.079  0.00  0.00    +0.000 A 
ATOM      9  C   UNL     1       2.914   5.914  19.225  0.00  0.00    +0.000 A 
ATOM     10  C   UNL     1       3.255   4.497  19.602  0.00  0.00    +0.000 C 
ATOM     11  C   UNL     1       1.072   8.890  20.597  0.00  0.00    +0.000 C 
ATOM     12  C   UNL     1       0.766  10.122  20.173  0.00  0.00    +0.000 C 
ATOM     13  C   UNL     1       1.144  10.635  18.812  0.00  0.00    +0.000 C 
ATOM     14  O   UNL     1       1.975   9.784  18.004  0.00  0.00    +0.000 OA
ENDROOT
BRANCH  12  15
ATOM     15  C   UNL     1       0.068  11.033  21.085  0.00  0.00    +0.000 A 
ATOM     16  C   UNL     1       0.221  12.418  20.932  0.00  0.00    +0.000 A 
ATOM     17  C   UNL     1      -0.371  13.300  21.841  0.00  0.00    +0.000 A 
ATOM     18  C   UNL     1      -1.115  12.788  22.900  0.00  0.00    +0.000 A 
ATOM     19  C   UNL     1      -1.288  11.416  23.055  0.00  0.00    +0.000 A 
ATOM     20  C   UNL     1      -0.694  10.536  22.149  0.00  0.00    +0.000 A 
BRANCH  18  21
ATOM     21  O   UNL     1      -1.681  13.610  23.826  0.00  0.00    +0.000 OA
ATOM     22  H   UNL     1      -2.587  13.307  23.998  0.00  0.00    +0.000 HD
ENDBRANCH  18  21
ENDBRANCH  12  15
BRANCH   1  23
ATOM     23  C   UNL     1       2.432   3.306  17.655  0.00  0.00    +0.000 C 
BRANCH  23  24
ATOM     24  C   UNL     1       1.314   2.624  18.455  0.00  0.00    +0.000 C 
BRANCH  24  25
ATOM     25  O   UNL     1       1.755   1.331  18.866  0.00  0.00    +0.000 OA
ATOM     26  H   UNL     1       1.335   1.147  19.724  0.00  0.00    +0.000 HD
ENDBRANCH  24  25
ENDBRANCH  23  24
ENDBRANCH   1  23
TORSDOF 5
ENDMDL
MODEL 9
REMARK VINA RESULT:      -7.4      2.841      8.447
REMARK  Name = 
REMARK  5 active torsions:
REMARK  status: ('A' for Active; 'I' for Inactive)
REMARK    1  A    between atoms: O_1  and  C_2
REMARK    2  A    between atoms: C_2  and  C_3
REMARK    3  A    between atoms: C_3  and  N_4
REMARK    4  A    between atoms: C_15  and  C_16
REMARK    5  A    between atoms: C_19  and  O_20
REMARK                            x       y       z     vdW  Elec       q    Type
REMARK                         _______ _______ _______ _____ _____    ______ ____
ROOT
ATOM      1  N   UNL     1       5.866   5.418  16.629  0.00  0.00    +0.000 NA
ATOM      2  C   UNL     1       5.182   4.272  17.238  0.00  0.00    +0.000 C 
ATOM      3  O   UNL     1       4.556   4.539  18.500  0.00  0.00    +0.000 OA
ATOM      4  C   UNL     1       3.819   5.693  18.521  0.00  0.00    +0.000 A 
ATOM      5  C   UNL     1       3.011   5.909  19.635  0.00  0.00    +0.000 A 
ATOM      6  C   UNL     1       2.263   7.081  19.736  0.00  0.00    +0.000 A 
ATOM      7  C   UNL     1       2.316   8.036  18.717  0.00  0.00    +0.000 A 
ATOM      8  C   UNL     1       3.142   7.823  17.606  0.00  0.00    +0.000 A 
ATOM      9  C   UNL     1       3.913   6.657  17.513  0.00  0.00    +0.000 A 
ATOM     10  C   UNL     1       4.829   6.422  16.342  0.00  0.00    +0.000 C 
ATOM     11  C   UNL     1       1.495   9.233  18.800  0.00  0.00    +0.000 C 
ATOM     12  C   UNL     1       0.742   9.395  19.894  0.00  0.00    +0.000 C 
ATOM     13  C   UNL     1       0.738   8.418  21.037  0.00  0.00    +0.000 C 
ATOM     14  O   UNL     1       1.493   7.207  20.858  0.00  0.00    +0.000 OA
ENDROOT
BRANCH  12  15
ATOM     15  C   UNL     1      -0.153  10.554  19.973  0.00  0.00    +0.000 A 
ATOM     16  C   UNL     1      -1.130  10.743  18.986  0.00  0.00    +0.000 A 
ATOM     17  C   UNL     1      -1.938  11.883  19.000  0.00  0.00    +0.000 A 
ATOM     18  C   UNL     1      -1.763  12.830  20.005  0.00  0.00    +0.000 A 
ATOM     19  C   UNL     1      -0.808  12.647  21.000  0.00  0.00    +0.000 A 
ATOM     20  C   UNL     1       0.001  11.509  20.985  0.00  0.00    +0.000 A 
BRANCH  18  21
ATOM     21  O   UNL     1      -2.506  13.970  20.037  0.00  0.00    +0.000 OA
ATOM     22  H   UNL     1      -2.032  14.664  19.551  0.00  0.00    +0.000 HD
ENDBRANCH  18  21
ENDBRANCH  12  15
BRANCH   1  23
ATOM     23  C   UNL     1       6.921   5.987  17.491  0.00  0.00    +0.000 C 
BRANCH  23  24
ATOM     24  C   UNL     1       7.813   4.958  18.198  0.00  0.00    +0.000 C 
BRANCH  24  25
ATOM     25  O   UNL     1       7.925   5.304  19.578  0.00  0.00    +0.000 OA
ATOM     26  H   UNL     1       8.767   4.937  19.895  0.00  0.00    +0.000 HD
ENDBRANCH  24  25
ENDBRANCH  23  24
ENDBRANCH   1  23
TORSDOF 5
ENDMDL
