MODEL 1
REMARK VINA RESULT:      -8.2      0.000      0.000
REMARK  Name = 
REMARK  7 active torsions:
REMARK  status: ('A' for Active; 'I' for Inactive)
REMARK    1  A    between atoms: C_1  and  C_2
REMARK    2  A    between atoms: C_7  and  C_8
REMARK    3  A    between atoms: N_10  and  C_11
REMARK    4  A    between atoms: C_15  and  C_16
REMARK    5  A    between atoms: N_21  and  C_22
REMARK    6  A    between atoms: C_22  and  C_23
REMARK    7  A    between atoms: C_33  and  C_34
REMARK                            x       y       z     vdW  Elec       q    Type
REMARK                         _______ _______ _______ _____ _____    ______ ____
ROOT
ATOM      1  C   UNL     1      -0.097  10.265  21.067  0.00  0.00    +0.000 A 
ATOM      2  S   UNL     1       0.673   8.901  21.755  0.00  0.00    +0.000 S 
ATOM      3  C   UNL     1       1.324   8.442  20.262  0.00  0.00    +0.000 A 
ATOM      4  C   UNL     1       1.169   9.421  19.302  0.00  0.00    +0.000 A 
ATOM      5  C   UNL     1       0.193  10.435  19.715  0.00  0.00    +0.000 A 
ATOM      6  C   UNL     1       1.956   9.327  18.022  0.00  0.00    +0.000 C 
ATOM      7  C   UNL     1       2.221   7.863  17.633  0.00  0.00    +0.000 C 
ATOM      8  C   UNL     1       2.914   7.142  18.809  0.00  0.00    +0.000 C 
ATOM      9  C   UNL     1       3.345   5.728  18.435  0.00  0.00    +0.000 C 
ATOM     10  C   UNL     1       1.999   7.119  20.053  0.00  0.00    +0.000 C 
ENDROOT
BRANCH   5  11
ATOM     11  C   UNL     1      -0.263  11.566  18.888  0.00  0.00    +0.000 C 
ATOM     12  O   UNL     1      -1.372  11.540  18.351  0.00  0.00    +0.000 OA
ATOM     13  N   UNL     1       0.545  12.725  18.836  0.00  0.00    +0.000 N 
ATOM     14  C   UNL     1       0.038  13.900  18.128  0.00  0.00    +0.000 C 
ATOM     15  C   UNL     1       0.622  15.233  18.668  0.00  0.00    +0.000 C 
ATOM     16  N   UNL     1       2.058  15.287  19.020  0.00  0.00    +0.000 NA
ATOM     17  C   UNL     1       2.503  14.031  19.649  0.00  0.00    +0.000 C 
ATOM     18  C   UNL     1       2.002  12.729  18.981  0.00  0.00    +0.000 C 
BRANCH  16  19
ATOM     19  C   UNL     1       2.952  15.649  17.919  0.00  0.00    +0.000 C 
BRANCH  19  20
ATOM     20  C   UNL     1       4.428  15.734  18.254  0.00  0.00    +0.000 A 
ATOM     21  C   UNL     1       5.384  14.819  17.784  0.00  0.00    +0.000 A 
ATOM     22  C   UNL     1       6.738  14.990  18.084  0.00  0.00    +0.000 A 
ATOM     23  C   UNL     1       7.156  16.091  18.829  0.00  0.00    +0.000 A 
ATOM     24  C   UNL     1       6.224  17.027  19.268  0.00  0.00    +0.000 A 
ATOM     25  C   UNL     1       4.872  16.851  18.977  0.00  0.00    +0.000 A 
ENDBRANCH  19  20
ENDBRANCH  16  19
ENDBRANCH   5  11
BRANCH   1  28
ATOM     26  C   UNL     1      -0.646  12.189  22.435  0.00  0.00    +0.000 C 
ATOM     27  O   UNL     1       0.297  12.886  22.056  0.00  0.00    +0.000 OA
ATOM     28  N   UNL     1      -0.886  10.897  22.021  0.00  0.00    +0.000 N 
ATOM     29  H   UNL     1      -1.847  10.575  22.061  0.00  0.00    +0.000 HD
BRANCH  26  36
ATOM     30  C   UNL     1      -0.610  15.140  23.431  0.00  0.00    +0.000 C 
ATOM     31  C   UNL     1      -1.712  14.165  23.728  0.00  0.00    +0.000 A 
ATOM     32  C   UNL     1      -2.818  14.637  24.479  0.00  0.00    +0.000 A 
ATOM     33  C   UNL     1      -3.927  13.828  24.717  0.00  0.00    +0.000 A 
ATOM     34  C   UNL     1      -3.960  12.533  24.221  0.00  0.00    +0.000 A 
ATOM     35  C   UNL     1      -2.870  12.044  23.498  0.00  0.00    +0.000 A 
ATOM     36  C   UNL     1      -1.735  12.841  23.247  0.00  0.00    +0.000 A 
ENDBRANCH  26  36
ENDBRANCH   1  28
TORSDOF 5
ENDMDL
MODEL 2
REMARK VINA RESULT:      -8.1      2.854      7.439
REMARK  Name = 
REMARK  7 active torsions:
REMARK  status: ('A' for Active; 'I' for Inactive)
REMARK    1  A    between atoms: C_1  and  C_2
REMARK    2  A    between atoms: C_7  and  C_8
REMARK    3  A    between atoms: N_10  and  C_11
REMARK    4  A    between atoms: C_15  and  C_16
REMARK    5  A    between atoms: N_21  and  C_22
REMARK    6  A    between atoms: C_22  and  C_23
REMARK    7  A    between atoms: C_33  and  C_34
REMARK                            x       y       z     vdW  Elec       q    Type
REMARK                         _______ _______ _______ _____ _____    ______ ____
ROOT
ATOM      1  C   UNL     1      -0.907  13.953  19.995  0.00  0.00    +0.000 A 
ATOM      2  S   UNL     1      -0.340  15.119  18.880  0.00  0.00    +0.000 S 
ATOM      3  C   UNL     1       1.151  15.237  19.670  0.00  0.00    +0.000 A 
ATOM      4  C   UNL     1       1.319  14.246  20.616  0.00  0.00    +0.000 A 
ATOM      5  C   UNL     1       0.052  13.579  20.932  0.00  0.00    +0.000 A 
ATOM      6  C   UNL     1       2.691  13.997  21.185  0.00  0.00    +0.000 C 
ATOM      7  C   UNL     1       3.523  15.289  21.226  0.00  0.00    +0.000 C 
ATOM      8  C   UNL     1       3.571  15.909  19.813  0.00  0.00    +0.000 C 
ATOM      9  C   UNL     1       4.508  17.110  19.751  0.00  0.00    +0.000 C 
ATOM     10  C   UNL     1       2.154  16.301  19.338  0.00  0.00    +0.000 C 
ENDROOT
BRANCH   5  11
ATOM     11  C   UNL     1      -0.130  12.537  21.959  0.00  0.00    +0.000 C 
ATOM     12  O   UNL     1      -0.612  12.819  23.058  0.00  0.00    +0.000 OA
ATOM     13  N   UNL     1       0.140  11.195  21.605  0.00  0.00    +0.000 N 
ATOM     14  C   UNL     1      -0.165  10.141  22.572  0.00  0.00    +0.000 C 
ATOM     15  C   UNL     1      -0.471   8.774  21.905  0.00  0.00    +0.000 C 
ATOM     16  N   UNL     1       0.355   8.346  20.754  0.00  0.00    +0.000 NA
ATOM     17  C   UNL     1       0.686   9.485  19.880  0.00  0.00    +0.000 C 
ATOM     18  C   UNL     1       1.122  10.783  20.600  0.00  0.00    +0.000 C 
BRANCH  16  19
ATOM     19  C   UNL     1       1.567   7.603  21.104  0.00  0.00    +0.000 C 
BRANCH  19  20
ATOM     20  C   UNL     1       1.871   6.381  20.260  0.00  0.00    +0.000 A 
ATOM     21  C   UNL     1       1.400   5.093  20.564  0.00  0.00    +0.000 A 
ATOM     22  C   UNL     1       1.670   4.019  19.710  0.00  0.00    +0.000 A 
ATOM     23  C   UNL     1       2.386   4.225  18.532  0.00  0.00    +0.000 A 
ATOM     24  C   UNL     1       2.825   5.503  18.200  0.00  0.00    +0.000 A 
ATOM     25  C   UNL     1       2.564   6.572  19.055  0.00  0.00    +0.000 A 
ENDBRANCH  19  20
ENDBRANCH  16  19
ENDBRANCH   5  11
BRANCH   1  28
ATOM     26  C   UNL     1      -2.637  12.429  19.245  0.00  0.00    +0.000 C 
ATOM     27  O   UNL     1      -1.873  11.510  18.945  0.00  0.00    +0.000 OA
ATOM     28  N   UNL     1      -2.240  13.654  19.734  0.00  0.00    +0.000 N 
ATOM     29  H   UNL     1      -2.909  14.158  20.306  0.00  0.00    +0.000 HD
BRANCH  26  36
ATOM     30  C   UNL     1      -4.304  11.313  16.862  0.00  0.00    +0.000 C 
ATOM     31  C   UNL     1      -4.884  11.671  18.200  0.00  0.00    +0.000 A 
ATOM     32  C   UNL     1      -6.270  11.449  18.393  0.00  0.00    +0.000 A 
ATOM     33  C   UNL     1      -6.871  11.661  19.632  0.00  0.00    +0.000 A 
ATOM     34  C   UNL     1      -6.110  12.103  20.704  0.00  0.00    +0.000 A 
ATOM     35  C   UNL     1      -4.746  12.347  20.527  0.00  0.00    +0.000 A 
ATOM     36  C   UNL     1      -4.116  12.145  19.283  0.00  0.00    +0.000 A 
ENDBRANCH  26  36
ENDBRANCH   1  28
TORSDOF 5
ENDMDL
MODEL 3
REMARK VINA RESULT:      -8.0      2.857      6.865
REMARK  Name = 
REMARK  7 active torsions:
REMARK  status: ('A' for Active; 'I' for Inactive)
REMARK    1  A    between atoms: C_1  and  C_2
REMARK    2  A    between atoms: C_7  and  C_8
REMARK    3  A    between atoms: N_10  and  C_11
REMARK    4  A    between atoms: C_15  and  C_16
REMARK    5  A    between atoms: N_21  and  C_22
REMARK    6  A    between atoms: C_22  and  C_23
REMARK    7  A    between atoms: C_33  and  C_34
REMARK                            x       y       z     vdW  Elec       q    Type
REMARK                         _______ _______ _______ _____ _____    ______ ____
ROOT
ATOM      1  C   UNL     1       0.083  10.069  18.604  0.00  0.00    +0.000 A 
ATOM      2  S   UNL     1      -1.225   9.601  17.607  0.00  0.00    +0.000 S 
ATOM      3  C   UNL     1      -2.273  10.688  18.370  0.00  0.00    +0.000 A 
ATOM      4  C   UNL     1      -1.602  11.563  19.200  0.00  0.00    +0.000 A 
ATOM      5  C   UNL     1      -0.235  11.110  19.473  0.00  0.00    +0.000 A 
ATOM      6  C   UNL     1      -2.315  12.789  19.707  0.00  0.00    +0.000 C 
ATOM      7  C   UNL     1      -3.823  12.534  19.868  0.00  0.00    +0.000 C 
ATOM      8  C   UNL     1      -4.398  12.025  18.529  0.00  0.00    +0.000 C 
ATOM      9  C   UNL     1      -5.917  11.899  18.573  0.00  0.00    +0.000 C 
ATOM     10  C   UNL     1      -3.754  10.678  18.132  0.00  0.00    +0.000 C 
ENDROOT
BRANCH   5  11
ATOM     11  C   UNL     1       0.717  11.769  20.386  0.00  0.00    +0.000 C 
ATOM     12  O   UNL     1       1.012  11.249  21.463  0.00  0.00    +0.000 OA
ATOM     13  N   UNL     1       1.372  12.939  19.937  0.00  0.00    +0.000 N 
ATOM     14  C   UNL     1       2.414  13.524  20.780  0.00  0.00    +0.000 C 
ATOM     15  C   UNL     1       3.473  14.321  19.972  0.00  0.00    +0.000 C 
ATOM     16  N   UNL     1       3.015  15.180  18.858  0.00  0.00    +0.000 NA
ATOM     17  C   UNL     1       1.908  14.551  18.117  0.00  0.00    +0.000 C 
ATOM     18  C   UNL     1       0.806  13.893  18.981  0.00  0.00    +0.000 C 
BRANCH  16  19
ATOM     19  C   UNL     1       2.661  16.549  19.236  0.00  0.00    +0.000 C 
BRANCH  19  20
ATOM     20  C   UNL     1       1.594  17.222  18.397  0.00  0.00    +0.000 A 
ATOM     21  C   UNL     1       0.293  17.481  18.858  0.00  0.00    +0.000 A 
ATOM     22  C   UNL     1      -0.625  18.159  18.051  0.00  0.00    +0.000 A 
ATOM     23  C   UNL     1      -0.246  18.611  16.788  0.00  0.00    +0.000 A 
ATOM     24  C   UNL     1       1.052  18.396  16.334  0.00  0.00    +0.000 A 
ATOM     25  C   UNL     1       1.964  17.712  17.135  0.00  0.00    +0.000 A 
ENDBRANCH  19  20
ENDBRANCH  16  19
ENDBRANCH   5  11
BRANCH   1  28
ATOM     26  C   UNL     1       1.675   8.363  19.263  0.00  0.00    +0.000 C 
ATOM     27  O   UNL     1       1.228   8.207  20.400  0.00  0.00    +0.000 OA
ATOM     28  N   UNL     1       1.189   9.268  18.344  0.00  0.00    +0.000 N 
ATOM     29  H   UNL     1       1.336   9.049  17.364  0.00  0.00    +0.000 HD
BRANCH  26  36
ATOM     30  C   UNL     1       2.107   5.499  20.406  0.00  0.00    +0.000 C 
ATOM     31  C   UNL     1       2.908   6.085  19.280  0.00  0.00    +0.000 A 
ATOM     32  C   UNL     1       3.896   5.262  18.683  0.00  0.00    +0.000 A 
ATOM     33  C   UNL     1       4.618   5.691  17.571  0.00  0.00    +0.000 A 
ATOM     34  C   UNL     1       4.379   6.946  17.032  0.00  0.00    +0.000 A 
ATOM     35  C   UNL     1       3.425   7.779  17.621  0.00  0.00    +0.000 A 
ATOM     36  C   UNL     1       2.685   7.371  18.749  0.00  0.00    +0.000 A 
ENDBRANCH  26  36
ENDBRANCH   1  28
TORSDOF 5
ENDMDL
MODEL 4
REMARK VINA RESULT:      -7.9      3.329      8.969
REMARK  Name = 
REMARK  7 active torsions:
REMARK  status: ('A' for Active; 'I' for Inactive)
REMARK    1  A    between atoms: C_1  and  C_2
REMARK    2  A    between atoms: C_7  and  C_8
REMARK    3  A    between atoms: N_10  and  C_11
REMARK    4  A    between atoms: C_15  and  C_16
REMARK    5  A    between atoms: N_21  and  C_22
REMARK    6  A    between atoms: C_22  and  C_23
REMARK    7  A    between atoms: C_33  and  C_34
REMARK                            x       y       z     vdW  Elec       q    Type
REMARK                         _______ _______ _______ _____ _____    ______ ____
ROOT
ATOM      1  C   UNL     1       0.612  12.797  20.095  0.00  0.00    +0.000 A 
ATOM      2  S   UNL     1       1.321  13.838  18.938  0.00  0.00    +0.000 S 
ATOM      3  C   UNL     1       0.243  15.087  19.314  0.00  0.00    +0.000 A 
ATOM      4  C   UNL     1      -0.487  14.820  20.454  0.00  0.00    +0.000 A 
ATOM      5  C   UNL     1      -0.397  13.407  20.836  0.00  0.00    +0.000 A 
ATOM      6  C   UNL     1      -1.252  15.935  21.117  0.00  0.00    +0.000 C 
ATOM      7  C   UNL     1      -1.730  16.974  20.089  0.00  0.00    +0.000 C 
ATOM      8  C   UNL     1      -0.517  17.484  19.281  0.00  0.00    +0.000 C 
ATOM      9  C   UNL     1      -0.897  18.631  18.349  0.00  0.00    +0.000 C 
ATOM     10  C   UNL     1       0.136  16.333  18.486  0.00  0.00    +0.000 C 
ENDROOT
BRANCH   5  11
ATOM     11  C   UNL     1      -1.124  12.777  21.953  0.00  0.00    +0.000 C 
ATOM     12  O   UNL     1      -0.507  12.240  22.876  0.00  0.00    +0.000 OA
ATOM     13  N   UNL     1      -2.530  12.919  22.001  0.00  0.00    +0.000 N 
ATOM     14  C   UNL     1      -3.244  12.413  23.173  0.00  0.00    +0.000 C 
ATOM     15  C   UNL     1      -4.573  13.166  23.446  0.00  0.00    +0.000 C 
ATOM     16  N   UNL     1      -5.433  13.525  22.296  0.00  0.00    +0.000 NA
ATOM     17  C   UNL     1      -4.628  13.939  21.134  0.00  0.00    +0.000 C 
ATOM     18  C   UNL     1      -3.390  13.065  20.826  0.00  0.00    +0.000 C 
BRANCH  16  19
ATOM     19  C   UNL     1      -6.403  12.501  21.905  0.00  0.00    +0.000 C 
BRANCH  19  20
ATOM     20  C   UNL     1      -6.797  12.475  20.442  0.00  0.00    +0.000 A 
ATOM     21  C   UNL     1      -7.459  13.534  19.798  0.00  0.00    +0.000 A 
ATOM     22  C   UNL     1      -7.741  13.468  18.430  0.00  0.00    +0.000 A 
ATOM     23  C   UNL     1      -7.340  12.360  17.686  0.00  0.00    +0.000 A 
ATOM     24  C   UNL     1      -6.649  11.322  18.303  0.00  0.00    +0.000 A 
ATOM     25  C   UNL     1      -6.376  11.383  19.668  0.00  0.00    +0.000 A 
ENDBRANCH  19  20
ENDBRANCH  16  19
ENDBRANCH   5  11
BRANCH   1  28
ATOM     26  C   UNL     1       0.511  10.445  19.517  0.00  0.00    +0.000 C 
ATOM     27  O   UNL     1      -0.664  10.457  19.147  0.00  0.00    +0.000 OA
ATOM     28  N   UNL     1       1.190  11.535  20.016  0.00  0.00    +0.000 N 
ATOM     29  H   UNL     1       2.198  11.534  19.908  0.00  0.00    +0.000 HD
BRANCH  26  36
ATOM     30  C   UNL     1       0.925   8.056  21.472  0.00  0.00    +0.000 C 
ATOM     31  C   UNL     1       1.558   8.151  20.114  0.00  0.00    +0.000 A 
ATOM     32  C   UNL     1       2.363   7.065  19.690  0.00  0.00    +0.000 A 
ATOM     33  C   UNL     1       2.909   7.027  18.408  0.00  0.00    +0.000 A 
ATOM     34  C   UNL     1       2.672   8.068  17.523  0.00  0.00    +0.000 A 
ATOM     35  C   UNL     1       1.899   9.157  17.931  0.00  0.00    +0.000 A 
ATOM     36  C   UNL     1       1.340   9.222  19.224  0.00  0.00    +0.000 A 
ENDBRANCH  26  36
ENDBRANCH   1  28
TORSDOF 5
ENDMDL
MODEL 5
REMARK VINA RESULT:      -7.9      2.844      7.398
REMARK  Name = 
REMARK  7 active torsions:
REMARK  status: ('A' for Active; 'I' for Inactive)
REMARK    1  A    between atoms: C_1  and  C_2
REMARK    2  A    between atoms: C_7  and  C_8
REMARK    3  A    between atoms: N_10  and  C_11
REMARK    4  A    between atoms: C_15  and  C_16
REMARK    5  A    between atoms: N_21  and  C_22
REMARK    6  A    between atoms: C_22  and  C_23
REMARK    7  A    between atoms: C_33  and  C_34
REMARK                            x       y       z     vdW  Elec       q    Type
REMARK                         _______ _______ _______ _____ _____    ______ ____
ROOT
ATOM      1  C   UNL     1      -0.958  13.938  20.052  0.00  0.00    +0.000 A 
ATOM      2  S   UNL     1      -0.415  15.132  18.956  0.00  0.00    +0.000 S 
ATOM      3  C   UNL     1       1.087  15.243  19.727  0.00  0.00    +0.000 A 
ATOM      4  C   UNL     1       1.275  14.232  20.648  0.00  0.00    +0.000 A 
ATOM      5  C   UNL     1       0.018  13.549  20.967  0.00  0.00    +0.000 A 
ATOM      6  C   UNL     1       2.657  13.980  21.191  0.00  0.00    +0.000 C 
ATOM      7  C   UNL     1       3.480  15.277  21.250  0.00  0.00    +0.000 C 
ATOM      8  C   UNL     1       3.503  15.929  19.851  0.00  0.00    +0.000 C 
ATOM      9  C   UNL     1       4.432  17.138  19.802  0.00  0.00    +0.000 C 
ATOM     10  C   UNL     1       2.078  16.321  19.406  0.00  0.00    +0.000 C 
ENDROOT
BRANCH   5  11
ATOM     11  C   UNL     1      -0.143  12.483  21.972  0.00  0.00    +0.000 C 
ATOM     12  O   UNL     1      -0.624  12.734  23.079  0.00  0.00    +0.000 OA
ATOM     13  N   UNL     1       0.148  11.153  21.589  0.00  0.00    +0.000 N 
ATOM     14  C   UNL     1      -0.135  10.075  22.535  0.00  0.00    +0.000 C 
ATOM     15  C   UNL     1      -0.421   8.717  21.841  0.00  0.00    +0.000 C 
ATOM     16  N   UNL     1       0.407   8.327  20.678  0.00  0.00    +0.000 NA
ATOM     17  C   UNL     1       0.715   9.489  19.826  0.00  0.00    +0.000 C 
ATOM     18  C   UNL     1       1.132  10.779  20.572  0.00  0.00    +0.000 C 
BRANCH  16  19
ATOM     19  C   UNL     1       1.633   7.597  21.007  0.00  0.00    +0.000 C 
BRANCH  19  20
ATOM     20  C   UNL     1       1.885   6.324  20.225  0.00  0.00    +0.000 A 
ATOM     21  C   UNL     1       1.382   5.069  20.605  0.00  0.00    +0.000 A 
ATOM     22  C   UNL     1       1.604   3.943  19.806  0.00  0.00    +0.000 A 
ATOM     23  C   UNL     1       2.304   4.064  18.607  0.00  0.00    +0.000 A 
ATOM     24  C   UNL     1       2.774   5.309  18.199  0.00  0.00    +0.000 A 
ATOM     25  C   UNL     1       2.561   6.429  19.000  0.00  0.00    +0.000 A 
ENDBRANCH  19  20
ENDBRANCH  16  19
ENDBRANCH   5  11
BRANCH   1  28
ATOM     26  C   UNL     1      -2.684  12.435  19.252  0.00  0.00    +0.000 C 
ATOM     27  O   UNL     1      -1.915  11.547  18.880  0.00  0.00    +0.000 OA
ATOM     28  N   UNL     1      -2.292  13.635  19.804  0.00  0.00    +0.000 N 
ATOM     29  H   UNL     1      -2.954  14.093  20.420  0.00  0.00    +0.000 HD
BRANCH  26  36
ATOM     30  C   UNL     1      -4.508  12.854  21.742  0.00  0.00    +0.000 C 
ATOM     31  C   UNL     1      -4.984  12.285  20.437  0.00  0.00    +0.000 A 
ATOM     32  C   UNL     1      -6.358  11.955  20.329  0.00  0.00    +0.000 A 
ATOM     33  C   UNL     1      -6.903  11.513  19.125  0.00  0.00    +0.000 A 
ATOM     34  C   UNL     1      -6.095  11.384  18.005  0.00  0.00    +0.000 A 
ATOM     35  C   UNL     1      -4.734  11.685  18.098  0.00  0.00    +0.000 A 
ATOM     36  C   UNL     1      -4.158  12.128  19.305  0.00  0.00    +0.000 A 
ENDBRANCH  26  36
ENDBRANCH   1  28
TORSDOF 5
ENDMDL
MODEL 6
REMARK VINA RESULT:      -7.8      0.814      1.340
REMARK  Name = 
REMARK  7 active torsions:
REMARK  status: ('A' for Active; 'I' for Inactive)
REMARK    1  A    between atoms: C_1  and  C_2
REMARK    2  A    between atoms: C_7  and  C_8
REMARK    3  A    between atoms: N_10  and  C_11
REMARK    4  A    between atoms: C_15  and  C_16
REMARK    5  A    between atoms: N_21  and  C_22
REMARK    6  A    between atoms: C_22  and  C_23
REMARK    7  A    between atoms: C_33  and  C_34
REMARK                            x       y       z     vdW  Elec       q    Type
REMARK                         _______ _______ _______ _____ _____    ______ ____
ROOT
ATOM      1  C   UNL     1      -0.416  10.952  21.549  0.00  0.00    +0.000 A 
ATOM      2  S   UNL     1       0.244   9.595  22.353  0.00  0.00    +0.000 S 
ATOM      3  C   UNL     1       0.851   8.959  20.908  0.00  0.00    +0.000 A 
ATOM      4  C   UNL     1       0.773   9.862  19.867  0.00  0.00    +0.000 A 
ATOM      5  C   UNL     1      -0.117  10.982  20.189  0.00  0.00    +0.000 A 
ATOM      6  C   UNL     1       1.546   9.596  18.603  0.00  0.00    +0.000 C 
ATOM      7  C   UNL     1       1.691   8.088  18.341  0.00  0.00    +0.000 C 
ATOM      8  C   UNL     1       2.327   7.417  19.577  0.00  0.00    +0.000 C 
ATOM      9  C   UNL     1       2.641   5.945  19.326  0.00  0.00    +0.000 C 
ATOM     10  C   UNL     1       1.417   7.573  20.815  0.00  0.00    +0.000 C 
ENDROOT
BRANCH   5  11
ATOM     11  C   UNL     1      -0.483  12.073  19.266  0.00  0.00    +0.000 C 
ATOM     12  O   UNL     1      -1.597  12.098  18.740  0.00  0.00    +0.000 OA
ATOM     13  N   UNL     1       0.423  13.146  19.106  0.00  0.00    +0.000 N 
ATOM     14  C   UNL     1       0.013  14.294  18.299  0.00  0.00    +0.000 C 
ATOM     15  C   UNL     1       0.719  15.612  18.713  0.00  0.00    +0.000 C 
ATOM     16  N   UNL     1       2.159  15.568  19.050  0.00  0.00    +0.000 NA
ATOM     17  C   UNL     1       2.500  14.339  19.787  0.00  0.00    +0.000 C 
ATOM     18  C   UNL     1       1.877  13.032  19.241  0.00  0.00    +0.000 C 
BRANCH  16  19
ATOM     19  C   UNL     1       3.067  15.751  17.916  0.00  0.00    +0.000 C 
BRANCH  19  20
ATOM     20  C   UNL     1       4.548  15.763  18.237  0.00  0.00    +0.000 A 
ATOM     21  C   UNL     1       5.443  14.771  17.806  0.00  0.00    +0.000 A 
ATOM     22  C   UNL     1       6.808  14.874  18.088  0.00  0.00    +0.000 A 
ATOM     23  C   UNL     1       7.297  15.982  18.779  0.00  0.00    +0.000 A 
ATOM     24  C   UNL     1       6.427  16.992  19.178  0.00  0.00    +0.000 A 
ATOM     25  C   UNL     1       5.065  16.884  18.905  0.00  0.00    +0.000 A 
ENDBRANCH  19  20
ENDBRANCH  16  19
ENDBRANCH   5  11
BRANCH   1  28
ATOM     26  C   UNL     1      -0.773  13.006  22.787  0.00  0.00    +0.000 C 
ATOM     27  O   UNL     1       0.249  13.569  22.393  0.00  0.00    +0.000 OA
ATOM     28  N   UNL     1      -1.148  11.725  22.442  0.00  0.00    +0.000 N 
ATOM     29  H   UNL     1      -2.140  11.514  22.475  0.00  0.00    +0.000 HD
BRANCH  26  36
ATOM     30  C   UNL     1      -3.858  12.719  22.467  0.00  0.00    +0.000 C 
ATOM     31  C   UNL     1      -3.195  13.721  23.368  0.00  0.00    +0.000 A 
ATOM     32  C   UNL     1      -4.034  14.559  24.143  0.00  0.00    +0.000 A 
ATOM     33  C   UNL     1      -3.504  15.449  25.075  0.00  0.00    +0.000 A 
ATOM     34  C   UNL     1      -2.131  15.529  25.253  0.00  0.00    +0.000 A 
ATOM     35  C   UNL     1      -1.288  14.726  24.482  0.00  0.00    +0.000 A 
ATOM     36  C   UNL     1      -1.799  13.822  23.529  0.00  0.00    +0.000 A 
ENDBRANCH  26  36
ENDBRANCH   1  28
TORSDOF 5
ENDMDL
MODEL 7
REMARK VINA RESULT:      -7.7      2.974      7.091
REMARK  Name = 
REMARK  7 active torsions:
REMARK  status: ('A' for Active; 'I' for Inactive)
REMARK    1  A    between atoms: C_1  and  C_2
REMARK    2  A    between atoms: C_7  and  C_8
REMARK    3  A    between atoms: N_10  and  C_11
REMARK    4  A    between atoms: C_15  and  C_16
REMARK    5  A    between atoms: N_21  and  C_22
REMARK    6  A    between atoms: C_22  and  C_23
REMARK    7  A    between atoms: C_33  and  C_34
REMARK                            x       y       z     vdW  Elec       q    Type
REMARK                         _______ _______ _______ _____ _____    ______ ____
ROOT
ATOM      1  C   UNL     1       1.232  10.919  19.207  0.00  0.00    +0.000 A 
ATOM      2  S   UNL     1       1.967  10.029  17.946  0.00  0.00    +0.000 S 
ATOM      3  C   UNL     1       1.965   8.609  18.866  0.00  0.00    +0.000 A 
ATOM      4  C   UNL     1       1.210   8.734  20.014  0.00  0.00    +0.000 A 
ATOM      5  C   UNL     1       0.904  10.137  20.312  0.00  0.00    +0.000 A 
ATOM      6  C   UNL     1       0.832   7.496  20.784  0.00  0.00    +0.000 C 
ATOM      7  C   UNL     1       1.905   6.403  20.649  0.00  0.00    +0.000 C 
ATOM      8  C   UNL     1       2.154   6.118  19.152  0.00  0.00    +0.000 C 
ATOM      9  C   UNL     1       3.094   4.934  18.948  0.00  0.00    +0.000 C 
ATOM     10  C   UNL     1       2.699   7.374  18.438  0.00  0.00    +0.000 C 
ENDROOT
BRANCH   5  11
ATOM     11  C   UNL     1       0.189  10.619  21.507  0.00  0.00    +0.000 C 
ATOM     12  O   UNL     1       0.686  10.488  22.628  0.00  0.00    +0.000 OA
ATOM     13  N   UNL     1      -1.010  11.345  21.322  0.00  0.00    +0.000 N 
ATOM     14  C   UNL     1      -1.654  11.941  22.492  0.00  0.00    +0.000 C 
ATOM     15  C   UNL     1      -2.499  13.196  22.146  0.00  0.00    +0.000 C 
ATOM     16  N   UNL     1      -3.326  13.178  20.919  0.00  0.00    +0.000 NA
ATOM     17  C   UNL     1      -2.635  12.483  19.818  0.00  0.00    +0.000 C 
ATOM     18  C   UNL     1      -1.927  11.161  20.196  0.00  0.00    +0.000 C 
BRANCH  16  19
ATOM     19  C   UNL     1      -4.677  12.643  21.090  0.00  0.00    +0.000 C 
BRANCH  19  20
ATOM     20  C   UNL     1      -5.596  12.745  19.889  0.00  0.00    +0.000 A 
ATOM     21  C   UNL     1      -5.983  13.965  19.311  0.00  0.00    +0.000 A 
ATOM     22  C   UNL     1      -6.787  13.986  18.167  0.00  0.00    +0.000 A 
ATOM     23  C   UNL     1      -7.188  12.791  17.573  0.00  0.00    +0.000 A 
ATOM     24  C   UNL     1      -6.780  11.575  18.113  0.00  0.00    +0.000 A 
ATOM     25  C   UNL     1      -5.986  11.554  19.258  0.00  0.00    +0.000 A 
ENDBRANCH  19  20
ENDBRANCH  16  19
ENDBRANCH   5  11
BRANCH   1  28
ATOM     26  C   UNL     1       1.810  13.246  19.566  0.00  0.00    +0.000 C 
ATOM     27  O   UNL     1       2.475  13.055  20.585  0.00  0.00    +0.000 OA
ATOM     28  N   UNL     1       1.154  12.263  18.858  0.00  0.00    +0.000 N 
ATOM     29  H   UNL     1       0.993  12.438  17.872  0.00  0.00    +0.000 HD
BRANCH  26  36
ATOM     30  C   UNL     1      -0.320  15.492  19.910  0.00  0.00    +0.000 C 
ATOM     31  C   UNL     1       0.898  15.614  19.041  0.00  0.00    +0.000 A 
ATOM     32  C   UNL     1       1.101  16.845  18.368  0.00  0.00    +0.000 A 
ATOM     33  C   UNL     1       2.252  17.078  17.619  0.00  0.00    +0.000 A 
ATOM     34  C   UNL     1       3.224  16.093  17.518  0.00  0.00    +0.000 A 
ATOM     35  C   UNL     1       3.031  14.866  18.157  0.00  0.00    +0.000 A 
ATOM     36  C   UNL     1       1.872  14.604  18.916  0.00  0.00    +0.000 A 
ENDBRANCH  26  36
ENDBRANCH   1  28
TORSDOF 5
ENDMDL
MODEL 8
REMARK VINA RESULT:      -7.7      3.578      6.253
REMARK  Name = 
REMARK  7 active torsions:
REMARK  status: ('A' for Active; 'I' for Inactive)
REMARK    1  A    between atoms: C_1  and  C_2
REMARK    2  A    between atoms: C_7  and  C_8
REMARK    3  A    between atoms: N_10  and  C_11
REMARK    4  A    between atoms: C_15  and  C_16
REMARK    5  A    between atoms: N_21  and  C_22
REMARK    6  A    between atoms: C_22  and  C_23
REMARK    7  A    between atoms: C_33  and  C_34
REMARK                            x       y       z     vdW  Elec       q    Type
REMARK                         _______ _______ _______ _____ _____    ______ ____
ROOT
ATOM      1  C   UNL     1       0.075   9.918  21.035  0.00  0.00    +0.000 A 
ATOM      2  S   UNL     1       0.720   8.602  21.915  0.00  0.00    +0.000 S 
ATOM      3  C   UNL     1       1.413   7.934  20.524  0.00  0.00    +0.000 A 
ATOM      4  C   UNL     1       1.370   8.803  19.452  0.00  0.00    +0.000 A 
ATOM      5  C   UNL     1       0.442   9.913  19.692  0.00  0.00    +0.000 A 
ATOM      6  C   UNL     1       2.211   8.515  18.237  0.00  0.00    +0.000 C 
ATOM      7  C   UNL     1       2.400   7.003  18.032  0.00  0.00    +0.000 C 
ATOM      8  C   UNL     1       2.986   6.384  19.319  0.00  0.00    +0.000 C 
ATOM      9  C   UNL     1       3.343   4.913  19.131  0.00  0.00    +0.000 C 
ATOM     10  C   UNL     1       2.011   6.559  20.504  0.00  0.00    +0.000 C 
ENDROOT
BRANCH   5  11
ATOM     11  C   UNL     1       0.101  10.965  18.718  0.00  0.00    +0.000 C 
ATOM     12  O   UNL     1       0.972  11.724  18.286  0.00  0.00    +0.000 OA
ATOM     13  N   UNL     1      -1.214  10.997  18.200  0.00  0.00    +0.000 N 
ATOM     14  C   UNL     1      -1.525  11.951  17.136  0.00  0.00    +0.000 C 
ATOM     15  C   UNL     1      -2.687  11.483  16.221  0.00  0.00    +0.000 C 
ATOM     16  N   UNL     1      -3.864  10.837  16.843  0.00  0.00    +0.000 NA
ATOM     17  C   UNL     1      -3.465   9.961  17.959  0.00  0.00    +0.000 C 
ATOM     18  C   UNL     1      -2.402  10.539  18.923  0.00  0.00    +0.000 C 
BRANCH  16  19
ATOM     19  C   UNL     1      -4.922  11.755  17.269  0.00  0.00    +0.000 C 
BRANCH  19  20
ATOM     20  C   UNL     1      -5.672  11.374  18.530  0.00  0.00    +0.000 A 
ATOM     21  C   UNL     1      -5.679  12.159  19.694  0.00  0.00    +0.000 A 
ATOM     22  C   UNL     1      -6.441  11.778  20.803  0.00  0.00    +0.000 A 
ATOM     23  C   UNL     1      -7.225  10.627  20.751  0.00  0.00    +0.000 A 
ATOM     24  C   UNL     1      -7.257   9.861  19.589  0.00  0.00    +0.000 A 
ATOM     25  C   UNL     1      -6.491  10.236  18.488  0.00  0.00    +0.000 A 
ENDBRANCH  19  20
ENDBRANCH  16  19
ENDBRANCH   5  11
BRANCH   1  28
ATOM     26  C   UNL     1      -0.406  12.012  22.159  0.00  0.00    +0.000 C 
ATOM     27  O   UNL     1       0.606  12.598  21.772  0.00  0.00    +0.000 OA
ATOM     28  N   UNL     1      -0.718  10.702  21.865  0.00  0.00    +0.000 N 
ATOM     29  H   UNL     1      -1.701  10.453  21.876  0.00  0.00    +0.000 HD
BRANCH  26  36
ATOM     30  C   UNL     1      -0.251  15.067  22.744  0.00  0.00    +0.000 C 
ATOM     31  C   UNL     1      -1.413  14.196  23.124  0.00  0.00    +0.000 A 
ATOM     32  C   UNL     1      -2.519  14.819  23.754  0.00  0.00    +0.000 A 
ATOM     33  C   UNL     1      -3.677  14.104  24.052  0.00  0.00    +0.000 A 
ATOM     34  C   UNL     1      -3.761  12.756  23.735  0.00  0.00    +0.000 A 
ATOM     35  C   UNL     1      -2.672  12.121  23.133  0.00  0.00    +0.000 A 
ATOM     36  C   UNL     1      -1.488  12.820  22.827  0.00  0.00    +0.000 A 
ENDBRANCH  26  36
ENDBRANCH   1  28
TORSDOF 5
ENDMDL
MODEL 9
REMARK VINA RESULT:      -7.6      2.961      7.047
REMARK  Name = 
REMARK  7 active torsions:
REMARK  status: ('A' for Active; 'I' for Inactive)
REMARK    1  A    between atoms: C_1  and  C_2
REMARK    2  A    between atoms: C_7  and  C_8
REMARK    3  A    between atoms: N_10  and  C_11
REMARK    4  A    between atoms: C_15  and  C_16
REMARK    5  A    between atoms: N_21  and  C_22
REMARK    6  A    between atoms: C_22  and  C_23
REMARK    7  A    between atoms: C_33  and  C_34
REMARK                            x       y       z     vdW  Elec       q    Type
REMARK                         _______ _______ _______ _____ _____    ______ ____
ROOT
ATOM      1  C   UNL     1       1.152  11.029  19.335  0.00  0.00    +0.000 A 
ATOM      2  S   UNL     1       1.903  10.181  18.054  0.00  0.00    +0.000 S 
ATOM      3  C   UNL     1       1.923   8.740  18.940  0.00  0.00    +0.000 A 
ATOM      4  C   UNL     1       1.165   8.825  20.090  0.00  0.00    +0.000 A 
ATOM      5  C   UNL     1       0.835  10.216  20.420  0.00  0.00    +0.000 A 
ATOM      6  C   UNL     1       0.805   7.564  20.830  0.00  0.00    +0.000 C 
ATOM      7  C   UNL     1       1.896   6.491  20.671  0.00  0.00    +0.000 C 
ATOM      8  C   UNL     1       2.152   6.246  19.168  0.00  0.00    +0.000 C 
ATOM      9  C   UNL     1       3.111   5.083  18.938  0.00  0.00    +0.000 C 
ATOM     10  C   UNL     1       2.677   7.527  18.485  0.00  0.00    +0.000 C 
ENDROOT
BRANCH   5  11
ATOM     11  C   UNL     1       0.111  10.658  21.626  0.00  0.00    +0.000 C 
ATOM     12  O   UNL     1       0.594  10.480  22.746  0.00  0.00    +0.000 OA
ATOM     13  N   UNL     1      -1.080  11.401  21.455  0.00  0.00    +0.000 N 
ATOM     14  C   UNL     1      -1.733  11.957  22.640  0.00  0.00    +0.000 C 
ATOM     15  C   UNL     1      -2.564  13.231  22.333  0.00  0.00    +0.000 C 
ATOM     16  N   UNL     1      -3.377  13.267  21.097  0.00  0.00    +0.000 NA
ATOM     17  C   UNL     1      -2.679  12.609  19.978  0.00  0.00    +0.000 C 
ATOM     18  C   UNL     1      -1.986  11.267  20.313  0.00  0.00    +0.000 C 
BRANCH  16  19
ATOM     19  C   UNL     1      -4.734  12.737  21.233  0.00  0.00    +0.000 C 
BRANCH  19  20
ATOM     20  C   UNL     1      -5.575  12.717  19.973  0.00  0.00    +0.000 A 
ATOM     21  C   UNL     1      -6.024  11.536  19.358  0.00  0.00    +0.000 A 
ATOM     22  C   UNL     1      -6.846  11.591  18.229  0.00  0.00    +0.000 A 
ATOM     23  C   UNL     1      -7.254  12.823  17.720  0.00  0.00    +0.000 A 
ATOM     24  C   UNL     1      -6.848  14.000  18.342  0.00  0.00    +0.000 A 
ATOM     25  C   UNL     1      -6.021  13.945  19.462  0.00  0.00    +0.000 A 
ENDBRANCH  19  20
ENDBRANCH  16  19
ENDBRANCH   5  11
BRANCH   1  28
ATOM     26  C   UNL     1       1.680  13.357  19.758  0.00  0.00    +0.000 C 
ATOM     27  O   UNL     1       2.335  13.154  20.781  0.00  0.00    +0.000 OA
ATOM     28  N   UNL     1       1.053  12.379  19.018  0.00  0.00    +0.000 N 
ATOM     29  H   UNL     1       0.902  12.575  18.034  0.00  0.00    +0.000 HD
BRANCH  26  36
ATOM     30  C   UNL     1       4.113  14.548  18.219  0.00  0.00    +0.000 C 
ATOM     31  C   UNL     1       2.832  15.290  18.472  0.00  0.00    +0.000 A 
ATOM     32  C   UNL     1       2.719  16.599  17.942  0.00  0.00    +0.000 A 
ATOM     33  C   UNL     1       1.532  17.321  18.045  0.00  0.00    +0.000 A 
ATOM     34  C   UNL     1       0.435  16.761  18.682  0.00  0.00    +0.000 A 
ATOM     35  C   UNL     1       0.534  15.480  19.229  0.00  0.00    +0.000 A 
ATOM     36  C   UNL     1       1.725  14.732  19.142  0.00  0.00    +0.000 A 
ENDBRANCH  26  36
ENDBRANCH   1  28
TORSDOF 5
ENDMDL
