MODEL 1
REMARK VINA RESULT:      -7.5      0.000      0.000
REMARK  Name = 
REMARK  13 active torsions:
REMARK  status: ('A' for Active; 'I' for Inactive)
REMARK    1  A    between atoms: C_2  and  C_3
REMARK    2  A    between atoms: C_2  and  C_13
REMARK    3  A    between atoms: C_3  and  C_4
REMARK    4  A    between atoms: C_4  and  C_5
REMARK    5  A    between atoms: C_6  and  C_7
REMARK    6  A    between atoms: C_11  and  C_12
REMARK    7  A    between atoms: C_13  and  O_14
REMARK    8  A    between atoms: C_13  and  C_15
REMARK    9  A    between atoms: C_15  and  C_16
REMARK   10  A    between atoms: C_17  and  O_18
REMARK   11  A    between atoms: C_20  and  C_21
REMARK   12  A    between atoms: C_22  and  C_23
REMARK   13  A    between atoms: C_25  and  O_26
REMARK                            x       y       z     vdW  Elec       q    Type
REMARK                         _______ _______ _______ _____ _____    ______ ____
ROOT
ATOM      1  C   UNL     1       2.800   3.556  21.000  0.00  0.00    +0.000 C 
ENDROOT
BRANCH   1   3
ATOM      2  C   UNL     1       0.680   2.972  19.743  0.00  0.00    +0.000 C 
ATOM      3  C   UNL     1       1.457   3.904  20.331  0.00  0.00    +0.000 C 
BRANCH   3   4
ATOM      4  C   UNL     1       1.058   5.388  20.383  0.00  0.00    +0.000 C 
BRANCH   4   5
ATOM      5  C   UNL     1       2.198   6.425  20.441  0.00  0.00    +0.000 C 
BRANCH   5   6
ATOM      6  C   UNL     1       1.875   7.742  19.746  0.00  0.00    +0.000 A 
ATOM      7  C   UNL     1       1.108   8.745  20.392  0.00  0.00    +0.000 A 
ATOM      8  C   UNL     1       0.497   8.598  21.762  0.00  0.00    +0.000 C 
ATOM      9  C   UNL     1       0.894   9.979  19.754  0.00  0.00    +0.000 A 
ATOM     10  C   UNL     1       1.389  10.225  18.480  0.00  0.00    +0.000 A 
ATOM     11  C   UNL     1       2.099   9.232  17.817  0.00  0.00    +0.000 A 
ATOM     12  C   UNL     1       2.357   7.995  18.432  0.00  0.00    +0.000 A 
ATOM     13  C   UNL     1       3.110   6.966  17.626  0.00  0.00    +0.000 C 
ENDBRANCH   5   6
ENDBRANCH   4   5
ENDBRANCH   3   4
ENDBRANCH   1   3
BRANCH   1  14
ATOM     14  O   UNL     1       2.491   3.010  22.278  0.00  0.00    +0.000 OA
ATOM     15  H   UNL     1       1.656   2.517  22.212  0.00  0.00    +0.000 HD
ENDBRANCH   1  14
BRANCH   1  16
ATOM     16  C   UNL     1       3.725   2.608  20.175  0.00  0.00    +0.000 C 
BRANCH  16  17
ATOM     17  C   UNL     1       4.202   3.135  18.831  0.00  0.00    +0.000 A 
ATOM     18  C   UNL     1       3.619   2.820  17.604  0.00  0.00    +0.000 A 
ATOM     19  C   UNL     1       4.069   3.375  16.419  0.00  0.00    +0.000 A 
ATOM     20  C   UNL     1       5.147   4.269  16.386  0.00  0.00    +0.000 A 
ATOM     21  C   UNL     1       5.522   4.861  15.058  0.00  0.00    +0.000 C 
ATOM     22  C   UNL     1       5.794   4.566  17.595  0.00  0.00    +0.000 A 
ATOM     23  C   UNL     1       5.311   4.015  18.799  0.00  0.00    +0.000 A 
BRANCH  18  24
ATOM     24  O   UNL     1       2.568   1.948  17.436  0.00  0.00    +0.000 OA
ATOM     25  H   UNL     1       2.333   1.868  16.500  0.00  0.00    +0.000 HD
ENDBRANCH  18  24
BRANCH  22  26
ATOM     26  C   UNL     1       6.958   5.480  17.611  0.00  0.00    +0.000 C 
ATOM     27  O   UNL     1       6.887   6.585  18.138  0.00  0.00    +0.000 OA
ENDBRANCH  22  26
BRANCH  23  28
ATOM     28  O   UNL     1       5.872   4.331  20.017  0.00  0.00    +0.000 OA
ATOM     29  H   UNL     1       6.791   4.655  19.874  0.00  0.00    +0.000 HD
ENDBRANCH  23  28
ENDBRANCH  16  17
ENDBRANCH   1  16
TORSDOF 10
ENDMDL
MODEL 2
REMARK VINA RESULT:      -7.4      2.292      6.649
REMARK  Name = 
REMARK  13 active torsions:
REMARK  status: ('A' for Active; 'I' for Inactive)
REMARK    1  A    between atoms: C_2  and  C_3
REMARK    2  A    between atoms: C_2  and  C_13
REMARK    3  A    between atoms: C_3  and  C_4
REMARK    4  A    between atoms: C_4  and  C_5
REMARK    5  A    between atoms: C_6  and  C_7
REMARK    6  A    between atoms: C_11  and  C_12
REMARK    7  A    between atoms: C_13  and  O_14
REMARK    8  A    between atoms: C_13  and  C_15
REMARK    9  A    between atoms: C_15  and  C_16
REMARK   10  A    between atoms: C_17  and  O_18
REMARK   11  A    between atoms: C_20  and  C_21
REMARK   12  A    between atoms: C_22  and  C_23
REMARK   13  A    between atoms: C_25  and  O_26
REMARK                            x       y       z     vdW  Elec       q    Type
REMARK                         _______ _______ _______ _____ _____    ______ ____
ROOT
ATOM      1  C   UNL     1       4.030   6.878  18.124  0.00  0.00    +0.000 C 
ENDROOT
BRANCH   1   3
ATOM      2  C   UNL     1       5.709   5.266  19.122  0.00  0.00    +0.000 C 
ATOM      3  C   UNL     1       4.742   5.516  18.216  0.00  0.00    +0.000 C 
BRANCH   3   4
ATOM      4  C   UNL     1       4.271   4.455  17.208  0.00  0.00    +0.000 C 
BRANCH   4   5
ATOM      5  C   UNL     1       3.963   3.046  17.756  0.00  0.00    +0.000 C 
BRANCH   5   6
ATOM      6  C   UNL     1       3.024   3.038  18.955  0.00  0.00    +0.000 A 
ATOM      7  C   UNL     1       3.451   2.560  20.220  0.00  0.00    +0.000 A 
ATOM      8  C   UNL     1       4.811   1.971  20.491  0.00  0.00    +0.000 C 
ATOM      9  C   UNL     1       2.586   2.639  21.325  0.00  0.00    +0.000 A 
ATOM     10  C   UNL     1       1.298   3.143  21.195  0.00  0.00    +0.000 A 
ATOM     11  C   UNL     1       0.851   3.568  19.950  0.00  0.00    +0.000 A 
ATOM     12  C   UNL     1       1.696   3.531  18.828  0.00  0.00    +0.000 A 
ATOM     13  C   UNL     1       1.116   3.984  17.511  0.00  0.00    +0.000 C 
ENDBRANCH   5   6
ENDBRANCH   4   5
ENDBRANCH   3   4
ENDBRANCH   1   3
BRANCH   1  14
ATOM     14  O   UNL     1       4.287   7.386  16.818  0.00  0.00    +0.000 OA
ATOM     15  H   UNL     1       4.379   8.352  16.873  0.00  0.00    +0.000 HD
ENDBRANCH   1  14
BRANCH   1  16
ATOM     16  C   UNL     1       2.503   6.850  18.442  0.00  0.00    +0.000 C 
BRANCH  16  17
ATOM     17  C   UNL     1       1.923   8.110  19.066  0.00  0.00    +0.000 A 
ATOM     18  C   UNL     1       1.734   9.314  18.390  0.00  0.00    +0.000 A 
ATOM     19  C   UNL     1       1.152  10.411  19.002  0.00  0.00    +0.000 A 
ATOM     20  C   UNL     1       0.740  10.376  20.340  0.00  0.00    +0.000 A 
ATOM     21  C   UNL     1       0.067  11.598  20.896  0.00  0.00    +0.000 C 
ATOM     22  C   UNL     1       0.966   9.198  21.069  0.00  0.00    +0.000 A 
ATOM     23  C   UNL     1       1.535   8.079  20.428  0.00  0.00    +0.000 A 
BRANCH  18  24
ATOM     24  O   UNL     1       2.093   9.546  17.082  0.00  0.00    +0.000 OA
ATOM     25  H   UNL     1       2.541   8.774  16.706  0.00  0.00    +0.000 HD
ENDBRANCH  18  24
BRANCH  22  26
ATOM     26  C   UNL     1       0.578   9.119  22.495  0.00  0.00    +0.000 C 
ATOM     27  O   UNL     1       1.272   9.630  23.368  0.00  0.00    +0.000 OA
ENDBRANCH  22  26
BRANCH  23  28
ATOM     28  O   UNL     1       1.715   6.881  21.084  0.00  0.00    +0.000 OA
ATOM     29  H   UNL     1       2.443   6.979  21.740  0.00  0.00    +0.000 HD
ENDBRANCH  23  28
ENDBRANCH  16  17
ENDBRANCH   1  16
TORSDOF 10
ENDMDL
MODEL 3
REMARK VINA RESULT:      -7.3      2.369      6.546
REMARK  Name = 
REMARK  13 active torsions:
REMARK  status: ('A' for Active; 'I' for Inactive)
REMARK    1  A    between atoms: C_2  and  C_3
REMARK    2  A    between atoms: C_2  and  C_13
REMARK    3  A    between atoms: C_3  and  C_4
REMARK    4  A    between atoms: C_4  and  C_5
REMARK    5  A    between atoms: C_6  and  C_7
REMARK    6  A    between atoms: C_11  and  C_12
REMARK    7  A    between atoms: C_13  and  O_14
REMARK    8  A    between atoms: C_13  and  C_15
REMARK    9  A    between atoms: C_15  and  C_16
REMARK   10  A    between atoms: C_17  and  O_18
REMARK   11  A    between atoms: C_20  and  C_21
REMARK   12  A    between atoms: C_22  and  C_23
REMARK   13  A    between atoms: C_25  and  O_26
REMARK                            x       y       z     vdW  Elec       q    Type
REMARK                         _______ _______ _______ _____ _____    ______ ____
ROOT
ATOM      1  C   UNL     1       4.415   6.831  17.895  0.00  0.00    +0.000 C 
ENDROOT
BRANCH   1   3
ATOM      2  C   UNL     1       5.877   5.085  19.003  0.00  0.00    +0.000 C 
ATOM      3  C   UNL     1       4.916   5.391  18.108  0.00  0.00    +0.000 C 
BRANCH   3   4
ATOM      4  C   UNL     1       4.242   4.321  17.234  0.00  0.00    +0.000 C 
BRANCH   4   5
ATOM      5  C   UNL     1       3.983   2.942  17.876  0.00  0.00    +0.000 C 
BRANCH   5   6
ATOM      6  C   UNL     1       3.000   2.974  19.038  0.00  0.00    +0.000 A 
ATOM      7  C   UNL     1       1.680   3.465  18.871  0.00  0.00    +0.000 A 
ATOM      8  C   UNL     1       1.145   4.046  17.588  0.00  0.00    +0.000 C 
ATOM      9  C   UNL     1       0.773   3.407  19.943  0.00  0.00    +0.000 A 
ATOM     10  C   UNL     1       1.155   2.911  21.183  0.00  0.00    +0.000 A 
ATOM     11  C   UNL     1       2.460   2.474  21.373  0.00  0.00    +0.000 A 
ATOM     12  C   UNL     1       3.388   2.490  20.318  0.00  0.00    +0.000 A 
ATOM     13  C   UNL     1       4.790   2.024  20.624  0.00  0.00    +0.000 C 
ENDBRANCH   5   6
ENDBRANCH   4   5
ENDBRANCH   3   4
ENDBRANCH   1   3
BRANCH   1  14
ATOM     14  O   UNL     1       5.102   7.339  16.755  0.00  0.00    +0.000 OA
ATOM     15  H   UNL     1       4.466   7.819  16.199  0.00  0.00    +0.000 HD
ENDBRANCH   1  14
BRANCH   1  16
ATOM     16  C   UNL     1       2.868   6.980  17.750  0.00  0.00    +0.000 C 
BRANCH  16  17
ATOM     17  C   UNL     1       2.167   7.790  18.829  0.00  0.00    +0.000 A 
ATOM     18  C   UNL     1       2.008   7.380  20.151  0.00  0.00    +0.000 A 
ATOM     19  C   UNL     1       1.404   8.188  21.099  0.00  0.00    +0.000 A 
ATOM     20  C   UNL     1       0.904   9.456  20.775  0.00  0.00    +0.000 A 
ATOM     21  C   UNL     1       0.319  10.280  21.886  0.00  0.00    +0.000 C 
ATOM     22  C   UNL     1       0.996   9.880  19.441  0.00  0.00    +0.000 A 
ATOM     23  C   UNL     1       1.635   9.059  18.490  0.00  0.00    +0.000 A 
BRANCH  18  24
ATOM     24  O   UNL     1       2.415   6.163  20.650  0.00  0.00    +0.000 OA
ATOM     25  H   UNL     1       1.729   5.492  20.524  0.00  0.00    +0.000 HD
ENDBRANCH  18  24
BRANCH  22  26
ATOM     26  C   UNL     1       0.454  11.198  19.040  0.00  0.00    +0.000 C 
ATOM     27  O   UNL     1       1.193  12.090  18.640  0.00  0.00    +0.000 OA
ENDBRANCH  22  26
BRANCH  23  28
ATOM     28  O   UNL     1       1.809   9.462  17.184  0.00  0.00    +0.000 OA
ATOM     29  H   UNL     1       1.805  10.446  17.148  0.00  0.00    +0.000 HD
ENDBRANCH  23  28
ENDBRANCH  16  17
ENDBRANCH   1  16
TORSDOF 10
ENDMDL
MODEL 4
REMARK VINA RESULT:      -7.3      2.518      6.609
REMARK  Name = 
REMARK  13 active torsions:
REMARK  status: ('A' for Active; 'I' for Inactive)
REMARK    1  A    between atoms: C_2  and  C_3
REMARK    2  A    between atoms: C_2  and  C_13
REMARK    3  A    between atoms: C_3  and  C_4
REMARK    4  A    between atoms: C_4  and  C_5
REMARK    5  A    between atoms: C_6  and  C_7
REMARK    6  A    between atoms: C_11  and  C_12
REMARK    7  A    between atoms: C_13  and  O_14
REMARK    8  A    between atoms: C_13  and  C_15
REMARK    9  A    between atoms: C_15  and  C_16
REMARK   10  A    between atoms: C_17  and  O_18
REMARK   11  A    between atoms: C_20  and  C_21
REMARK   12  A    between atoms: C_22  and  C_23
REMARK   13  A    between atoms: C_25  and  O_26
REMARK                            x       y       z     vdW  Elec       q    Type
REMARK                         _______ _______ _______ _____ _____    ______ ____
ROOT
ATOM      1  C   UNL     1       4.494   6.914  17.987  0.00  0.00    +0.000 C 
ENDROOT
BRANCH   1   3
ATOM      2  C   UNL     1       5.782   5.086  19.176  0.00  0.00    +0.000 C 
ATOM      3  C   UNL     1       4.913   5.450  18.212  0.00  0.00    +0.000 C 
BRANCH   3   4
ATOM      4  C   UNL     1       4.268   4.425  17.264  0.00  0.00    +0.000 C 
BRANCH   4   5
ATOM      5  C   UNL     1       3.990   3.017  17.827  0.00  0.00    +0.000 C 
BRANCH   5   6
ATOM      6  C   UNL     1       3.018   2.998  19.001  0.00  0.00    +0.000 A 
ATOM      7  C   UNL     1       3.406   2.494  20.269  0.00  0.00    +0.000 A 
ATOM      8  C   UNL     1       4.753   1.886  20.566  0.00  0.00    +0.000 C 
ATOM      9  C   UNL     1       2.513   2.564  21.351  0.00  0.00    +0.000 A 
ATOM     10  C   UNL     1       1.235   3.084  21.195  0.00  0.00    +0.000 A 
ATOM     11  C   UNL     1       0.826   3.535  19.946  0.00  0.00    +0.000 A 
ATOM     12  C   UNL     1       1.699   3.508  18.846  0.00  0.00    +0.000 A 
ATOM     13  C   UNL     1       1.160   3.989  17.522  0.00  0.00    +0.000 C 
ENDBRANCH   5   6
ENDBRANCH   4   5
ENDBRANCH   3   4
ENDBRANCH   1   3
BRANCH   1  14
ATOM     14  O   UNL     1       5.282   7.403  16.906  0.00  0.00    +0.000 OA
ATOM     15  H   UNL     1       4.814   8.147  16.492  0.00  0.00    +0.000 HD
ENDBRANCH   1  14
BRANCH   1  16
ATOM     16  C   UNL     1       2.970   7.136  17.736  0.00  0.00    +0.000 C 
BRANCH  16  17
ATOM     17  C   UNL     1       2.213   7.887  18.821  0.00  0.00    +0.000 A 
ATOM     18  C   UNL     1       2.050   7.437  20.129  0.00  0.00    +0.000 A 
ATOM     19  C   UNL     1       1.392   8.193  21.084  0.00  0.00    +0.000 A 
ATOM     20  C   UNL     1       0.838   9.443  20.782  0.00  0.00    +0.000 A 
ATOM     21  C   UNL     1       0.196  10.212  21.901  0.00  0.00    +0.000 C 
ATOM     22  C   UNL     1       0.934   9.904  19.459  0.00  0.00    +0.000 A 
ATOM     23  C   UNL     1       1.628   9.137  18.502  0.00  0.00    +0.000 A 
BRANCH  18  24
ATOM     24  O   UNL     1       2.505   6.229  20.607  0.00  0.00    +0.000 OA
ATOM     25  H   UNL     1       3.409   6.310  20.944  0.00  0.00    +0.000 HD
ENDBRANCH  18  24
BRANCH  22  26
ATOM     26  C   UNL     1       0.338  11.204  19.079  0.00  0.00    +0.000 C 
ATOM     27  O   UNL     1      -0.810  11.272  18.654  0.00  0.00    +0.000 OA
ENDBRANCH  22  26
BRANCH  23  28
ATOM     28  O   UNL     1       1.805   9.579  17.209  0.00  0.00    +0.000 OA
ATOM     29  H   UNL     1       2.537   9.069  16.792  0.00  0.00    +0.000 HD
ENDBRANCH  23  28
ENDBRANCH  16  17
ENDBRANCH   1  16
TORSDOF 10
ENDMDL
MODEL 5
REMARK VINA RESULT:      -7.3      0.435      1.765
REMARK  Name = 
REMARK  13 active torsions:
REMARK  status: ('A' for Active; 'I' for Inactive)
REMARK    1  A    between atoms: C_2  and  C_3
REMARK    2  A    between atoms: C_2  and  C_13
REMARK    3  A    between atoms: C_3  and  C_4
REMARK    4  A    between atoms: C_4  and  C_5
REMARK    5  A    between atoms: C_6  and  C_7
REMARK    6  A    between atoms: C_11  and  C_12
REMARK    7  A    between atoms: C_13  and  O_14
REMARK    8  A    between atoms: C_13  and  C_15
REMARK    9  A    between atoms: C_15  and  C_16
REMARK   10  A    between atoms: C_17  and  O_18
REMARK   11  A    between atoms: C_20  and  C_21
REMARK   12  A    between atoms: C_22  and  C_23
REMARK   13  A    between atoms: C_25  and  O_26
REMARK                            x       y       z     vdW  Elec       q    Type
REMARK                         _______ _______ _______ _____ _____    ______ ____
ROOT
ATOM      1  C   UNL     1       3.084   3.588  21.018  0.00  0.00    +0.000 C 
ENDROOT
BRANCH   1   3
ATOM      2  C   UNL     1       0.700   3.369  20.193  0.00  0.00    +0.000 C 
ATOM      3  C   UNL     1       1.844   4.080  20.250  0.00  0.00    +0.000 C 
BRANCH   3   4
ATOM      4  C   UNL     1       1.996   5.442  19.554  0.00  0.00    +0.000 C 
BRANCH   4   5
ATOM      5  C   UNL     1       2.103   6.689  20.455  0.00  0.00    +0.000 C 
BRANCH   5   6
ATOM      6  C   UNL     1       1.753   7.995  19.754  0.00  0.00    +0.000 A 
ATOM      7  C   UNL     1       2.309   8.323  18.491  0.00  0.00    +0.000 A 
ATOM      8  C   UNL     1       3.319   7.476  17.760  0.00  0.00    +0.000 C 
ATOM      9  C   UNL     1       1.905   9.498  17.834  0.00  0.00    +0.000 A 
ATOM     10  C   UNL     1       0.995  10.370  18.417  0.00  0.00    +0.000 A 
ATOM     11  C   UNL     1       0.481  10.085  19.676  0.00  0.00    +0.000 A 
ATOM     12  C   UNL     1       0.839   8.907  20.352  0.00  0.00    +0.000 A 
ATOM     13  C   UNL     1       0.257   8.694  21.727  0.00  0.00    +0.000 C 
ENDBRANCH   5   6
ENDBRANCH   4   5
ENDBRANCH   3   4
ENDBRANCH   1   3
BRANCH   1  14
ATOM     14  O   UNL     1       2.606   2.847  22.136  0.00  0.00    +0.000 OA
ATOM     15  H   UNL     1       1.936   3.378  22.597  0.00  0.00    +0.000 HD
ENDBRANCH   1  14
BRANCH   1  16
ATOM     16  C   UNL     1       4.104   2.763  20.172  0.00  0.00    +0.000 C 
BRANCH  16  17
ATOM     17  C   UNL     1       4.474   3.340  18.814  0.00  0.00    +0.000 A 
ATOM     18  C   UNL     1       3.817   3.044  17.622  0.00  0.00    +0.000 A 
ATOM     19  C   UNL     1       4.171   3.644  16.426  0.00  0.00    +0.000 A 
ATOM     20  C   UNL     1       5.222   4.566  16.346  0.00  0.00    +0.000 A 
ATOM     21  C   UNL     1       5.491   5.205  15.014  0.00  0.00    +0.000 C 
ATOM     22  C   UNL     1       5.943   4.847  17.517  0.00  0.00    +0.000 A 
ATOM     23  C   UNL     1       5.558   4.250  18.734  0.00  0.00    +0.000 A 
BRANCH  18  24
ATOM     24  O   UNL     1       2.778   2.151  17.499  0.00  0.00    +0.000 OA
ATOM     25  H   UNL     1       2.637   1.911  16.571  0.00  0.00    +0.000 HD
ENDBRANCH  18  24
BRANCH  22  26
ATOM     26  C   UNL     1       7.083   5.790  17.481  0.00  0.00    +0.000 C 
ATOM     27  O   UNL     1       7.194   6.680  18.317  0.00  0.00    +0.000 OA
ENDBRANCH  22  26
BRANCH  23  28
ATOM     28  O   UNL     1       6.193   4.545  19.920  0.00  0.00    +0.000 OA
ATOM     29  H   UNL     1       5.520   4.810  20.588  0.00  0.00    +0.000 HD
ENDBRANCH  23  28
ENDBRANCH  16  17
ENDBRANCH   1  16
TORSDOF 10
ENDMDL
MODEL 6
REMARK VINA RESULT:      -7.2      1.189      2.214
REMARK  Name = 
REMARK  13 active torsions:
REMARK  status: ('A' for Active; 'I' for Inactive)
REMARK    1  A    between atoms: C_2  and  C_3
REMARK    2  A    between atoms: C_2  and  C_13
REMARK    3  A    between atoms: C_3  and  C_4
REMARK    4  A    between atoms: C_4  and  C_5
REMARK    5  A    between atoms: C_6  and  C_7
REMARK    6  A    between atoms: C_11  and  C_12
REMARK    7  A    between atoms: C_13  and  O_14
REMARK    8  A    between atoms: C_13  and  C_15
REMARK    9  A    between atoms: C_15  and  C_16
REMARK   10  A    between atoms: C_17  and  O_18
REMARK   11  A    between atoms: C_20  and  C_21
REMARK   12  A    between atoms: C_22  and  C_23
REMARK   13  A    between atoms: C_25  and  O_26
REMARK                            x       y       z     vdW  Elec       q    Type
REMARK                         _______ _______ _______ _____ _____    ______ ____
ROOT
ATOM      1  C   UNL     1       1.590   2.628  19.519  0.00  0.00    +0.000 C 
ENDROOT
BRANCH   1   3
ATOM      2  C   UNL     1       2.135   3.771  21.713  0.00  0.00    +0.000 C 
ATOM      3  C   UNL     1       1.769   3.865  20.419  0.00  0.00    +0.000 C 
BRANCH   3   4
ATOM      4  C   UNL     1       1.506   5.219  19.740  0.00  0.00    +0.000 C 
BRANCH   4   5
ATOM      5  C   UNL     1       2.398   6.406  20.159  0.00  0.00    +0.000 C 
BRANCH   5   6
ATOM      6  C   UNL     1       1.921   7.755  19.637  0.00  0.00    +0.000 A 
ATOM      7  C   UNL     1       2.304   8.224  18.355  0.00  0.00    +0.000 A 
ATOM      8  C   UNL     1       3.240   7.493  17.426  0.00  0.00    +0.000 C 
ATOM      9  C   UNL     1       1.784   9.437  17.871  0.00  0.00    +0.000 A 
ATOM     10  C   UNL     1       0.928  10.211  18.644  0.00  0.00    +0.000 A 
ATOM     11  C   UNL     1       0.586   9.786  19.921  0.00  0.00    +0.000 A 
ATOM     12  C   UNL     1       1.062   8.566  20.430  0.00  0.00    +0.000 A 
ATOM     13  C   UNL     1       0.664   8.201  21.838  0.00  0.00    +0.000 C 
ENDBRANCH   5   6
ENDBRANCH   4   5
ENDBRANCH   3   4
ENDBRANCH   1   3
BRANCH   1  14
ATOM     14  O   UNL     1       0.682   3.001  18.487  0.00  0.00    +0.000 OA
ATOM     15  H   UNL     1       0.547   3.962  18.525  0.00  0.00    +0.000 HD
ENDBRANCH   1  14
BRANCH   1  16
ATOM     16  C   UNL     1       2.912   2.035  18.939  0.00  0.00    +0.000 C 
BRANCH  16  17
ATOM     17  C   UNL     1       3.797   2.998  18.162  0.00  0.00    +0.000 A 
ATOM     18  C   UNL     1       3.515   3.477  16.884  0.00  0.00    +0.000 A 
ATOM     19  C   UNL     1       4.336   4.394  16.251  0.00  0.00    +0.000 A 
ATOM     20  C   UNL     1       5.507   4.874  16.853  0.00  0.00    +0.000 A 
ATOM     21  C   UNL     1       6.300   5.909  16.109  0.00  0.00    +0.000 C 
ATOM     22  C   UNL     1       5.853   4.370  18.116  0.00  0.00    +0.000 A 
ATOM     23  C   UNL     1       4.995   3.457  18.762  0.00  0.00    +0.000 A 
BRANCH  18  24
ATOM     24  O   UNL     1       2.426   3.106  16.129  0.00  0.00    +0.000 OA
ATOM     25  H   UNL     1       2.225   2.167  16.251  0.00  0.00    +0.000 HD
ENDBRANCH  18  24
BRANCH  22  26
ATOM     26  C   UNL     1       7.096   4.820  18.782  0.00  0.00    +0.000 C 
ATOM     27  O   UNL     1       7.064   5.349  19.888  0.00  0.00    +0.000 OA
ENDBRANCH  22  26
BRANCH  23  28
ATOM     28  O   UNL     1       5.259   2.987  20.030  0.00  0.00    +0.000 OA
ATOM     29  H   UNL     1       4.487   2.463  20.346  0.00  0.00    +0.000 HD
ENDBRANCH  23  28
ENDBRANCH  16  17
ENDBRANCH   1  16
TORSDOF 10
ENDMDL
MODEL 7
REMARK VINA RESULT:      -7.2      1.489      2.764
REMARK  Name = 
REMARK  13 active torsions:
REMARK  status: ('A' for Active; 'I' for Inactive)
REMARK    1  A    between atoms: C_2  and  C_3
REMARK    2  A    between atoms: C_2  and  C_13
REMARK    3  A    between atoms: C_3  and  C_4
REMARK    4  A    between atoms: C_4  and  C_5
REMARK    5  A    between atoms: C_6  and  C_7
REMARK    6  A    between atoms: C_11  and  C_12
REMARK    7  A    between atoms: C_13  and  O_14
REMARK    8  A    between atoms: C_13  and  C_15
REMARK    9  A    between atoms: C_15  and  C_16
REMARK   10  A    between atoms: C_17  and  O_18
REMARK   11  A    between atoms: C_20  and  C_21
REMARK   12  A    between atoms: C_22  and  C_23
REMARK   13  A    between atoms: C_25  and  O_26
REMARK                            x       y       z     vdW  Elec       q    Type
REMARK                         _______ _______ _______ _____ _____    ______ ____
ROOT
ATOM      1  C   UNL     1       3.043   2.989  18.640  0.00  0.00    +0.000 C 
ENDROOT
BRANCH   1   3
ATOM      2  C   UNL     1       1.363   4.390  17.364  0.00  0.00    +0.000 C 
ATOM      3  C   UNL     1       2.043   4.152  18.503  0.00  0.00    +0.000 C 
BRANCH   3   4
ATOM      4  C   UNL     1       1.867   5.022  19.758  0.00  0.00    +0.000 C 
BRANCH   4   5
ATOM      5  C   UNL     1       2.816   6.227  19.923  0.00  0.00    +0.000 C 
BRANCH   5   6
ATOM      6  C   UNL     1       2.225   7.551  19.454  0.00  0.00    +0.000 A 
ATOM      7  C   UNL     1       2.518   8.072  18.168  0.00  0.00    +0.000 A 
ATOM      8  C   UNL     1       3.460   7.428  17.183  0.00  0.00    +0.000 C 
ATOM      9  C   UNL     1       1.895   9.255  17.737  0.00  0.00    +0.000 A 
ATOM     10  C   UNL     1       1.023   9.951  18.564  0.00  0.00    +0.000 A 
ATOM     11  C   UNL     1       0.768   9.478  19.844  0.00  0.00    +0.000 A 
ATOM     12  C   UNL     1       1.349   8.283  20.302  0.00  0.00    +0.000 A 
ATOM     13  C   UNL     1       1.040   7.861  21.717  0.00  0.00    +0.000 C 
ENDBRANCH   5   6
ENDBRANCH   4   5
ENDBRANCH   3   4
ENDBRANCH   1   3
BRANCH   1  14
ATOM     14  O   UNL     1       2.272   1.799  18.770  0.00  0.00    +0.000 OA
ATOM     15  H   UNL     1       1.672   1.899  19.528  0.00  0.00    +0.000 HD
ENDBRANCH   1  14
BRANCH   1  16
ATOM     16  C   UNL     1       4.089   2.876  17.487  0.00  0.00    +0.000 C 
BRANCH  16  17
ATOM     17  C   UNL     1       5.079   4.024  17.362  0.00  0.00    +0.000 A 
ATOM     18  C   UNL     1       5.370   4.693  16.174  0.00  0.00    +0.000 A 
ATOM     19  C   UNL     1       6.244   5.765  16.137  0.00  0.00    +0.000 A 
ATOM     20  C   UNL     1       6.898   6.224  17.287  0.00  0.00    +0.000 A 
ATOM     21  C   UNL     1       7.782   7.431  17.154  0.00  0.00    +0.000 C 
ATOM     22  C   UNL     1       6.672   5.539  18.491  0.00  0.00    +0.000 A 
ATOM     23  C   UNL     1       5.761   4.464  18.523  0.00  0.00    +0.000 A 
BRANCH  18  24
ATOM     24  O   UNL     1       4.843   4.374  14.944  0.00  0.00    +0.000 OA
ATOM     25  H   UNL     1       4.793   3.414  14.828  0.00  0.00    +0.000 HD
ENDBRANCH  18  24
BRANCH  22  26
ATOM     26  C   UNL     1       7.363   5.963  19.730  0.00  0.00    +0.000 C 
ATOM     27  O   UNL     1       7.991   5.159  20.410  0.00  0.00    +0.000 OA
ENDBRANCH  22  26
BRANCH  23  28
ATOM     28  O   UNL     1       5.457   3.805  19.693  0.00  0.00    +0.000 OA
ATOM     29  H   UNL     1       5.744   4.356  20.457  0.00  0.00    +0.000 HD
ENDBRANCH  23  28
ENDBRANCH  16  17
ENDBRANCH   1  16
TORSDOF 10
ENDMDL
MODEL 8
REMARK VINA RESULT:      -7.1      2.219      6.056
REMARK  Name = 
REMARK  13 active torsions:
REMARK  status: ('A' for Active; 'I' for Inactive)
REMARK    1  A    between atoms: C_2  and  C_3
REMARK    2  A    between atoms: C_2  and  C_13
REMARK    3  A    between atoms: C_3  and  C_4
REMARK    4  A    between atoms: C_4  and  C_5
REMARK    5  A    between atoms: C_6  and  C_7
REMARK    6  A    between atoms: C_11  and  C_12
REMARK    7  A    between atoms: C_13  and  O_14
REMARK    8  A    between atoms: C_13  and  C_15
REMARK    9  A    between atoms: C_15  and  C_16
REMARK   10  A    between atoms: C_17  and  O_18
REMARK   11  A    between atoms: C_20  and  C_21
REMARK   12  A    between atoms: C_22  and  C_23
REMARK   13  A    between atoms: C_25  and  O_26
REMARK                            x       y       z     vdW  Elec       q    Type
REMARK                         _______ _______ _______ _____ _____    ______ ____
ROOT
ATOM      1  C   UNL     1       1.595   4.943  19.551  0.00  0.00    +0.000 C 
ENDROOT
BRANCH   1   3
ATOM      2  C   UNL     1       1.577   2.535  18.766  0.00  0.00    +0.000 C 
ATOM      3  C   UNL     1       1.906   3.823  18.541  0.00  0.00    +0.000 C 
BRANCH   3   4
ATOM      4  C   UNL     1       2.613   4.274  17.252  0.00  0.00    +0.000 C 
BRANCH   4   5
ATOM      5  C   UNL     1       3.999   3.665  16.956  0.00  0.00    +0.000 C 
BRANCH   5   6
ATOM      6  C   UNL     1       5.168   4.532  17.409  0.00  0.00    +0.000 A 
ATOM      7  C   UNL     1       5.787   5.451  16.524  0.00  0.00    +0.000 A 
ATOM      8  C   UNL     1       5.411   5.621  15.074  0.00  0.00    +0.000 C 
ATOM      9  C   UNL     1       6.810   6.292  16.995  0.00  0.00    +0.000 A 
ATOM     10  C   UNL     1       7.258   6.213  18.307  0.00  0.00    +0.000 A 
ATOM     11  C   UNL     1       6.694   5.282  19.169  0.00  0.00    +0.000 A 
ATOM     12  C   UNL     1       5.649   4.443  18.744  0.00  0.00    +0.000 A 
ATOM     13  C   UNL     1       5.118   3.441  19.739  0.00  0.00    +0.000 C 
ENDBRANCH   5   6
ENDBRANCH   4   5
ENDBRANCH   3   4
ENDBRANCH   1   3
BRANCH   1  14
ATOM     14  O   UNL     1       1.395   4.312  20.812  0.00  0.00    +0.000 OA
ATOM     15  H   UNL     1       2.256   4.015  21.151  0.00  0.00    +0.000 HD
ENDBRANCH   1  14
BRANCH   1  16
ATOM     16  C   UNL     1       2.667   6.074  19.636  0.00  0.00    +0.000 C 
BRANCH  16  17
ATOM     17  C   UNL     1       2.170   7.491  19.393  0.00  0.00    +0.000 A 
ATOM     18  C   UNL     1       2.350   8.201  18.208  0.00  0.00    +0.000 A 
ATOM     19  C   UNL     1       1.827   9.471  18.031  0.00  0.00    +0.000 A 
ATOM     20  C   UNL     1       1.105  10.117  19.041  0.00  0.00    +0.000 A 
ATOM     21  C   UNL     1       0.529  11.469  18.732  0.00  0.00    +0.000 C 
ATOM     22  C   UNL     1       0.951   9.455  20.269  0.00  0.00    +0.000 A 
ATOM     23  C   UNL     1       1.466   8.153  20.429  0.00  0.00    +0.000 A 
BRANCH  18  24
ATOM     24  O   UNL     1       3.048   7.741  17.114  0.00  0.00    +0.000 OA
ATOM     25  H   UNL     1       3.340   8.476  16.556  0.00  0.00    +0.000 HD
ENDBRANCH  18  24
BRANCH  22  26
ATOM     26  C   UNL     1       0.223  10.108  21.381  0.00  0.00    +0.000 C 
ATOM     27  O   UNL     1       0.790  10.378  22.434  0.00  0.00    +0.000 OA
ENDBRANCH  22  26
BRANCH  23  28
ATOM     28  O   UNL     1       1.282   7.438  21.592  0.00  0.00    +0.000 OA
ATOM     29  H   UNL     1       1.207   6.480  21.372  0.00  0.00    +0.000 HD
ENDBRANCH  23  28
ENDBRANCH  16  17
ENDBRANCH   1  16
TORSDOF 10
ENDMDL
MODEL 9
REMARK VINA RESULT:      -7.1      2.279      6.671
REMARK  Name = 
REMARK  13 active torsions:
REMARK  status: ('A' for Active; 'I' for Inactive)
REMARK    1  A    between atoms: C_2  and  C_3
REMARK    2  A    between atoms: C_2  and  C_13
REMARK    3  A    between atoms: C_3  and  C_4
REMARK    4  A    between atoms: C_4  and  C_5
REMARK    5  A    between atoms: C_6  and  C_7
REMARK    6  A    between atoms: C_11  and  C_12
REMARK    7  A    between atoms: C_13  and  O_14
REMARK    8  A    between atoms: C_13  and  C_15
REMARK    9  A    between atoms: C_15  and  C_16
REMARK   10  A    between atoms: C_17  and  O_18
REMARK   11  A    between atoms: C_20  and  C_21
REMARK   12  A    between atoms: C_22  and  C_23
REMARK   13  A    between atoms: C_25  and  O_26
REMARK                            x       y       z     vdW  Elec       q    Type
REMARK                         _______ _______ _______ _____ _____    ______ ____
ROOT
ATOM      1  C   UNL     1       4.057   6.836  18.116  0.00  0.00    +0.000 C 
ENDROOT
BRANCH   1   3
ATOM      2  C   UNL     1       5.740   5.232  19.119  0.00  0.00    +0.000 C 
ATOM      3  C   UNL     1       4.764   5.472  18.221  0.00  0.00    +0.000 C 
BRANCH   3   4
ATOM      4  C   UNL     1       4.276   4.398  17.235  0.00  0.00    +0.000 C 
BRANCH   4   5
ATOM      5  C   UNL     1       3.944   3.006  17.813  0.00  0.00    +0.000 C 
BRANCH   5   6
ATOM      6  C   UNL     1       2.985   3.038  18.996  0.00  0.00    +0.000 A 
ATOM      7  C   UNL     1       1.654   3.507  18.851  0.00  0.00    +0.000 A 
ATOM      8  C   UNL     1       1.082   4.062  17.572  0.00  0.00    +0.000 C 
ATOM      9  C   UNL     1       0.772   3.449  19.943  0.00  0.00    +0.000 A 
ATOM     10  C   UNL     1       1.189   2.977  21.181  0.00  0.00    +0.000 A 
ATOM     11  C   UNL     1       2.504   2.563  21.348  0.00  0.00    +0.000 A 
ATOM     12  C   UNL     1       3.409   2.578  20.273  0.00  0.00    +0.000 A 
ATOM     13  C   UNL     1       4.825   2.139  20.554  0.00  0.00    +0.000 C 
ENDBRANCH   5   6
ENDBRANCH   4   5
ENDBRANCH   3   4
ENDBRANCH   1   3
BRANCH   1  14
ATOM     14  O   UNL     1       4.309   7.327  16.803  0.00  0.00    +0.000 OA
ATOM     15  H   UNL     1       5.269   7.341  16.656  0.00  0.00    +0.000 HD
ENDBRANCH   1  14
BRANCH   1  16
ATOM     16  C   UNL     1       2.531   6.818  18.442  0.00  0.00    +0.000 C 
BRANCH  16  17
ATOM     17  C   UNL     1       1.962   8.082  19.067  0.00  0.00    +0.000 A 
ATOM     18  C   UNL     1       1.761   9.281  18.387  0.00  0.00    +0.000 A 
ATOM     19  C   UNL     1       1.191  10.383  19.001  0.00  0.00    +0.000 A 
ATOM     20  C   UNL     1       0.802  10.357  20.347  0.00  0.00    +0.000 A 
ATOM     21  C   UNL     1       0.139  11.583  20.905  0.00  0.00    +0.000 C 
ATOM     22  C   UNL     1       1.040   9.184  21.079  0.00  0.00    +0.000 A 
ATOM     23  C   UNL     1       1.598   8.061  20.437  0.00  0.00    +0.000 A 
BRANCH  18  24
ATOM     24  O   UNL     1       2.099   9.503  17.071  0.00  0.00    +0.000 OA
ATOM     25  H   UNL     1       1.514   9.010  16.477  0.00  0.00    +0.000 HD
ENDBRANCH  18  24
BRANCH  22  26
ATOM     26  C   UNL     1       0.677   9.115  22.513  0.00  0.00    +0.000 C 
ATOM     27  O   UNL     1      -0.496   9.065  22.866  0.00  0.00    +0.000 OA
ENDBRANCH  22  26
BRANCH  23  28
ATOM     28  O   UNL     1       1.789   6.867  21.098  0.00  0.00    +0.000 OA
ATOM     29  H   UNL     1       2.520   6.372  20.662  0.00  0.00    +0.000 HD
ENDBRANCH  23  28
ENDBRANCH  16  17
ENDBRANCH   1  16
TORSDOF 10
ENDMDL
