MODEL 1
REMARK VINA RESULT:      -6.8      0.000      0.000
REMARK  Name = 
REMARK  4 active torsions:
REMARK  status: ('A' for Active; 'I' for Inactive)
REMARK    1  A    between atoms: C_1  and  C_2
REMARK    2  A    between atoms: C_3  and  N_4
REMARK    3  A    between atoms: N_10  and  C_11
REMARK    4  A    between atoms: N_17  and  C_18
REMARK                            x       y       z     vdW  Elec       q    Type
REMARK                         _______ _______ _______ _____ _____    ______ ____
ROOT
ATOM      1  C   UNL     1       4.913   7.026  16.468  0.00  0.00    +0.000 C 
ATOM      2  C   UNL     1       4.515   5.645  16.884  0.00  0.00    +0.000 A 
ATOM      3  C   UNL     1       4.787   4.447  16.330  0.00  0.00    +0.000 A 
ATOM      4  C   UNL     1       4.277   3.428  17.317  0.00  0.00    +0.000 A 
ATOM      5  O   UNL     1       4.355   2.221  17.129  0.00  0.00    +0.000 OA
ATOM      6  N   UNL     1       3.719   4.141  18.375  0.00  0.00    +0.000 N 
ATOM      7  N   UNL     1       3.747   5.513  18.062  0.00  0.00    +0.000 N 
ATOM      8  C   UNL     1       3.862   6.465  19.170  0.00  0.00    +0.000 C 
ENDROOT
BRANCH   3   9
ATOM      9  N   UNL     1       5.390   3.976  15.193  0.00  0.00    +0.000 N 
ATOM     10  C   UNL     1       6.535   4.340  14.555  0.00  0.00    +0.000 C 
ATOM     11  N   UNL     1       6.694   3.678  13.374  0.00  0.00    +0.000 N 
ATOM     12  O   UNL     1       7.387   5.139  14.906  0.00  0.00    +0.000 OA
ATOM     13  H   UNL     1       4.900   3.187  14.777  0.00  0.00    +0.000 HD
ATOM     14  H   UNL     1       5.871   3.505  12.813  0.00  0.00    +0.000 HD
ATOM     15  H   UNL     1       7.492   4.010  12.846  0.00  0.00    +0.000 HD
ENDBRANCH   3   9
BRANCH   6  16
ATOM     16  C   UNL     1       2.872   3.599  19.360  0.00  0.00    +0.000 A 
ATOM     17  C   UNL     1       3.427   2.983  20.486  0.00  0.00    +0.000 A 
ATOM     18  C   UNL     1       2.606   2.581  21.544  0.00  0.00    +0.000 A 
ATOM     19  C   UNL     1       1.224   2.750  21.460  0.00  0.00    +0.000 A 
ATOM     20  C   UNL     1       0.659   3.308  20.317  0.00  0.00    +0.000 A 
ATOM     21  C   UNL     1       1.480   3.736  19.273  0.00  0.00    +0.000 A 
ENDBRANCH   6  16
TORSDOF 2
ENDMDL
MODEL 2
REMARK VINA RESULT:      -6.8      2.308      5.858
REMARK  Name = 
REMARK  4 active torsions:
REMARK  status: ('A' for Active; 'I' for Inactive)
REMARK    1  A    between atoms: C_1  and  C_2
REMARK    2  A    between atoms: C_3  and  N_4
REMARK    3  A    between atoms: N_10  and  C_11
REMARK    4  A    between atoms: N_17  and  C_18
REMARK                            x       y       z     vdW  Elec       q    Type
REMARK                         _______ _______ _______ _____ _____    ______ ____
ROOT
ATOM      1  C   UNL     1       2.105   7.139  20.202  0.00  0.00    +0.000 C 
ATOM      2  C   UNL     1       2.900   6.044  19.564  0.00  0.00    +0.000 A 
ATOM      3  C   UNL     1       3.009   4.738  19.879  0.00  0.00    +0.000 A 
ATOM      4  C   UNL     1       3.795   4.122  18.750  0.00  0.00    +0.000 A 
ATOM      5  O   UNL     1       4.089   2.933  18.714  0.00  0.00    +0.000 OA
ATOM      6  N   UNL     1       4.100   5.152  17.866  0.00  0.00    +0.000 N 
ATOM      7  N   UNL     1       3.659   6.370  18.419  0.00  0.00    +0.000 N 
ATOM      8  C   UNL     1       3.250   7.432  17.496  0.00  0.00    +0.000 C 
ENDROOT
BRANCH   3   9
ATOM      9  N   UNL     1       2.589   3.905  20.883  0.00  0.00    +0.000 N 
ATOM     10  C   UNL     1       1.516   3.076  20.985  0.00  0.00    +0.000 C 
ATOM     11  N   UNL     1       1.416   2.519  22.226  0.00  0.00    +0.000 N 
ATOM     12  O   UNL     1       0.688   2.786  20.137  0.00  0.00    +0.000 OA
ATOM     13  H   UNL     1       3.222   3.888  21.680  0.00  0.00    +0.000 HD
ATOM     14  H   UNL     1       1.650   3.095  23.023  0.00  0.00    +0.000 HD
ATOM     15  H   UNL     1       0.570   1.976  22.342  0.00  0.00    +0.000 HD
ENDBRANCH   3   9
BRANCH   6  16
ATOM     16  C   UNL     1       5.062   5.083  16.841  0.00  0.00    +0.000 A 
ATOM     17  C   UNL     1       6.373   5.501  17.095  0.00  0.00    +0.000 A 
ATOM     18  C   UNL     1       7.374   5.294  16.141  0.00  0.00    +0.000 A 
ATOM     19  C   UNL     1       7.061   4.711  14.913  0.00  0.00    +0.000 A 
ATOM     20  C   UNL     1       5.747   4.347  14.630  0.00  0.00    +0.000 A 
ATOM     21  C   UNL     1       4.753   4.526  15.592  0.00  0.00    +0.000 A 
ENDBRANCH   6  16
TORSDOF 2
ENDMDL
MODEL 3
REMARK VINA RESULT:      -6.8      2.312      5.956
REMARK  Name = 
REMARK  4 active torsions:
REMARK  status: ('A' for Active; 'I' for Inactive)
REMARK    1  A    between atoms: C_1  and  C_2
REMARK    2  A    between atoms: C_3  and  N_4
REMARK    3  A    between atoms: N_10  and  C_11
REMARK    4  A    between atoms: N_17  and  C_18
REMARK                            x       y       z     vdW  Elec       q    Type
REMARK                         _______ _______ _______ _____ _____    ______ ____
ROOT
ATOM      1  C   UNL     1       2.209   7.089  20.161  0.00  0.00    +0.000 C 
ATOM      2  C   UNL     1       2.980   5.951  19.570  0.00  0.00    +0.000 A 
ATOM      3  C   UNL     1       3.036   4.651  19.921  0.00  0.00    +0.000 A 
ATOM      4  C   UNL     1       3.828   3.979  18.828  0.00  0.00    +0.000 A 
ATOM      5  O   UNL     1       4.081   2.781  18.829  0.00  0.00    +0.000 OA
ATOM      6  N   UNL     1       4.189   4.975  17.926  0.00  0.00    +0.000 N 
ATOM      7  N   UNL     1       3.778   6.221  18.437  0.00  0.00    +0.000 N 
ATOM      8  C   UNL     1       3.428   7.273  17.479  0.00  0.00    +0.000 C 
ENDROOT
BRANCH   3   9
ATOM      9  N   UNL     1       2.563   3.859  20.935  0.00  0.00    +0.000 N 
ATOM     10  C   UNL     1       1.459   3.070  21.031  0.00  0.00    +0.000 C 
ATOM     11  N   UNL     1       1.311   2.549  22.282  0.00  0.00    +0.000 N 
ATOM     12  O   UNL     1       0.642   2.788  20.170  0.00  0.00    +0.000 OA
ATOM     13  H   UNL     1       3.176   3.839  21.747  0.00  0.00    +0.000 HD
ATOM     14  H   UNL     1       1.546   3.137  23.070  0.00  0.00    +0.000 HD
ATOM     15  H   UNL     1       0.443   2.039  22.390  0.00  0.00    +0.000 HD
ENDBRANCH   3   9
BRANCH   6  16
ATOM     16  C   UNL     1       5.173   4.847  16.928  0.00  0.00    +0.000 A 
ATOM     17  C   UNL     1       4.825   4.323  15.678  0.00  0.00    +0.000 A 
ATOM     18  C   UNL     1       5.749   4.333  14.629  0.00  0.00    +0.000 A 
ATOM     19  C   UNL     1       7.038   4.825  14.837  0.00  0.00    +0.000 A 
ATOM     20  C   UNL     1       7.410   5.292  16.095  0.00  0.00    +0.000 A 
ATOM     21  C   UNL     1       6.480   5.309  17.134  0.00  0.00    +0.000 A 
ENDBRANCH   6  16
TORSDOF 2
ENDMDL
MODEL 4
REMARK VINA RESULT:      -6.7      2.837      4.460
REMARK  Name = 
REMARK  4 active torsions:
REMARK  status: ('A' for Active; 'I' for Inactive)
REMARK    1  A    between atoms: C_1  and  C_2
REMARK    2  A    between atoms: C_3  and  N_4
REMARK    3  A    between atoms: N_10  and  C_11
REMARK    4  A    between atoms: N_17  and  C_18
REMARK                            x       y       z     vdW  Elec       q    Type
REMARK                         _______ _______ _______ _____ _____    ______ ____
ROOT
ATOM      1  C   UNL     1       3.854   2.926  19.730  0.00  0.00    +0.000 C 
ATOM      2  C   UNL     1       3.882   4.312  19.166  0.00  0.00    +0.000 A 
ATOM      3  C   UNL     1       4.710   4.879  18.268  0.00  0.00    +0.000 A 
ATOM      4  C   UNL     1       4.105   6.226  17.965  0.00  0.00    +0.000 A 
ATOM      5  O   UNL     1       4.609   7.022  17.183  0.00  0.00    +0.000 OA
ATOM      6  N   UNL     1       2.961   6.336  18.749  0.00  0.00    +0.000 N 
ATOM      7  N   UNL     1       2.878   5.210  19.591  0.00  0.00    +0.000 N 
ATOM      8  C   UNL     1       1.545   4.748  19.988  0.00  0.00    +0.000 C 
ENDROOT
BRANCH   3   9
ATOM      9  N   UNL     1       5.859   4.540  17.601  0.00  0.00    +0.000 N 
ATOM     10  C   UNL     1       7.172   4.668  17.933  0.00  0.00    +0.000 C 
ATOM     11  N   UNL     1       7.995   4.306  16.908  0.00  0.00    +0.000 N 
ATOM     12  O   UNL     1       7.664   5.039  18.986  0.00  0.00    +0.000 OA
ATOM     13  H   UNL     1       5.684   4.079  16.711  0.00  0.00    +0.000 HD
ATOM     14  H   UNL     1       7.716   4.552  15.968  0.00  0.00    +0.000 HD
ATOM     15  H   UNL     1       8.970   4.487  17.110  0.00  0.00    +0.000 HD
ENDBRANCH   3   9
BRANCH   6  16
ATOM     16  C   UNL     1       2.263   7.532  19.004  0.00  0.00    +0.000 A 
ATOM     17  C   UNL     1       1.910   8.366  17.938  0.00  0.00    +0.000 A 
ATOM     18  C   UNL     1       1.086   9.473  18.154  0.00  0.00    +0.000 A 
ATOM     19  C   UNL     1       0.649   9.779  19.443  0.00  0.00    +0.000 A 
ATOM     20  C   UNL     1       1.046   8.988  20.518  0.00  0.00    +0.000 A 
ATOM     21  C   UNL     1       1.844   7.866  20.299  0.00  0.00    +0.000 A 
ENDBRANCH   6  16
TORSDOF 2
ENDMDL
MODEL 5
REMARK VINA RESULT:      -6.7      0.182      1.152
REMARK  Name = 
REMARK  4 active torsions:
REMARK  status: ('A' for Active; 'I' for Inactive)
REMARK    1  A    between atoms: C_1  and  C_2
REMARK    2  A    between atoms: C_3  and  N_4
REMARK    3  A    between atoms: N_10  and  C_11
REMARK    4  A    between atoms: N_17  and  C_18
REMARK                            x       y       z     vdW  Elec       q    Type
REMARK                         _______ _______ _______ _____ _____    ______ ____
ROOT
ATOM      1  C   UNL     1       4.927   7.042  16.355  0.00  0.00    +0.000 C 
ATOM      2  C   UNL     1       4.499   5.696  16.851  0.00  0.00    +0.000 A 
ATOM      3  C   UNL     1       4.713   4.464  16.348  0.00  0.00    +0.000 A 
ATOM      4  C   UNL     1       4.205   3.512  17.400  0.00  0.00    +0.000 A 
ATOM      5  O   UNL     1       4.238   2.295  17.268  0.00  0.00    +0.000 OA
ATOM      6  N   UNL     1       3.709   4.293  18.440  0.00  0.00    +0.000 N 
ATOM      7  N   UNL     1       3.770   5.647  18.059  0.00  0.00    +0.000 N 
ATOM      8  C   UNL     1       3.955   6.646  19.115  0.00  0.00    +0.000 C 
ENDROOT
BRANCH   3   9
ATOM      9  N   UNL     1       5.260   3.919  15.215  0.00  0.00    +0.000 N 
ATOM     10  C   UNL     1       6.444   4.139  14.582  0.00  0.00    +0.000 C 
ATOM     11  N   UNL     1       6.528   3.458  13.404  0.00  0.00    +0.000 N 
ATOM     12  O   UNL     1       7.385   4.830  14.937  0.00  0.00    +0.000 OA
ATOM     13  H   UNL     1       4.679   3.195  14.799  0.00  0.00    +0.000 HD
ATOM     14  H   UNL     1       5.692   3.386  12.839  0.00  0.00    +0.000 HD
ATOM     15  H   UNL     1       7.362   3.689  12.880  0.00  0.00    +0.000 HD
ENDBRANCH   3   9
BRANCH   6  16
ATOM     16  C   UNL     1       2.879   3.828  19.478  0.00  0.00    +0.000 A 
ATOM     17  C   UNL     1       1.490   3.936  19.353  0.00  0.00    +0.000 A 
ATOM     18  C   UNL     1       0.651   3.341  20.299  0.00  0.00    +0.000 A 
ATOM     19  C   UNL     1       1.195   2.675  21.397  0.00  0.00    +0.000 A 
ATOM     20  C   UNL     1       2.577   2.615  21.560  0.00  0.00    +0.000 A 
ATOM     21  C   UNL     1       3.415   3.183  20.601  0.00  0.00    +0.000 A 
ENDBRANCH   6  16
TORSDOF 2
ENDMDL
MODEL 6
REMARK VINA RESULT:      -6.6      2.707      4.235
REMARK  Name = 
REMARK  4 active torsions:
REMARK  status: ('A' for Active; 'I' for Inactive)
REMARK    1  A    between atoms: C_1  and  C_2
REMARK    2  A    between atoms: C_3  and  N_4
REMARK    3  A    between atoms: N_10  and  C_11
REMARK    4  A    between atoms: N_17  and  C_18
REMARK                            x       y       z     vdW  Elec       q    Type
REMARK                         _______ _______ _______ _____ _____    ______ ____
ROOT
ATOM      1  C   UNL     1       3.740   2.482  19.219  0.00  0.00    +0.000 C 
ATOM      2  C   UNL     1       3.828   3.930  18.851  0.00  0.00    +0.000 A 
ATOM      3  C   UNL     1       4.747   4.600  18.128  0.00  0.00    +0.000 A 
ATOM      4  C   UNL     1       4.177   5.983  17.946  0.00  0.00    +0.000 A 
ATOM      5  O   UNL     1       4.761   6.869  17.334  0.00  0.00    +0.000 OA
ATOM      6  N   UNL     1       2.956   6.004  18.613  0.00  0.00    +0.000 N 
ATOM      7  N   UNL     1       2.785   4.777  19.283  0.00  0.00    +0.000 N 
ATOM      8  C   UNL     1       1.417   4.286  19.472  0.00  0.00    +0.000 C 
ENDROOT
BRANCH   3   9
ATOM      9  N   UNL     1       5.960   4.336  17.547  0.00  0.00    +0.000 N 
ATOM     10  C   UNL     1       7.233   4.618  17.936  0.00  0.00    +0.000 C 
ATOM     11  N   UNL     1       8.146   4.275  16.983  0.00  0.00    +0.000 N 
ATOM     12  O   UNL     1       7.624   5.106  18.983  0.00  0.00    +0.000 OA
ATOM     13  H   UNL     1       5.883   3.802  16.685  0.00  0.00    +0.000 HD
ATOM     14  H   UNL     1       7.899   4.428  16.014  0.00  0.00    +0.000 HD
ATOM     15  H   UNL     1       9.085   4.567  17.221  0.00  0.00    +0.000 HD
ENDBRANCH   3   9
BRANCH   6  16
ATOM     16  C   UNL     1       2.236   7.165  18.949  0.00  0.00    +0.000 A 
ATOM     17  C   UNL     1       1.908   7.411  20.287  0.00  0.00    +0.000 A 
ATOM     18  C   UNL     1       1.332   8.630  20.657  0.00  0.00    +0.000 A 
ATOM     19  C   UNL     1       1.040   9.590  19.687  0.00  0.00    +0.000 A 
ATOM     20  C   UNL     1       1.309   9.328  18.346  0.00  0.00    +0.000 A 
ATOM     21  C   UNL     1       1.910   8.123  17.980  0.00  0.00    +0.000 A 
ENDBRANCH   6  16
TORSDOF 2
ENDMDL
MODEL 7
REMARK VINA RESULT:      -6.6      2.205      3.157
REMARK  Name = 
REMARK  4 active torsions:
REMARK  status: ('A' for Active; 'I' for Inactive)
REMARK    1  A    between atoms: C_1  and  C_2
REMARK    2  A    between atoms: C_3  and  N_4
REMARK    3  A    between atoms: N_10  and  C_11
REMARK    4  A    between atoms: N_17  and  C_18
REMARK                            x       y       z     vdW  Elec       q    Type
REMARK                         _______ _______ _______ _____ _____    ______ ____
ROOT
ATOM      1  C   UNL     1       5.887   3.726  15.542  0.00  0.00    +0.000 C 
ATOM      2  C   UNL     1       5.281   4.327  16.771  0.00  0.00    +0.000 A 
ATOM      3  C   UNL     1       5.431   5.548  17.319  0.00  0.00    +0.000 A 
ATOM      4  C   UNL     1       4.412   5.614  18.428  0.00  0.00    +0.000 A 
ATOM      5  O   UNL     1       4.275   6.594  19.150  0.00  0.00    +0.000 OA
ATOM      6  N   UNL     1       3.757   4.386  18.442  0.00  0.00    +0.000 N 
ATOM      7  N   UNL     1       4.370   3.534  17.503  0.00  0.00    +0.000 N 
ATOM      8  C   UNL     1       3.536   2.517  16.856  0.00  0.00    +0.000 C 
ENDROOT
BRANCH   3   9
ATOM      9  N   UNL     1       6.206   6.660  17.108  0.00  0.00    +0.000 N 
ATOM     10  C   UNL     1       7.342   7.101  17.710  0.00  0.00    +0.000 C 
ATOM     11  N   UNL     1       7.712   8.334  17.261  0.00  0.00    +0.000 N 
ATOM     12  O   UNL     1       8.030   6.545  18.550  0.00  0.00    +0.000 OA
ATOM     13  H   UNL     1       5.878   7.235  16.335  0.00  0.00    +0.000 HD
ATOM     14  H   UNL     1       6.982   9.007  17.072  0.00  0.00    +0.000 HD
ATOM     15  H   UNL     1       8.502   8.712  17.770  0.00  0.00    +0.000 HD
ENDBRANCH   3   9
BRANCH   6  16
ATOM     16  C   UNL     1       2.949   3.910  19.492  0.00  0.00    +0.000 A 
ATOM     17  C   UNL     1       1.578   4.189  19.491  0.00  0.00    +0.000 A 
ATOM     18  C   UNL     1       0.739   3.596  20.437  0.00  0.00    +0.000 A 
ATOM     19  C   UNL     1       1.271   2.758  21.417  0.00  0.00    +0.000 A 
ATOM     20  C   UNL     1       2.643   2.523  21.462  0.00  0.00    +0.000 A 
ATOM     21  C   UNL     1       3.477   3.092  20.499  0.00  0.00    +0.000 A 
ENDBRANCH   6  16
TORSDOF 2
ENDMDL
MODEL 8
REMARK VINA RESULT:      -6.5      2.163      2.946
REMARK  Name = 
REMARK  4 active torsions:
REMARK  status: ('A' for Active; 'I' for Inactive)
REMARK    1  A    between atoms: C_1  and  C_2
REMARK    2  A    between atoms: C_3  and  N_4
REMARK    3  A    between atoms: N_10  and  C_11
REMARK    4  A    between atoms: N_17  and  C_18
REMARK                            x       y       z     vdW  Elec       q    Type
REMARK                         _______ _______ _______ _____ _____    ______ ____
ROOT
ATOM      1  C   UNL     1       5.935   3.752  15.489  0.00  0.00    +0.000 C 
ATOM      2  C   UNL     1       5.278   4.297  16.718  0.00  0.00    +0.000 A 
ATOM      3  C   UNL     1       5.377   5.505  17.306  0.00  0.00    +0.000 A 
ATOM      4  C   UNL     1       4.328   5.508  18.388  0.00  0.00    +0.000 A 
ATOM      5  O   UNL     1       4.142   6.461  19.134  0.00  0.00    +0.000 OA
ATOM      6  N   UNL     1       3.708   4.262  18.347  0.00  0.00    +0.000 N 
ATOM      7  N   UNL     1       4.371   3.457  17.401  0.00  0.00    +0.000 N 
ATOM      8  C   UNL     1       3.586   2.437  16.701  0.00  0.00    +0.000 C 
ENDROOT
BRANCH   3   9
ATOM      9  N   UNL     1       6.125   6.644  17.150  0.00  0.00    +0.000 N 
ATOM     10  C   UNL     1       7.272   7.066  17.747  0.00  0.00    +0.000 C 
ATOM     11  N   UNL     1       7.605   8.335  17.374  0.00  0.00    +0.000 N 
ATOM     12  O   UNL     1       7.996   6.467  18.524  0.00  0.00    +0.000 OA
ATOM     13  H   UNL     1       5.763   7.265  16.429  0.00  0.00    +0.000 HD
ATOM     14  H   UNL     1       6.857   9.004  17.253  0.00  0.00    +0.000 HD
ATOM     15  H   UNL     1       8.402   8.693  17.883  0.00  0.00    +0.000 HD
ENDBRANCH   3   9
BRANCH   6  16
ATOM     16  C   UNL     1       2.887   3.732  19.360  0.00  0.00    +0.000 A 
ATOM     17  C   UNL     1       3.460   2.977  20.389  0.00  0.00    +0.000 A 
ATOM     18  C   UNL     1       2.686   2.576  21.481  0.00  0.00    +0.000 A 
ATOM     19  C   UNL     1       1.327   2.888  21.528  0.00  0.00    +0.000 A 
ATOM     20  C   UNL     1       0.737   3.587  20.479  0.00  0.00    +0.000 A 
ATOM     21  C   UNL     1       1.515   4.013  19.402  0.00  0.00    +0.000 A 
ENDBRANCH   6  16
TORSDOF 2
ENDMDL
MODEL 9
REMARK VINA RESULT:      -6.5      1.297      1.672
REMARK  Name = 
REMARK  4 active torsions:
REMARK  status: ('A' for Active; 'I' for Inactive)
REMARK    1  A    between atoms: C_1  and  C_2
REMARK    2  A    between atoms: C_3  and  N_4
REMARK    3  A    between atoms: N_10  and  C_11
REMARK    4  A    between atoms: N_17  and  C_18
REMARK                            x       y       z     vdW  Elec       q    Type
REMARK                         _______ _______ _______ _____ _____    ______ ____
ROOT
ATOM      1  C   UNL     1       7.372   5.865  16.941  0.00  0.00    +0.000 C 
ATOM      2  C   UNL     1       6.180   4.986  17.155  0.00  0.00    +0.000 A 
ATOM      3  C   UNL     1       5.625   4.048  16.362  0.00  0.00    +0.000 A 
ATOM      4  C   UNL     1       4.577   3.378  17.214  0.00  0.00    +0.000 A 
ATOM      5  O   UNL     1       3.865   2.471  16.803  0.00  0.00    +0.000 OA
ATOM      6  N   UNL     1       4.601   4.015  18.451  0.00  0.00    +0.000 N 
ATOM      7  N   UNL     1       5.502   5.095  18.388  0.00  0.00    +0.000 N 
ATOM      8  C   UNL     1       6.195   5.480  19.621  0.00  0.00    +0.000 C 
ENDROOT
BRANCH   3   9
ATOM      9  N   UNL     1       5.792   3.581  15.084  0.00  0.00    +0.000 N 
ATOM     10  C   UNL     1       6.398   4.121  13.992  0.00  0.00    +0.000 C 
ATOM     11  N   UNL     1       6.220   3.355  12.878  0.00  0.00    +0.000 N 
ATOM     12  O   UNL     1       7.052   5.147  13.908  0.00  0.00    +0.000 OA
ATOM     13  H   UNL     1       5.418   2.645  14.948  0.00  0.00    +0.000 HD
ATOM     14  H   UNL     1       5.323   2.907  12.751  0.00  0.00    +0.000 HD
ATOM     15  H   UNL     1       6.585   3.794  12.042  0.00  0.00    +0.000 HD
ENDBRANCH   3   9
BRANCH   6  16
ATOM     16  C   UNL     1       3.599   3.912  19.434  0.00  0.00    +0.000 A 
ATOM     17  C   UNL     1       2.552   4.840  19.453  0.00  0.00    +0.000 A 
ATOM     18  C   UNL     1       1.470   4.662  20.320  0.00  0.00    +0.000 A 
ATOM     19  C   UNL     1       1.452   3.583  21.204  0.00  0.00    +0.000 A 
ATOM     20  C   UNL     1       2.519   2.689  21.233  0.00  0.00    +0.000 A 
ATOM     21  C   UNL     1       3.585   2.850  20.347  0.00  0.00    +0.000 A 
ENDBRANCH   6  16
TORSDOF 2
ENDMDL
