MODEL 1
REMARK VINA RESULT:      -7.2      0.000      0.000
REMARK  Name = 
REMARK  9 active torsions:
REMARK  status: ('A' for Active; 'I' for Inactive)
REMARK    1  A    between atoms: C_1  and  C_2
REMARK    2  A    between atoms: C_8  and  N_9
REMARK    3  A    between atoms: C_10  and  C_12
REMARK    4  A    between atoms: C_12  and  O_13
REMARK    5  A    between atoms: O_13  and  C_14
REMARK    6  A    between atoms: C_14  and  C_16
REMARK    7  A    between atoms: C_16  and  O_17
REMARK    8  A    between atoms: O_17  and  C_18
REMARK    9  A    between atoms: C_21  and  C_22
REMARK                            x       y       z     vdW  Elec       q    Type
REMARK                         _______ _______ _______ _____ _____    ______ ____
ROOT
ATOM      1  C   UNL     1       2.460   3.218  20.819  0.00  0.00    +0.000 C 
ENDROOT
BRANCH   1   3
ATOM      2  N   UNL     1       2.475   5.641  20.379  0.00  0.00    +0.000 N 
ATOM      3  C   UNL     1       1.693   4.499  20.520  0.00  0.00    +0.000 C 
ATOM      4  O   UNL     1       0.465   4.444  20.476  0.00  0.00    +0.000 OA
ATOM      5  H   UNL     1       3.479   5.526  20.481  0.00  0.00    +0.000 HD
BRANCH   2  13
ATOM      6  C   UNL     1       3.087   6.971  17.786  0.00  0.00    +0.000 C 
ATOM      7  C   UNL     1       2.266   7.597  18.883  0.00  0.00    +0.000 A 
ATOM      8  C   UNL     1       1.757   8.894  18.641  0.00  0.00    +0.000 A 
ATOM      9  C   UNL     1       0.990   9.557  19.594  0.00  0.00    +0.000 A 
ATOM     10  C   UNL     1       0.729   8.928  20.795  0.00  0.00    +0.000 A 
ATOM     11  F   UNL     1      -0.008   9.553  21.722  0.00  0.00    +0.000 F 
ATOM     12  C   UNL     1       1.216   7.653  21.057  0.00  0.00    +0.000 A 
ATOM     13  C   UNL     1       1.988   6.957  20.114  0.00  0.00    +0.000 A 
ENDBRANCH   2  13
ENDBRANCH   1   3
BRANCH   1  14
ATOM     14  O   UNL     1       2.219   2.126  19.943  0.00  0.00    +0.000 OA
BRANCH  14  15
ATOM     15  C   UNL     1       2.695   2.311  18.683  0.00  0.00    +0.000 C 
ATOM     16  O   UNL     1       1.986   2.404  17.690  0.00  0.00    +0.000 OA
BRANCH  15  17
ATOM     17  C   UNL     1       4.200   2.530  18.728  0.00  0.00    +0.000 C 
BRANCH  17  18
ATOM     18  O   UNL     1       4.537   3.894  18.581  0.00  0.00    +0.000 OA
BRANCH  18  19
ATOM     19  C   UNL     1       5.322   4.222  17.506  0.00  0.00    +0.000 A 
ATOM     20  C   UNL     1       6.661   4.619  17.549  0.00  0.00    +0.000 A 
ATOM     21  C   UNL     1       7.345   4.922  16.363  0.00  0.00    +0.000 A 
ATOM     22  C   UNL     1       6.695   4.837  15.126  0.00  0.00    +0.000 A 
ATOM     23  C   UNL     1       5.356   4.441  15.086  0.00  0.00    +0.000 A 
ATOM     24  C   UNL     1       4.678   4.138  16.272  0.00  0.00    +0.000 A 
BRANCH  22  25
ATOM     25  C   UNL     1       7.396   5.157  13.916  0.00  0.00    +0.000 C 
ATOM     26  N   UNL     1       7.959   5.419  12.931  0.00  0.00    +0.000 NA
ENDBRANCH  22  25
ENDBRANCH  18  19
ENDBRANCH  17  18
ENDBRANCH  15  17
ENDBRANCH  14  15
ENDBRANCH   1  14
TORSDOF 8
ENDMDL
MODEL 2
REMARK VINA RESULT:      -7.2      2.731      5.885
REMARK  Name = 
REMARK  9 active torsions:
REMARK  status: ('A' for Active; 'I' for Inactive)
REMARK    1  A    between atoms: C_1  and  C_2
REMARK    2  A    between atoms: C_8  and  N_9
REMARK    3  A    between atoms: C_10  and  C_12
REMARK    4  A    between atoms: C_12  and  O_13
REMARK    5  A    between atoms: O_13  and  C_14
REMARK    6  A    between atoms: C_14  and  C_16
REMARK    7  A    between atoms: C_16  and  O_17
REMARK    8  A    between atoms: O_17  and  C_18
REMARK    9  A    between atoms: C_21  and  C_22
REMARK                            x       y       z     vdW  Elec       q    Type
REMARK                         _______ _______ _______ _____ _____    ______ ____
ROOT
ATOM      1  C   UNL     1       3.222   1.960  18.155  0.00  0.00    +0.000 C 
ENDROOT
BRANCH   1   3
ATOM      2  N   UNL     1       4.753   3.836  17.706  0.00  0.00    +0.000 N 
ATOM      3  C   UNL     1       4.331   2.889  18.632  0.00  0.00    +0.000 C 
ATOM      4  O   UNL     1       4.797   2.706  19.756  0.00  0.00    +0.000 OA
ATOM      5  H   UNL     1       4.290   3.835  16.802  0.00  0.00    +0.000 HD
BRANCH   2  13
ATOM      6  C   UNL     1       5.227   5.979  15.692  0.00  0.00    +0.000 C 
ATOM      7  C   UNL     1       6.015   5.829  16.967  0.00  0.00    +0.000 A 
ATOM      8  C   UNL     1       7.033   6.781  17.206  0.00  0.00    +0.000 A 
ATOM      9  C   UNL     1       7.817   6.725  18.354  0.00  0.00    +0.000 A 
ATOM     10  C   UNL     1       7.590   5.717  19.269  0.00  0.00    +0.000 A 
ATOM     11  F   UNL     1       8.336   5.650  20.378  0.00  0.00    +0.000 F 
ATOM     12  C   UNL     1       6.595   4.769  19.058  0.00  0.00    +0.000 A 
ATOM     13  C   UNL     1       5.785   4.801  17.913  0.00  0.00    +0.000 A 
ENDBRANCH   2  13
ENDBRANCH   1   3
BRANCH   1  14
ATOM     14  O   UNL     1       1.936   2.182  18.714  0.00  0.00    +0.000 OA
BRANCH  14  15
ATOM     15  C   UNL     1       1.470   3.448  18.548  0.00  0.00    +0.000 C 
ATOM     16  O   UNL     1       1.092   3.903  17.476  0.00  0.00    +0.000 OA
BRANCH  15  17
ATOM     17  C   UNL     1       1.355   4.136  19.899  0.00  0.00    +0.000 C 
BRANCH  17  18
ATOM     18  O   UNL     1       2.410   5.053  20.114  0.00  0.00    +0.000 OA
BRANCH  18  19
ATOM     19  C   UNL     1       2.197   6.343  19.704  0.00  0.00    +0.000 A 
ATOM     20  C   UNL     1       2.562   6.891  18.471  0.00  0.00    +0.000 A 
ATOM     21  C   UNL     1       2.276   8.234  18.184  0.00  0.00    +0.000 A 
ATOM     22  C   UNL     1       1.630   9.041  19.129  0.00  0.00    +0.000 A 
ATOM     23  C   UNL     1       1.269   8.491  20.361  0.00  0.00    +0.000 A 
ATOM     24  C   UNL     1       1.554   7.150  20.642  0.00  0.00    +0.000 A 
BRANCH  22  25
ATOM     25  C   UNL     1       1.348  10.416  18.835  0.00  0.00    +0.000 C 
ATOM     26  N   UNL     1       1.123  11.534  18.601  0.00  0.00    +0.000 NA
ENDBRANCH  22  25
ENDBRANCH  18  19
ENDBRANCH  17  18
ENDBRANCH  15  17
ENDBRANCH  14  15
ENDBRANCH   1  14
TORSDOF 8
ENDMDL
MODEL 3
REMARK VINA RESULT:      -7.2      2.965      6.489
REMARK  Name = 
REMARK  9 active torsions:
REMARK  status: ('A' for Active; 'I' for Inactive)
REMARK    1  A    between atoms: C_1  and  C_2
REMARK    2  A    between atoms: C_8  and  N_9
REMARK    3  A    between atoms: C_10  and  C_12
REMARK    4  A    between atoms: C_12  and  O_13
REMARK    5  A    between atoms: O_13  and  C_14
REMARK    6  A    between atoms: C_14  and  C_16
REMARK    7  A    between atoms: C_16  and  O_17
REMARK    8  A    between atoms: O_17  and  C_18
REMARK    9  A    between atoms: C_21  and  C_22
REMARK                            x       y       z     vdW  Elec       q    Type
REMARK                         _______ _______ _______ _____ _____    ______ ____
ROOT
ATOM      1  C   UNL     1       6.094   4.238  16.511  0.00  0.00    +0.000 C 
ENDROOT
BRANCH   1   3
ATOM      2  N   UNL     1       4.037   3.654  17.733  0.00  0.00    +0.000 N 
ATOM      3  C   UNL     1       5.375   4.019  17.836  0.00  0.00    +0.000 C 
ATOM      4  O   UNL     1       5.999   4.224  18.876  0.00  0.00    +0.000 OA
ATOM      5  H   UNL     1       3.656   3.559  16.796  0.00  0.00    +0.000 HD
BRANCH   2  13
ATOM      6  C   UNL     1       1.170   4.441  17.550  0.00  0.00    +0.000 C 
ATOM      7  C   UNL     1       1.788   3.772  18.751  0.00  0.00    +0.000 A 
ATOM      8  C   UNL     1       0.932   3.504  19.844  0.00  0.00    +0.000 A 
ATOM      9  C   UNL     1       1.409   2.891  20.999  0.00  0.00    +0.000 A 
ATOM     10  C   UNL     1       2.744   2.546  21.068  0.00  0.00    +0.000 A 
ATOM     11  F   UNL     1       3.218   1.956  22.173  0.00  0.00    +0.000 F 
ATOM     12  C   UNL     1       3.605   2.798  20.007  0.00  0.00    +0.000 A 
ATOM     13  C   UNL     1       3.154   3.409  18.828  0.00  0.00    +0.000 A 
ENDBRANCH   2  13
ENDBRANCH   1   3
BRANCH   1  14
ATOM     14  O   UNL     1       5.711   5.391  15.775  0.00  0.00    +0.000 OA
BRANCH  14  15
ATOM     15  C   UNL     1       5.748   6.544  16.493  0.00  0.00    +0.000 C 
ATOM     16  O   UNL     1       6.781   7.114  16.820  0.00  0.00    +0.000 OA
BRANCH  15  17
ATOM     17  C   UNL     1       4.337   7.076  16.686  0.00  0.00    +0.000 C 
BRANCH  17  18
ATOM     18  O   UNL     1       3.788   6.673  17.925  0.00  0.00    +0.000 OA
BRANCH  18  19
ATOM     19  C   UNL     1       2.862   7.511  18.490  0.00  0.00    +0.000 A 
ATOM     20  C   UNL     1       2.288   7.375  19.758  0.00  0.00    +0.000 A 
ATOM     21  C   UNL     1       1.351   8.316  20.211  0.00  0.00    +0.000 A 
ATOM     22  C   UNL     1       0.976   9.394  19.400  0.00  0.00    +0.000 A 
ATOM     23  C   UNL     1       1.551   9.526  18.134  0.00  0.00    +0.000 A 
ATOM     24  C   UNL     1       2.487   8.587  17.687  0.00  0.00    +0.000 A 
BRANCH  22  25
ATOM     25  C   UNL     1       0.011  10.347  19.864  0.00  0.00    +0.000 C 
ATOM     26  N   UNL     1      -0.769  11.127  20.239  0.00  0.00    +0.000 NA
ENDBRANCH  22  25
ENDBRANCH  18  19
ENDBRANCH  17  18
ENDBRANCH  15  17
ENDBRANCH  14  15
ENDBRANCH   1  14
TORSDOF 8
ENDMDL
MODEL 4
REMARK VINA RESULT:      -7.1      0.830      1.062
REMARK  Name = 
REMARK  9 active torsions:
REMARK  status: ('A' for Active; 'I' for Inactive)
REMARK    1  A    between atoms: C_1  and  C_2
REMARK    2  A    between atoms: C_8  and  N_9
REMARK    3  A    between atoms: C_10  and  C_12
REMARK    4  A    between atoms: C_12  and  O_13
REMARK    5  A    between atoms: O_13  and  C_14
REMARK    6  A    between atoms: C_14  and  C_16
REMARK    7  A    between atoms: C_16  and  O_17
REMARK    8  A    between atoms: O_17  and  C_18
REMARK    9  A    between atoms: C_21  and  C_22
REMARK                            x       y       z     vdW  Elec       q    Type
REMARK                         _______ _______ _______ _____ _____    ______ ____
ROOT
ATOM      1  C   UNL     1       2.801   3.916  21.252  0.00  0.00    +0.000 C 
ENDROOT
BRANCH   1   3
ATOM      2  N   UNL     1       2.520   6.286  20.646  0.00  0.00    +0.000 N 
ATOM      3  C   UNL     1       1.918   5.034  20.713  0.00  0.00    +0.000 C 
ATOM      4  O   UNL     1       0.751   4.767  20.431  0.00  0.00    +0.000 OA
ATOM      5  H   UNL     1       3.486   6.349  20.952  0.00  0.00    +0.000 HD
BRANCH   2  13
ATOM      6  C   UNL     1       3.035   7.297  17.892  0.00  0.00    +0.000 C 
ATOM      7  C   UNL     1       2.125   7.974  18.884  0.00  0.00    +0.000 A 
ATOM      8  C   UNL     1       1.481   9.158  18.457  0.00  0.00    +0.000 A 
ATOM      9  C   UNL     1       0.624   9.857  19.301  0.00  0.00    +0.000 A 
ATOM     10  C   UNL     1       0.409   9.379  20.577  0.00  0.00    +0.000 A 
ATOM     11  F   UNL     1      -0.413  10.041  21.402  0.00  0.00    +0.000 F 
ATOM     12  C   UNL     1       1.029   8.217  21.022  0.00  0.00    +0.000 A 
ATOM     13  C   UNL     1       1.894   7.487  20.193  0.00  0.00    +0.000 A 
ENDBRANCH   2  13
ENDBRANCH   1   3
BRANCH   1  14
ATOM     14  O   UNL     1       2.823   2.715  20.494  0.00  0.00    +0.000 OA
BRANCH  14  15
ATOM     15  C   UNL     1       4.053   2.382  20.020  0.00  0.00    +0.000 C 
ATOM     16  O   UNL     1       4.912   1.816  20.684  0.00  0.00    +0.000 OA
BRANCH  15  17
ATOM     17  C   UNL     1       4.130   2.682  18.531  0.00  0.00    +0.000 C 
BRANCH  17  18
ATOM     18  O   UNL     1       4.271   4.066  18.280  0.00  0.00    +0.000 OA
BRANCH  18  19
ATOM     19  C   UNL     1       5.150   4.426  17.292  0.00  0.00    +0.000 A 
ATOM     20  C   UNL     1       6.336   5.146  17.462  0.00  0.00    +0.000 A 
ATOM     21  C   UNL     1       7.146   5.442  16.355  0.00  0.00    +0.000 A 
ATOM     22  C   UNL     1       6.774   5.026  15.071  0.00  0.00    +0.000 A 
ATOM     23  C   UNL     1       5.588   4.308  14.905  0.00  0.00    +0.000 A 
ATOM     24  C   UNL     1       4.784   4.013  16.012  0.00  0.00    +0.000 A 
BRANCH  22  25
ATOM     25  C   UNL     1       7.600   5.339  13.941  0.00  0.00    +0.000 C 
ATOM     26  N   UNL     1       8.266   5.591  13.020  0.00  0.00    +0.000 NA
ENDBRANCH  22  25
ENDBRANCH  18  19
ENDBRANCH  17  18
ENDBRANCH  15  17
ENDBRANCH  14  15
ENDBRANCH   1  14
TORSDOF 8
ENDMDL
MODEL 5
REMARK VINA RESULT:      -7.1      2.842      6.289
REMARK  Name = 
REMARK  9 active torsions:
REMARK  status: ('A' for Active; 'I' for Inactive)
REMARK    1  A    between atoms: C_1  and  C_2
REMARK    2  A    between atoms: C_8  and  N_9
REMARK    3  A    between atoms: C_10  and  C_12
REMARK    4  A    between atoms: C_12  and  O_13
REMARK    5  A    between atoms: O_13  and  C_14
REMARK    6  A    between atoms: C_14  and  C_16
REMARK    7  A    between atoms: C_16  and  O_17
REMARK    8  A    between atoms: O_17  and  C_18
REMARK    9  A    between atoms: C_21  and  C_22
REMARK                            x       y       z     vdW  Elec       q    Type
REMARK                         _______ _______ _______ _____ _____    ______ ____
ROOT
ATOM      1  C   UNL     1       3.475   1.980  20.120  0.00  0.00    +0.000 C 
ENDROOT
BRANCH   1   3
ATOM      2  N   UNL     1       4.785   3.586  18.790  0.00  0.00    +0.000 N 
ATOM      3  C   UNL     1       3.998   2.440  18.766  0.00  0.00    +0.000 C 
ATOM      4  O   UNL     1       3.656   1.810  17.766  0.00  0.00    +0.000 OA
ATOM      5  H   UNL     1       4.948   4.013  19.697  0.00  0.00    +0.000 HD
BRANCH   2  13
ATOM      6  C   UNL     1       6.974   5.575  19.145  0.00  0.00    +0.000 C 
ATOM      7  C   UNL     1       6.421   5.158  17.808  0.00  0.00    +0.000 A 
ATOM      8  C   UNL     1       6.996   5.755  16.662  0.00  0.00    +0.000 A 
ATOM      9  C   UNL     1       6.551   5.437  15.383  0.00  0.00    +0.000 A 
ATOM     10  C   UNL     1       5.527   4.523  15.241  0.00  0.00    +0.000 A 
ATOM     11  F   UNL     1       5.088   4.207  14.016  0.00  0.00    +0.000 F 
ATOM     12  C   UNL     1       4.945   3.921  16.350  0.00  0.00    +0.000 A 
ATOM     13  C   UNL     1       5.375   4.217  17.653  0.00  0.00    +0.000 A 
ENDBRANCH   2  13
ENDBRANCH   1   3
BRANCH   1  14
ATOM     14  O   UNL     1       3.292   2.994  21.097  0.00  0.00    +0.000 OA
BRANCH  14  15
ATOM     15  C   UNL     1       1.991   3.234  21.411  0.00  0.00    +0.000 C 
ATOM     16  O   UNL     1       1.360   2.599  22.246  0.00  0.00    +0.000 OA
BRANCH  15  17
ATOM     17  C   UNL     1       1.507   4.480  20.685  0.00  0.00    +0.000 C 
BRANCH  17  18
ATOM     18  O   UNL     1       2.583   5.297  20.268  0.00  0.00    +0.000 OA
BRANCH  18  19
ATOM     19  C   UNL     1       2.265   6.554  19.826  0.00  0.00    +0.000 A 
ATOM     20  C   UNL     1       2.551   7.085  18.564  0.00  0.00    +0.000 A 
ATOM     21  C   UNL     1       2.161   8.394  18.246  0.00  0.00    +0.000 A 
ATOM     22  C   UNL     1       1.488   9.184  19.185  0.00  0.00    +0.000 A 
ATOM     23  C   UNL     1       1.205   8.652  20.445  0.00  0.00    +0.000 A 
ATOM     24  C   UNL     1       1.594   7.344  20.758  0.00  0.00    +0.000 A 
BRANCH  22  25
ATOM     25  C   UNL     1       1.100  10.525  18.858  0.00  0.00    +0.000 C 
ATOM     26  N   UNL     1       0.790  11.616  18.592  0.00  0.00    +0.000 NA
ENDBRANCH  22  25
ENDBRANCH  18  19
ENDBRANCH  17  18
ENDBRANCH  15  17
ENDBRANCH  14  15
ENDBRANCH   1  14
TORSDOF 8
ENDMDL
MODEL 6
REMARK VINA RESULT:      -7.1      3.373      4.708
REMARK  Name = 
REMARK  9 active torsions:
REMARK  status: ('A' for Active; 'I' for Inactive)
REMARK    1  A    between atoms: C_1  and  C_2
REMARK    2  A    between atoms: C_8  and  N_9
REMARK    3  A    between atoms: C_10  and  C_12
REMARK    4  A    between atoms: C_12  and  O_13
REMARK    5  A    between atoms: O_13  and  C_14
REMARK    6  A    between atoms: C_14  and  C_16
REMARK    7  A    between atoms: C_16  and  O_17
REMARK    8  A    between atoms: O_17  and  C_18
REMARK    9  A    between atoms: C_21  and  C_22
REMARK                            x       y       z     vdW  Elec       q    Type
REMARK                         _______ _______ _______ _____ _____    ______ ____
ROOT
ATOM      1  C   UNL     1       6.146   5.686  19.382  0.00  0.00    +0.000 C 
ENDROOT
BRANCH   1   3
ATOM      2  N   UNL     1       3.795   5.032  19.712  0.00  0.00    +0.000 N 
ATOM      3  C   UNL     1       5.089   4.592  19.457  0.00  0.00    +0.000 C 
ATOM      4  O   UNL     1       5.454   3.423  19.340  0.00  0.00    +0.000 OA
ATOM      5  H   UNL     1       3.662   6.033  19.820  0.00  0.00    +0.000 HD
BRANCH   2  13
ATOM      6  C   UNL     1       2.178   4.323  17.313  0.00  0.00    +0.000 C 
ATOM      7  C   UNL     1       1.870   3.849  18.710  0.00  0.00    +0.000 A 
ATOM      8  C   UNL     1       0.743   3.010  18.867  0.00  0.00    +0.000 A 
ATOM      9  C   UNL     1       0.375   2.523  20.117  0.00  0.00    +0.000 A 
ATOM     10  C   UNL     1       1.131   2.873  21.218  0.00  0.00    +0.000 A 
ATOM     11  F   UNL     1       0.790   2.413  22.428  0.00  0.00    +0.000 F 
ATOM     12  C   UNL     1       2.244   3.696  21.091  0.00  0.00    +0.000 A 
ATOM     13  C   UNL     1       2.643   4.199  19.843  0.00  0.00    +0.000 A 
ENDBRANCH   2  13
ENDBRANCH   1   3
BRANCH   1  14
ATOM     14  O   UNL     1       7.488   5.250  19.221  0.00  0.00    +0.000 OA
BRANCH  14  15
ATOM     15  C   UNL     1       7.836   4.994  17.932  0.00  0.00    +0.000 C 
ATOM     16  O   UNL     1       8.460   4.003  17.576  0.00  0.00    +0.000 OA
BRANCH  15  17
ATOM     17  C   UNL     1       7.212   6.032  17.013  0.00  0.00    +0.000 C 
BRANCH  17  18
ATOM     18  O   UNL     1       7.705   5.930  15.692  0.00  0.00    +0.000 OA
BRANCH  18  19
ATOM     19  C   UNL     1       6.939   5.224  14.802  0.00  0.00    +0.000 A 
ATOM     20  C   UNL     1       5.611   4.826  14.987  0.00  0.00    +0.000 A 
ATOM     21  C   UNL     1       4.945   4.107  13.983  0.00  0.00    +0.000 A 
ATOM     22  C   UNL     1       5.601   3.777  12.791  0.00  0.00    +0.000 A 
ATOM     23  C   UNL     1       6.927   4.176  12.610  0.00  0.00    +0.000 A 
ATOM     24  C   UNL     1       7.587   4.894  13.613  0.00  0.00    +0.000 A 
BRANCH  22  25
ATOM     25  C   UNL     1       4.919   3.034  11.771  0.00  0.00    +0.000 C 
ATOM     26  N   UNL     1       4.367   2.426  10.945  0.00  0.00    +0.000 NA
ENDBRANCH  22  25
ENDBRANCH  18  19
ENDBRANCH  17  18
ENDBRANCH  15  17
ENDBRANCH  14  15
ENDBRANCH   1  14
TORSDOF 8
ENDMDL
MODEL 7
REMARK VINA RESULT:      -7.0      5.969      7.388
REMARK  Name = 
REMARK  9 active torsions:
REMARK  status: ('A' for Active; 'I' for Inactive)
REMARK    1  A    between atoms: C_1  and  C_2
REMARK    2  A    between atoms: C_8  and  N_9
REMARK    3  A    between atoms: C_10  and  C_12
REMARK    4  A    between atoms: C_12  and  O_13
REMARK    5  A    between atoms: O_13  and  C_14
REMARK    6  A    between atoms: C_14  and  C_16
REMARK    7  A    between atoms: C_16  and  O_17
REMARK    8  A    between atoms: O_17  and  C_18
REMARK    9  A    between atoms: C_21  and  C_22
REMARK                            x       y       z     vdW  Elec       q    Type
REMARK                         _______ _______ _______ _____ _____    ______ ____
ROOT
ATOM      1  C   UNL     1       6.722   6.259  16.859  0.00  0.00    +0.000 C 
ENDROOT
BRANCH   1   3
ATOM      2  N   UNL     1       4.999   5.154  18.227  0.00  0.00    +0.000 N 
ATOM      3  C   UNL     1       5.259   6.112  17.252  0.00  0.00    +0.000 C 
ATOM      4  O   UNL     1       4.426   6.796  16.659  0.00  0.00    +0.000 OA
ATOM      5  H   UNL     1       5.795   4.644  18.595  0.00  0.00    +0.000 HD
BRANCH   2  13
ATOM      6  C   UNL     1       3.515   2.799  17.166  0.00  0.00    +0.000 C 
ATOM      7  C   UNL     1       2.998   3.702  18.256  0.00  0.00    +0.000 A 
ATOM      8  C   UNL     1       1.731   3.389  18.800  0.00  0.00    +0.000 A 
ATOM      9  C   UNL     1       1.167   4.165  19.808  0.00  0.00    +0.000 A 
ATOM     10  C   UNL     1       1.866   5.259  20.277  0.00  0.00    +0.000 A 
ATOM     11  F   UNL     1       1.336   6.015  21.247  0.00  0.00    +0.000 F 
ATOM     12  C   UNL     1       3.113   5.589  19.760  0.00  0.00    +0.000 A 
ATOM     13  C   UNL     1       3.710   4.823  18.746  0.00  0.00    +0.000 A 
ENDBRANCH   2  13
ENDBRANCH   1   3
BRANCH   1  14
ATOM     14  O   UNL     1       7.254   7.575  16.907  0.00  0.00    +0.000 OA
BRANCH  14  15
ATOM     15  C   UNL     1       7.980   7.839  18.025  0.00  0.00    +0.000 C 
ATOM     16  O   UNL     1       8.300   6.992  18.850  0.00  0.00    +0.000 OA
BRANCH  15  17
ATOM     17  C   UNL     1       8.445   9.287  18.007  0.00  0.00    +0.000 C 
BRANCH  17  18
ATOM     18  O   UNL     1       9.148   9.628  19.186  0.00  0.00    +0.000 OA
BRANCH  18  19
ATOM     19  C   UNL     1       9.788  10.839  19.192  0.00  0.00    +0.000 A 
ATOM     20  C   UNL     1      10.118  11.596  20.321  0.00  0.00    +0.000 A 
ATOM     21  C   UNL     1      10.781  12.823  20.177  0.00  0.00    +0.000 A 
ATOM     22  C   UNL     1      11.114  13.307  18.906  0.00  0.00    +0.000 A 
ATOM     23  C   UNL     1      10.783  12.550  17.781  0.00  0.00    +0.000 A 
ATOM     24  C   UNL     1      10.123  11.325  17.928  0.00  0.00    +0.000 A 
BRANCH  22  25
ATOM     25  C   UNL     1      11.784  14.567  18.764  0.00  0.00    +0.000 C 
ATOM     26  N   UNL     1      12.333  15.588  18.652  0.00  0.00    +0.000 NA
ENDBRANCH  22  25
ENDBRANCH  18  19
ENDBRANCH  17  18
ENDBRANCH  15  17
ENDBRANCH  14  15
ENDBRANCH   1  14
TORSDOF 8
ENDMDL
MODEL 8
REMARK VINA RESULT:      -7.0      2.597      6.048
REMARK  Name = 
REMARK  9 active torsions:
REMARK  status: ('A' for Active; 'I' for Inactive)
REMARK    1  A    between atoms: C_1  and  C_2
REMARK    2  A    between atoms: C_8  and  N_9
REMARK    3  A    between atoms: C_10  and  C_12
REMARK    4  A    between atoms: C_12  and  O_13
REMARK    5  A    between atoms: O_13  and  C_14
REMARK    6  A    between atoms: C_14  and  C_16
REMARK    7  A    between atoms: C_16  and  O_17
REMARK    8  A    between atoms: O_17  and  C_18
REMARK    9  A    between atoms: C_21  and  C_22
REMARK                            x       y       z     vdW  Elec       q    Type
REMARK                         _______ _______ _______ _____ _____    ______ ____
ROOT
ATOM      1  C   UNL     1       2.720   1.796  18.936  0.00  0.00    +0.000 C 
ENDROOT
BRANCH   1   3
ATOM      2  N   UNL     1       4.214   3.555  18.078  0.00  0.00    +0.000 N 
ATOM      3  C   UNL     1       4.019   2.581  19.051  0.00  0.00    +0.000 C 
ATOM      4  O   UNL     1       4.807   2.272  19.944  0.00  0.00    +0.000 OA
ATOM      5  H   UNL     1       3.481   3.665  17.383  0.00  0.00    +0.000 HD
BRANCH   2  13
ATOM      6  C   UNL     1       5.232   4.354  15.395  0.00  0.00    +0.000 C 
ATOM      7  C   UNL     1       5.845   4.798  16.697  0.00  0.00    +0.000 A 
ATOM      8  C   UNL     1       6.968   5.653  16.617  0.00  0.00    +0.000 A 
ATOM      9  C   UNL     1       7.607   6.114  17.764  0.00  0.00    +0.000 A 
ATOM     10  C   UNL     1       7.127   5.722  18.998  0.00  0.00    +0.000 A 
ATOM     11  F   UNL     1       7.731   6.157  20.111  0.00  0.00    +0.000 F 
ATOM     12  C   UNL     1       6.024   4.882  19.104  0.00  0.00    +0.000 A 
ATOM     13  C   UNL     1       5.356   4.405  17.966  0.00  0.00    +0.000 A 
ENDBRANCH   2  13
ENDBRANCH   1   3
BRANCH   1  14
ATOM     14  O   UNL     1       1.552   2.446  19.416  0.00  0.00    +0.000 OA
BRANCH  14  15
ATOM     15  C   UNL     1       1.394   3.714  18.956  0.00  0.00    +0.000 C 
ATOM     16  O   UNL     1       1.101   3.992  17.799  0.00  0.00    +0.000 OA
BRANCH  15  17
ATOM     17  C   UNL     1       1.488   4.698  20.112  0.00  0.00    +0.000 C 
BRANCH  17  18
ATOM     18  O   UNL     1       2.500   5.663  19.900  0.00  0.00    +0.000 OA
BRANCH  18  19
ATOM     19  C   UNL     1       2.089   6.961  19.748  0.00  0.00    +0.000 A 
ATOM     20  C   UNL     1       1.417   7.734  20.700  0.00  0.00    +0.000 A 
ATOM     21  C   UNL     1       1.059   9.058  20.408  0.00  0.00    +0.000 A 
ATOM     22  C   UNL     1       1.366   9.619  19.162  0.00  0.00    +0.000 A 
ATOM     23  C   UNL     1       2.037   8.845  18.213  0.00  0.00    +0.000 A 
ATOM     24  C   UNL     1       2.394   7.524  18.509  0.00  0.00    +0.000 A 
BRANCH  22  25
ATOM     25  C   UNL     1       0.990  10.971  18.864  0.00  0.00    +0.000 C 
ATOM     26  N   UNL     1       0.691  12.070  18.623  0.00  0.00    +0.000 NA
ENDBRANCH  22  25
ENDBRANCH  18  19
ENDBRANCH  17  18
ENDBRANCH  15  17
ENDBRANCH  14  15
ENDBRANCH   1  14
TORSDOF 8
ENDMDL
MODEL 9
REMARK VINA RESULT:      -7.0      5.777      7.540
REMARK  Name = 
REMARK  9 active torsions:
REMARK  status: ('A' for Active; 'I' for Inactive)
REMARK    1  A    between atoms: C_1  and  C_2
REMARK    2  A    between atoms: C_8  and  N_9
REMARK    3  A    between atoms: C_10  and  C_12
REMARK    4  A    between atoms: C_12  and  O_13
REMARK    5  A    between atoms: O_13  and  C_14
REMARK    6  A    between atoms: C_14  and  C_16
REMARK    7  A    between atoms: C_16  and  O_17
REMARK    8  A    between atoms: O_17  and  C_18
REMARK    9  A    between atoms: C_21  and  C_22
REMARK                            x       y       z     vdW  Elec       q    Type
REMARK                         _______ _______ _______ _____ _____    ______ ____
ROOT
ATOM      1  C   UNL     1       8.108   7.984  17.762  0.00  0.00    +0.000 C 
ENDROOT
BRANCH   1   3
ATOM      2  N   UNL     1       9.284   9.595  19.206  0.00  0.00    +0.000 N 
ATOM      3  C   UNL     1       8.345   9.425  18.194  0.00  0.00    +0.000 C 
ATOM      4  O   UNL     1       7.669  10.307  17.668  0.00  0.00    +0.000 OA
ATOM      5  H   UNL     1       9.732   8.757  19.564  0.00  0.00    +0.000 HD
BRANCH   2  13
ATOM      6  C   UNL     1      11.032  11.480  17.702  0.00  0.00    +0.000 C 
ATOM      7  C   UNL     1      10.488  11.750  19.081  0.00  0.00    +0.000 A 
ATOM      8  C   UNL     1      10.836  12.984  19.676  0.00  0.00    +0.000 A 
ATOM      9  C   UNL     1      10.386  13.324  20.948  0.00  0.00    +0.000 A 
ATOM     10  C   UNL     1       9.587  12.431  21.633  0.00  0.00    +0.000 A 
ATOM     11  F   UNL     1       9.145  12.744  22.858  0.00  0.00    +0.000 F 
ATOM     12  C   UNL     1       9.230  11.211  21.071  0.00  0.00    +0.000 A 
ATOM     13  C   UNL     1       9.664  10.842  19.788  0.00  0.00    +0.000 A 
ENDBRANCH   2  13
ENDBRANCH   1   3
BRANCH   1  14
ATOM     14  O   UNL     1       8.255   6.995  18.770  0.00  0.00    +0.000 OA
BRANCH  14  15
ATOM     15  C   UNL     1       7.306   6.023  18.737  0.00  0.00    +0.000 C 
ATOM     16  O   UNL     1       6.933   5.396  19.720  0.00  0.00    +0.000 OA
BRANCH  15  17
ATOM     17  C   UNL     1       6.692   5.950  17.347  0.00  0.00    +0.000 C 
BRANCH  17  18
ATOM     18  O   UNL     1       5.410   6.545  17.306  0.00  0.00    +0.000 OA
BRANCH  18  19
ATOM     19  C   UNL     1       4.350   5.746  17.647  0.00  0.00    +0.000 A 
ATOM     20  C   UNL     1       3.358   6.043  18.586  0.00  0.00    +0.000 A 
ATOM     21  C   UNL     1       2.324   5.128  18.832  0.00  0.00    +0.000 A 
ATOM     22  C   UNL     1       2.277   3.908  18.148  0.00  0.00    +0.000 A 
ATOM     23  C   UNL     1       3.270   3.613  17.211  0.00  0.00    +0.000 A 
ATOM     24  C   UNL     1       4.299   4.530  16.967  0.00  0.00    +0.000 A 
BRANCH  22  25
ATOM     25  C   UNL     1       1.223   2.971  18.409  0.00  0.00    +0.000 C 
ATOM     26  N   UNL     1       0.368   2.211  18.628  0.00  0.00    +0.000 NA
ENDBRANCH  22  25
ENDBRANCH  18  19
ENDBRANCH  17  18
ENDBRANCH  15  17
ENDBRANCH  14  15
ENDBRANCH   1  14
TORSDOF 8
ENDMDL
