MODEL 1
REMARK VINA RESULT:      -7.7      0.000      0.000
REMARK  Name = 
REMARK  5 active torsions:
REMARK  status: ('A' for Active; 'I' for Inactive)
REMARK    1  A    between atoms: C_2  and  C_11
REMARK    2  A    between atoms: N_3  and  C_4
REMARK    3  A    between atoms: C_4  and  C_5
REMARK    4  A    between atoms: C_16  and  S_17
REMARK    5  A    between atoms: S_17  and  N_20
REMARK                            x       y       z     vdW  Elec       q    Type
REMARK                         _______ _______ _______ _____ _____    ______ ____
ROOT
ATOM      1  C   UNL     1       2.211   6.807  19.322  0.00  0.00    +0.000 A 
ATOM      2  C   UNL     1       1.671   6.292  20.501  0.00  0.00    +0.000 A 
ATOM      3  C   UNL     1       2.003   4.990  20.897  0.00  0.00    +0.000 A 
ATOM      4  C   UNL     1       2.902   4.221  20.145  0.00  0.00    +0.000 A 
ATOM      5 CL   UNL     1       3.294   2.655  20.767  0.00  0.00    +0.000 Cl
ATOM      6  C   UNL     1       3.437   4.742  18.967  0.00  0.00    +0.000 A 
ATOM      7  C   UNL     1       3.061   6.019  18.536  0.00  0.00    +0.000 A 
ENDROOT
BRANCH   1   9
ATOM      8  O   UNL     1       2.673   8.669  17.978  0.00  0.00    +0.000 OA
ATOM      9  C   UNL     1       1.996   8.211  18.888  0.00  0.00    +0.000 C 
ATOM     10  N   UNL     1       1.094   8.934  19.633  0.00  0.00    +0.000 N 
ATOM     11  H   UNL     1       0.672   8.523  20.454  0.00  0.00    +0.000 HD
BRANCH  10  12
ATOM     12  C   UNL     1       0.970  10.368  19.481  0.00  0.00    +0.000 C 
BRANCH  12  13
ATOM     13  C   UNL     1      -0.410  10.758  19.025  0.00  0.00    +0.000 A 
ATOM     14  C   UNL     1      -0.999  10.152  17.907  0.00  0.00    +0.000 A 
ATOM     15  C   UNL     1      -2.287  10.509  17.505  0.00  0.00    +0.000 A 
ATOM     16  C   UNL     1      -2.997  11.480  18.211  0.00  0.00    +0.000 A 
ATOM     17  C   UNL     1      -2.415  12.099  19.317  0.00  0.00    +0.000 A 
ATOM     18  C   UNL     1      -1.125  11.745  19.717  0.00  0.00    +0.000 A 
ENDBRANCH  12  13
ENDBRANCH  10  12
ENDBRANCH   1   9
BRANCH   6  19
ATOM     19  S   UNL     1       4.769   3.900  18.143  0.00  0.00    +0.000 S 
ATOM     20  O   UNL     1       5.873   3.919  19.083  0.00  0.00    +0.000 OA
ATOM     21  O   UNL     1       4.259   2.677  17.571  0.00  0.00    +0.000 OA
BRANCH  19  22
ATOM     22  N   UNL     1       5.208   4.922  16.846  0.00  0.00    +0.000 NA
ATOM     23  C   UNL     1       4.899   4.455  15.472  0.00  0.00    +0.000 C 
ATOM     24  C   UNL     1       6.233   4.017  14.901  0.00  0.00    +0.000 C 
ATOM     25  C   UNL     1       7.235   4.967  15.527  0.00  0.00    +0.000 C 
ATOM     26  C   UNL     1       6.614   5.411  16.846  0.00  0.00    +0.000 C 
ENDBRANCH  19  22
ENDBRANCH   6  19
TORSDOF 5
ENDMDL
MODEL 2
REMARK VINA RESULT:      -7.7      1.527      2.163
REMARK  Name = 
REMARK  5 active torsions:
REMARK  status: ('A' for Active; 'I' for Inactive)
REMARK    1  A    between atoms: C_2  and  C_11
REMARK    2  A    between atoms: N_3  and  C_4
REMARK    3  A    between atoms: C_4  and  C_5
REMARK    4  A    between atoms: C_16  and  S_17
REMARK    5  A    between atoms: S_17  and  N_20
REMARK                            x       y       z     vdW  Elec       q    Type
REMARK                         _______ _______ _______ _____ _____    ______ ____
ROOT
ATOM      1  C   UNL     1       2.501   7.680  18.484  0.00  0.00    +0.000 A 
ATOM      2  C   UNL     1       2.016   6.783  19.436  0.00  0.00    +0.000 A 
ATOM      3  C   UNL     1       2.743   5.619  19.717  0.00  0.00    +0.000 A 
ATOM      4  C   UNL     1       3.969   5.373  19.084  0.00  0.00    +0.000 A 
ATOM      5 CL   UNL     1       4.814   3.940  19.562  0.00  0.00    +0.000 Cl
ATOM      6  C   UNL     1       4.448   6.274  18.133  0.00  0.00    +0.000 A 
ATOM      7  C   UNL     1       3.695   7.406  17.806  0.00  0.00    +0.000 A 
ENDROOT
BRANCH   1   9
ATOM      8  O   UNL     1       2.278   9.691  17.304  0.00  0.00    +0.000 OA
ATOM      9  C   UNL     1       1.849   8.985  18.206  0.00  0.00    +0.000 C 
ATOM     10  N   UNL     1       0.846   9.348  19.074  0.00  0.00    +0.000 N 
ATOM     11  H   UNL     1       0.637   8.769  19.875  0.00  0.00    +0.000 HD
BRANCH  10  12
ATOM     12  C   UNL     1       0.296  10.686  19.073  0.00  0.00    +0.000 C 
BRANCH  12  13
ATOM     13  C   UNL     1      -1.095  10.712  18.501  0.00  0.00    +0.000 A 
ATOM     14  C   UNL     1      -2.071  11.578  19.014  0.00  0.00    +0.000 A 
ATOM     15  C   UNL     1      -3.353  11.605  18.464  0.00  0.00    +0.000 A 
ATOM     16  C   UNL     1      -3.675  10.764  17.399  0.00  0.00    +0.000 A 
ATOM     17  C   UNL     1      -2.717   9.889  16.889  0.00  0.00    +0.000 A 
ATOM     18  C   UNL     1      -1.435   9.858  17.442  0.00  0.00    +0.000 A 
ENDBRANCH  12  13
ENDBRANCH  10  12
ENDBRANCH   1   9
BRANCH   6  19
ATOM     19  S   UNL     1       6.108   6.121  17.516  0.00  0.00    +0.000 S 
ATOM     20  O   UNL     1       6.269   7.215  16.577  0.00  0.00    +0.000 OA
ATOM     21  O   UNL     1       7.001   5.922  18.633  0.00  0.00    +0.000 OA
BRANCH  19  22
ATOM     22  N   UNL     1       6.113   4.679  16.599  0.00  0.00    +0.000 NA
ATOM     23  C   UNL     1       7.314   4.396  15.775  0.00  0.00    +0.000 C 
ATOM     24  C   UNL     1       6.887   4.691  14.351  0.00  0.00    +0.000 C 
ATOM     25  C   UNL     1       5.424   4.296  14.313  0.00  0.00    +0.000 C 
ATOM     26  C   UNL     1       4.918   4.445  15.743  0.00  0.00    +0.000 C 
ENDBRANCH  19  22
ENDBRANCH   6  19
TORSDOF 5
ENDMDL
MODEL 3
REMARK VINA RESULT:      -7.7      2.453      4.343
REMARK  Name = 
REMARK  5 active torsions:
REMARK  status: ('A' for Active; 'I' for Inactive)
REMARK    1  A    between atoms: C_2  and  C_11
REMARK    2  A    between atoms: N_3  and  C_4
REMARK    3  A    between atoms: C_4  and  C_5
REMARK    4  A    between atoms: C_16  and  S_17
REMARK    5  A    between atoms: S_17  and  N_20
REMARK                            x       y       z     vdW  Elec       q    Type
REMARK                         _______ _______ _______ _____ _____    ______ ____
ROOT
ATOM      1  C   UNL     1       2.855   7.968  17.805  0.00  0.00    +0.000 A 
ATOM      2  C   UNL     1       4.136   7.969  17.250  0.00  0.00    +0.000 A 
ATOM      3  C   UNL     1       4.813   6.754  17.086  0.00  0.00    +0.000 A 
ATOM      4  C   UNL     1       4.201   5.542  17.431  0.00  0.00    +0.000 A 
ATOM      5 CL   UNL     1       5.104   4.100  17.117  0.00  0.00    +0.000 Cl
ATOM      6  C   UNL     1       2.921   5.549  17.985  0.00  0.00    +0.000 A 
ATOM      7  C   UNL     1       2.265   6.764  18.208  0.00  0.00    +0.000 A 
ENDROOT
BRANCH   1   9
ATOM      8  O   UNL     1       2.472  10.259  17.500  0.00  0.00    +0.000 OA
ATOM      9  C   UNL     1       2.028   9.198  17.914  0.00  0.00    +0.000 C 
ATOM     10  N   UNL     1       0.834   9.056  18.581  0.00  0.00    +0.000 N 
ATOM     11  H   UNL     1       0.597   8.172  19.011  0.00  0.00    +0.000 HD
BRANCH  10  12
ATOM     12  C   UNL     1       0.049  10.206  18.974  0.00  0.00    +0.000 C 
BRANCH  12  13
ATOM     13  C   UNL     1      -0.243  10.197  20.450  0.00  0.00    +0.000 A 
ATOM     14  C   UNL     1      -0.041   9.043  21.219  0.00  0.00    +0.000 A 
ATOM     15  C   UNL     1      -0.299   9.052  22.591  0.00  0.00    +0.000 A 
ATOM     16  C   UNL     1      -0.768  10.212  23.206  0.00  0.00    +0.000 A 
ATOM     17  C   UNL     1      -0.986  11.362  22.449  0.00  0.00    +0.000 A 
ATOM     18  C   UNL     1      -0.732  11.352  21.076  0.00  0.00    +0.000 A 
ENDBRANCH  12  13
ENDBRANCH  10  12
ENDBRANCH   1   9
BRANCH   6  19
ATOM     19  S   UNL     1       2.026   4.025  18.184  0.00  0.00    +0.000 S 
ATOM     20  O   UNL     1       0.971   4.069  17.190  0.00  0.00    +0.000 OA
ATOM     21  O   UNL     1       2.974   2.939  18.260  0.00  0.00    +0.000 OA
BRANCH  19  22
ATOM     22  N   UNL     1       1.271   4.148  19.712  0.00  0.00    +0.000 NA
ATOM     23  C   UNL     1       2.049   4.769  20.812  0.00  0.00    +0.000 C 
ATOM     24  C   UNL     1       2.474   3.610  21.691  0.00  0.00    +0.000 C 
ATOM     25  C   UNL     1       1.324   2.627  21.592  0.00  0.00    +0.000 C 
ATOM     26  C   UNL     1       0.665   2.896  20.244  0.00  0.00    +0.000 C 
ENDBRANCH  19  22
ENDBRANCH   6  19
TORSDOF 5
ENDMDL
MODEL 4
REMARK VINA RESULT:      -7.6      1.421      1.948
REMARK  Name = 
REMARK  5 active torsions:
REMARK  status: ('A' for Active; 'I' for Inactive)
REMARK    1  A    between atoms: C_2  and  C_11
REMARK    2  A    between atoms: N_3  and  C_4
REMARK    3  A    between atoms: C_4  and  C_5
REMARK    4  A    between atoms: C_16  and  S_17
REMARK    5  A    between atoms: S_17  and  N_20
REMARK                            x       y       z     vdW  Elec       q    Type
REMARK                         _______ _______ _______ _____ _____    ______ ____
ROOT
ATOM      1  C   UNL     1       2.240   6.761  19.401  0.00  0.00    +0.000 A 
ATOM      2  C   UNL     1       1.690   6.195  20.552  0.00  0.00    +0.000 A 
ATOM      3  C   UNL     1       2.014   4.875  20.891  0.00  0.00    +0.000 A 
ATOM      4  C   UNL     1       2.915   4.138  20.111  0.00  0.00    +0.000 A 
ATOM      5 CL   UNL     1       3.297   2.544  20.665  0.00  0.00    +0.000 Cl
ATOM      6  C   UNL     1       3.460   4.709  18.961  0.00  0.00    +0.000 A 
ATOM      7  C   UNL     1       3.092   6.006  18.586  0.00  0.00    +0.000 A 
ENDROOT
BRANCH   1   9
ATOM      8  O   UNL     1       2.694   8.670  18.122  0.00  0.00    +0.000 OA
ATOM      9  C   UNL     1       2.033   8.184  19.029  0.00  0.00    +0.000 C 
ATOM     10  N   UNL     1       1.157   8.887  19.823  0.00  0.00    +0.000 N 
ATOM     11  H   UNL     1       0.749   8.448  20.637  0.00  0.00    +0.000 HD
BRANCH  10  12
ATOM     12  C   UNL     1       1.048  10.327  19.732  0.00  0.00    +0.000 C 
BRANCH  12  13
ATOM     13  C   UNL     1       0.219  10.890  20.854  0.00  0.00    +0.000 A 
ATOM     14  C   UNL     1      -0.260  12.207  20.806  0.00  0.00    +0.000 A 
ATOM     15  C   UNL     1      -1.043  12.713  21.845  0.00  0.00    +0.000 A 
ATOM     16  C   UNL     1      -1.351  11.911  22.944  0.00  0.00    +0.000 A 
ATOM     17  C   UNL     1      -0.868  10.605  23.008  0.00  0.00    +0.000 A 
ATOM     18  C   UNL     1      -0.081  10.099  21.972  0.00  0.00    +0.000 A 
ENDBRANCH  12  13
ENDBRANCH  10  12
ENDBRANCH   1   9
BRANCH   6  19
ATOM     19  S   UNL     1       4.794   3.900  18.109  0.00  0.00    +0.000 S 
ATOM     20  O   UNL     1       5.910   3.924  19.036  0.00  0.00    +0.000 OA
ATOM     21  O   UNL     1       4.297   2.676  17.528  0.00  0.00    +0.000 OA
BRANCH  19  22
ATOM     22  N   UNL     1       5.200   4.946  16.820  0.00  0.00    +0.000 NA
ATOM     23  C   UNL     1       4.890   4.487  15.444  0.00  0.00    +0.000 C 
ATOM     24  C   UNL     1       6.229   4.085  14.857  0.00  0.00    +0.000 C 
ATOM     25  C   UNL     1       7.215   5.050  15.486  0.00  0.00    +0.000 C 
ATOM     26  C   UNL     1       6.595   5.466  16.815  0.00  0.00    +0.000 C 
ENDBRANCH  19  22
ENDBRANCH   6  19
TORSDOF 5
ENDMDL
MODEL 5
REMARK VINA RESULT:      -7.6      1.942      2.718
REMARK  Name = 
REMARK  5 active torsions:
REMARK  status: ('A' for Active; 'I' for Inactive)
REMARK    1  A    between atoms: C_2  and  C_11
REMARK    2  A    between atoms: N_3  and  C_4
REMARK    3  A    between atoms: C_4  and  C_5
REMARK    4  A    between atoms: C_16  and  S_17
REMARK    5  A    between atoms: S_17  and  N_20
REMARK                            x       y       z     vdW  Elec       q    Type
REMARK                         _______ _______ _______ _____ _____    ______ ____
ROOT
ATOM      1  C   UNL     1       2.526   7.615  18.589  0.00  0.00    +0.000 A 
ATOM      2  C   UNL     1       2.116   6.690  19.550  0.00  0.00    +0.000 A 
ATOM      3  C   UNL     1       2.885   5.540  19.769  0.00  0.00    +0.000 A 
ATOM      4  C   UNL     1       4.079   5.334  19.064  0.00  0.00    +0.000 A 
ATOM      5 CL   UNL     1       4.983   3.915  19.467  0.00  0.00    +0.000 Cl
ATOM      6  C   UNL     1       4.482   6.262  18.104  0.00  0.00    +0.000 A 
ATOM      7  C   UNL     1       3.686   7.381  17.839  0.00  0.00    +0.000 A 
ENDROOT
BRANCH   1   9
ATOM      8  O   UNL     1       2.225   9.664  17.495  0.00  0.00    +0.000 OA
ATOM      9  C   UNL     1       1.828   8.908  18.371  0.00  0.00    +0.000 C 
ATOM     10  N   UNL     1       0.824   9.202  19.263  0.00  0.00    +0.000 N 
ATOM     11  H   UNL     1       0.643   8.584  20.041  0.00  0.00    +0.000 HD
BRANCH  10  12
ATOM     12  C   UNL     1       0.231  10.520  19.322  0.00  0.00    +0.000 C 
BRANCH  12  13
ATOM     13  C   UNL     1      -0.366  10.797  20.674  0.00  0.00    +0.000 A 
ATOM     14  C   UNL     1      -1.130  11.950  20.904  0.00  0.00    +0.000 A 
ATOM     15  C   UNL     1      -1.694  12.188  22.159  0.00  0.00    +0.000 A 
ATOM     16  C   UNL     1      -1.496  11.279  23.198  0.00  0.00    +0.000 A 
ATOM     17  C   UNL     1      -0.727  10.136  22.985  0.00  0.00    +0.000 A 
ATOM     18  C   UNL     1      -0.159   9.900  21.731  0.00  0.00    +0.000 A 
ENDBRANCH  12  13
ENDBRANCH  10  12
ENDBRANCH   1   9
BRANCH   6  19
ATOM     19  S   UNL     1       6.108   6.160  17.392  0.00  0.00    +0.000 S 
ATOM     20  O   UNL     1       6.168   7.235  16.419  0.00  0.00    +0.000 OA
ATOM     21  O   UNL     1       7.072   6.027  18.458  0.00  0.00    +0.000 OA
BRANCH  19  22
ATOM     22  N   UNL     1       6.119   4.696  16.511  0.00  0.00    +0.000 NA
ATOM     23  C   UNL     1       7.310   4.411  15.673  0.00  0.00    +0.000 C 
ATOM     24  C   UNL     1       6.853   4.664  14.250  0.00  0.00    +0.000 C 
ATOM     25  C   UNL     1       5.396   4.246  14.247  0.00  0.00    +0.000 C 
ATOM     26  C   UNL     1       4.913   4.423  15.682  0.00  0.00    +0.000 C 
ENDBRANCH  19  22
ENDBRANCH   6  19
TORSDOF 5
ENDMDL
MODEL 6
REMARK VINA RESULT:      -7.5      1.078      1.503
REMARK  Name = 
REMARK  5 active torsions:
REMARK  status: ('A' for Active; 'I' for Inactive)
REMARK    1  A    between atoms: C_2  and  C_11
REMARK    2  A    between atoms: N_3  and  C_4
REMARK    3  A    between atoms: C_4  and  C_5
REMARK    4  A    between atoms: C_16  and  S_17
REMARK    5  A    between atoms: S_17  and  N_20
REMARK                            x       y       z     vdW  Elec       q    Type
REMARK                         _______ _______ _______ _____ _____    ______ ____
ROOT
ATOM      1  C   UNL     1       1.843   6.622  19.952  0.00  0.00    +0.000 A 
ATOM      2  C   UNL     1       1.086   5.742  20.726  0.00  0.00    +0.000 A 
ATOM      3  C   UNL     1       1.304   4.363  20.610  0.00  0.00    +0.000 A 
ATOM      4  C   UNL     1       2.301   3.867  19.759  0.00  0.00    +0.000 A 
ATOM      5 CL   UNL     1       2.530   2.152  19.750  0.00  0.00    +0.000 Cl
ATOM      6  C   UNL     1       3.054   4.753  18.988  0.00  0.00    +0.000 A 
ATOM      7  C   UNL     1       2.797   6.126  19.056  0.00  0.00    +0.000 A 
ENDROOT
BRANCH   1   9
ATOM      8  O   UNL     1       1.628   8.589  21.207  0.00  0.00    +0.000 OA
ATOM      9  C   UNL     1       1.749   8.098  20.093  0.00  0.00    +0.000 C 
ATOM     10  N   UNL     1       1.709   8.809  18.916  0.00  0.00    +0.000 N 
ATOM     11  H   UNL     1       1.681   8.320  18.032  0.00  0.00    +0.000 HD
BRANCH  10  12
ATOM     12  C   UNL     1       1.374  10.216  18.897  0.00  0.00    +0.000 C 
BRANCH  12  13
ATOM     13  C   UNL     1      -0.085  10.433  18.604  0.00  0.00    +0.000 A 
ATOM     14  C   UNL     1      -0.837  11.366  19.333  0.00  0.00    +0.000 A 
ATOM     15  C   UNL     1      -2.187  11.571  19.039  0.00  0.00    +0.000 A 
ATOM     16  C   UNL     1      -2.800  10.842  18.021  0.00  0.00    +0.000 A 
ATOM     17  C   UNL     1      -2.065   9.902  17.300  0.00  0.00    +0.000 A 
ATOM     18  C   UNL     1      -0.717   9.693  17.595  0.00  0.00    +0.000 A 
ENDBRANCH  12  13
ENDBRANCH  10  12
ENDBRANCH   1   9
BRANCH   6  19
ATOM     19  S   UNL     1       4.487   4.174  18.109  0.00  0.00    +0.000 S 
ATOM     20  O   UNL     1       5.463   3.859  19.135  0.00  0.00    +0.000 OA
ATOM     21  O   UNL     1       4.066   3.212  17.119  0.00  0.00    +0.000 OA
BRANCH  19  22
ATOM     22  N   UNL     1       5.077   5.541  17.270  0.00  0.00    +0.000 NA
ATOM     23  C   UNL     1       5.386   5.377  15.828  0.00  0.00    +0.000 C 
ATOM     24  C   UNL     1       6.900   5.324  15.759  0.00  0.00    +0.000 C 
ATOM     25  C   UNL     1       7.355   6.248  16.871  0.00  0.00    +0.000 C 
ATOM     26  C   UNL     1       6.228   6.246  17.897  0.00  0.00    +0.000 C 
ENDBRANCH  19  22
ENDBRANCH   6  19
TORSDOF 5
ENDMDL
MODEL 7
REMARK VINA RESULT:      -7.4      2.665      3.581
REMARK  Name = 
REMARK  5 active torsions:
REMARK  status: ('A' for Active; 'I' for Inactive)
REMARK    1  A    between atoms: C_2  and  C_11
REMARK    2  A    between atoms: N_3  and  C_4
REMARK    3  A    between atoms: C_4  and  C_5
REMARK    4  A    between atoms: C_16  and  S_17
REMARK    5  A    between atoms: S_17  and  N_20
REMARK                            x       y       z     vdW  Elec       q    Type
REMARK                         _______ _______ _______ _____ _____    ______ ____
ROOT
ATOM      1  C   UNL     1       1.465   8.846  19.185  0.00  0.00    +0.000 A 
ATOM      2  C   UNL     1       1.993   9.237  17.954  0.00  0.00    +0.000 A 
ATOM      3  C   UNL     1       2.967   8.439  17.340  0.00  0.00    +0.000 A 
ATOM      4  C   UNL     1       3.380   7.236  17.928  0.00  0.00    +0.000 A 
ATOM      5 CL   UNL     1       4.534   6.297  17.044  0.00  0.00    +0.000 Cl
ATOM      6  C   UNL     1       2.849   6.851  19.159  0.00  0.00    +0.000 A 
ATOM      7  C   UNL     1       1.921   7.676  19.805  0.00  0.00    +0.000 A 
ENDROOT
BRANCH   1   9
ATOM      8  O   UNL     1      -0.101   9.147  20.901  0.00  0.00    +0.000 OA
ATOM      9  C   UNL     1       0.356   9.576  19.851  0.00  0.00    +0.000 C 
ATOM     10  N   UNL     1      -0.146  10.655  19.162  0.00  0.00    +0.000 N 
ATOM     11  H   UNL     1       0.199  10.868  18.236  0.00  0.00    +0.000 HD
BRANCH  10  12
ATOM     12  C   UNL     1      -1.375  11.303  19.568  0.00  0.00    +0.000 C 
BRANCH  12  13
ATOM     13  C   UNL     1      -2.417  11.240  18.485  0.00  0.00    +0.000 A 
ATOM     14  C   UNL     1      -2.135  10.646  17.246  0.00  0.00    +0.000 A 
ATOM     15  C   UNL     1      -3.116  10.578  16.255  0.00  0.00    +0.000 A 
ATOM     16  C   UNL     1      -4.385  11.108  16.489  0.00  0.00    +0.000 A 
ATOM     17  C   UNL     1      -4.671  11.712  17.712  0.00  0.00    +0.000 A 
ATOM     18  C   UNL     1      -3.690  11.785  18.702  0.00  0.00    +0.000 A 
ENDBRANCH  12  13
ENDBRANCH  10  12
ENDBRANCH   1   9
BRANCH   6  19
ATOM     19  S   UNL     1       3.155   5.219  19.792  0.00  0.00    +0.000 S 
ATOM     20  O   UNL     1       4.597   5.125  19.924  0.00  0.00    +0.000 OA
ATOM     21  O   UNL     1       2.260   4.976  20.898  0.00  0.00    +0.000 OA
BRANCH  19  22
ATOM     22  N   UNL     1       2.704   4.159  18.530  0.00  0.00    +0.000 NA
ATOM     23  C   UNL     1       1.351   3.553  18.597  0.00  0.00    +0.000 C 
ATOM     24  C   UNL     1       1.588   2.118  19.022  0.00  0.00    +0.000 C 
ATOM     25  C   UNL     1       2.913   1.754  18.380  0.00  0.00    +0.000 C 
ATOM     26  C   UNL     1       3.668   3.068  18.218  0.00  0.00    +0.000 C 
ENDBRANCH  19  22
ENDBRANCH   6  19
TORSDOF 5
ENDMDL
MODEL 8
REMARK VINA RESULT:      -7.3      4.442      9.051
REMARK  Name = 
REMARK  5 active torsions:
REMARK  status: ('A' for Active; 'I' for Inactive)
REMARK    1  A    between atoms: C_2  and  C_11
REMARK    2  A    between atoms: N_3  and  C_4
REMARK    3  A    between atoms: C_4  and  C_5
REMARK    4  A    between atoms: C_16  and  S_17
REMARK    5  A    between atoms: S_17  and  N_20
REMARK                            x       y       z     vdW  Elec       q    Type
REMARK                         _______ _______ _______ _____ _____    ______ ____
ROOT
ATOM      1  C   UNL     1       0.541   9.913  18.846  0.00  0.00    +0.000 A 
ATOM      2  C   UNL     1      -0.686   9.917  18.182  0.00  0.00    +0.000 A 
ATOM      3  C   UNL     1      -1.656  10.863  18.538  0.00  0.00    +0.000 A 
ATOM      4  C   UNL     1      -1.388  11.828  19.519  0.00  0.00    +0.000 A 
ATOM      5 CL   UNL     1      -2.632  12.990  19.825  0.00  0.00    +0.000 Cl
ATOM      6  C   UNL     1      -0.159  11.817  20.180  0.00  0.00    +0.000 A 
ATOM      7  C   UNL     1       0.789  10.836  19.870  0.00  0.00    +0.000 A 
ENDROOT
BRANCH   1   9
ATOM      8  O   UNL     1       2.191   9.156  17.366  0.00  0.00    +0.000 OA
ATOM      9  C   UNL     1       1.660   9.016  18.459  0.00  0.00    +0.000 C 
ATOM     10  N   UNL     1       1.952   8.008  19.348  0.00  0.00    +0.000 N 
ATOM     11  H   UNL     1       1.380   7.878  20.170  0.00  0.00    +0.000 HD
BRANCH  10  12
ATOM     12  C   UNL     1       2.842   6.924  18.991  0.00  0.00    +0.000 C 
BRANCH  12  13
ATOM     13  C   UNL     1       2.181   5.585  19.172  0.00  0.00    +0.000 A 
ATOM     14  C   UNL     1       1.961   4.735  18.079  0.00  0.00    +0.000 A 
ATOM     15  C   UNL     1       1.363   3.487  18.263  0.00  0.00    +0.000 A 
ATOM     16  C   UNL     1       0.973   3.079  19.538  0.00  0.00    +0.000 A 
ATOM     17  C   UNL     1       1.174   3.922  20.630  0.00  0.00    +0.000 A 
ATOM     18  C   UNL     1       1.768   5.172  20.447  0.00  0.00    +0.000 A 
ENDBRANCH  12  13
ENDBRANCH  10  12
ENDBRANCH   1   9
BRANCH   6  19
ATOM     19  S   UNL     1       0.302  13.176  21.229  0.00  0.00    +0.000 S 
ATOM     20  O   UNL     1       1.745  13.093  21.349  0.00  0.00    +0.000 OA
ATOM     21  O   UNL     1      -0.370  14.366  20.766  0.00  0.00    +0.000 OA
BRANCH  19  22
ATOM     22  N   UNL     1      -0.344  12.792  22.764  0.00  0.00    +0.000 NA
ATOM     23  C   UNL     1      -1.084  11.513  22.895  0.00  0.00    +0.000 C 
ATOM     24  C   UNL     1      -2.545  11.913  22.952  0.00  0.00    +0.000 C 
ATOM     25  C   UNL     1      -2.537  13.244  23.678  0.00  0.00    +0.000 C 
ATOM     26  C   UNL     1      -1.166  13.852  23.411  0.00  0.00    +0.000 C 
ENDBRANCH  19  22
ENDBRANCH   6  19
TORSDOF 5
ENDMDL
MODEL 9
REMARK VINA RESULT:      -7.3      2.025      3.902
REMARK  Name = 
REMARK  5 active torsions:
REMARK  status: ('A' for Active; 'I' for Inactive)
REMARK    1  A    between atoms: C_2  and  C_11
REMARK    2  A    between atoms: N_3  and  C_4
REMARK    3  A    between atoms: C_4  and  C_5
REMARK    4  A    between atoms: C_16  and  S_17
REMARK    5  A    between atoms: S_17  and  N_20
REMARK                            x       y       z     vdW  Elec       q    Type
REMARK                         _______ _______ _______ _____ _____    ______ ____
ROOT
ATOM      1  C   UNL     1       3.155   7.725  17.695  0.00  0.00    +0.000 A 
ATOM      2  C   UNL     1       4.237   7.774  16.815  0.00  0.00    +0.000 A 
ATOM      3  C   UNL     1       4.885   6.586  16.456  0.00  0.00    +0.000 A 
ATOM      4  C   UNL     1       4.430   5.350  16.937  0.00  0.00    +0.000 A 
ATOM      5 CL   UNL     1       5.262   3.943  16.370  0.00  0.00    +0.000 Cl
ATOM      6  C   UNL     1       3.349   5.308  17.817  0.00  0.00    +0.000 A 
ATOM      7  C   UNL     1       2.737   6.498  18.226  0.00  0.00    +0.000 A 
ENDROOT
BRANCH   1   9
ATOM      8  O   UNL     1       2.593   9.990  17.498  0.00  0.00    +0.000 OA
ATOM      9  C   UNL     1       2.348   8.922  18.042  0.00  0.00    +0.000 C 
ATOM     10  N   UNL     1       1.426   8.750  19.048  0.00  0.00    +0.000 N 
ATOM     11  H   UNL     1       1.374   7.869  19.540  0.00  0.00    +0.000 HD
BRANCH  10  12
ATOM     12  C   UNL     1       0.750   9.878  19.652  0.00  0.00    +0.000 C 
BRANCH  12  13
ATOM     13  C   UNL     1      -0.457  10.290  18.856  0.00  0.00    +0.000 A 
ATOM     14  C   UNL     1      -0.866   9.557  17.732  0.00  0.00    +0.000 A 
ATOM     15  C   UNL     1      -1.998   9.940  17.012  0.00  0.00    +0.000 A 
ATOM     16  C   UNL     1      -2.731  11.060  17.402  0.00  0.00    +0.000 A 
ATOM     17  C   UNL     1      -2.326  11.804  18.510  0.00  0.00    +0.000 A 
ATOM     18  C   UNL     1      -1.191  11.425  19.229  0.00  0.00    +0.000 A 
ENDBRANCH  12  13
ENDBRANCH  10  12
ENDBRANCH   1   9
BRANCH   6  19
ATOM     19  S   UNL     1       2.594   3.752  18.229  0.00  0.00    +0.000 S 
ATOM     20  O   UNL     1       1.677   3.472  17.141  0.00  0.00    +0.000 OA
ATOM     21  O   UNL     1       3.628   2.827  18.627  0.00  0.00    +0.000 OA
BRANCH  19  22
ATOM     22  N   UNL     1       1.638   4.072  19.610  0.00  0.00    +0.000 NA
ATOM     23  C   UNL     1       2.325   4.622  20.804  0.00  0.00    +0.000 C 
ATOM     24  C   UNL     1       2.415   3.458  21.771  0.00  0.00    +0.000 C 
ATOM     25  C   UNL     1       1.150   2.663  21.514  0.00  0.00    +0.000 C 
ATOM     26  C   UNL     1       0.763   2.959  20.070  0.00  0.00    +0.000 C 
ENDBRANCH  19  22
ENDBRANCH   6  19
TORSDOF 5
ENDMDL
