MODEL 1
REMARK VINA RESULT:      -5.9      0.000      0.000
REMARK  Name = 
REMARK  6 active torsions:
REMARK  status: ('A' for Active; 'I' for Inactive)
REMARK    1  A    between atoms: C_1  and  S_2
REMARK    2  A    between atoms: S_2  and  C_3
REMARK    3  A    between atoms: N_5  and  C_6
REMARK    4  A    between atoms: C_10  and  C_11
REMARK    5  A    between atoms: C_18  and  N_19
REMARK    6  A    between atoms: C_20  and  C_21
REMARK                            x       y       z     vdW  Elec       q    Type
REMARK                         _______ _______ _______ _____ _____    ______ ____
ROOT
ATOM      1  C   UNL     1      -5.504  13.202  22.804  0.00  0.00    +0.000 A 
ATOM      2  N   UNL     1      -5.419  12.378  21.764  0.00  0.00    +0.000 NA
ATOM      3  N   UNL     1      -4.709  13.053  20.829  0.00  0.00    +0.000 N 
ATOM      4  C   UNL     1      -4.376  14.341  21.280  0.00  0.00    +0.000 A 
ATOM      5  C   UNL     1      -4.826  14.435  22.595  0.00  0.00    +0.000 A 
ENDROOT
BRANCH   3   6
ATOM      6  C   UNL     1      -4.382  12.415  19.589  0.00  0.00    +0.000 A 
ATOM      7  C   UNL     1      -3.064  11.972  19.339  0.00  0.00    +0.000 A 
ATOM      8 CL   UNL     1      -1.774  12.013  20.500  0.00  0.00    +0.000 Cl
ATOM      9  C   UNL     1      -2.730  11.358  18.118  0.00  0.00    +0.000 A 
ATOM     10  C   UNL     1      -3.687  11.149  17.125  0.00  0.00    +0.000 A 
ATOM     11  C   UNL     1      -4.994  11.579  17.369  0.00  0.00    +0.000 A 
ATOM     12  C   UNL     1      -5.335  12.235  18.565  0.00  0.00    +0.000 A 
ATOM     13 CL   UNL     1      -6.925  12.924  18.555  0.00  0.00    +0.000 Cl
BRANCH  10  14
ATOM     14  C   UNL     1      -3.344  10.509  15.802  0.00  0.00    +0.000 C 
ATOM     15  F   UNL     1      -4.434  10.215  15.042  0.00  0.00    +0.000 F 
ATOM     16  F   UNL     1      -2.552  11.305  15.034  0.00  0.00    +0.000 F 
ATOM     17  F   UNL     1      -2.666   9.341  15.956  0.00  0.00    +0.000 F 
ENDBRANCH  10  14
ENDBRANCH   3   6
BRANCH   5  18
ATOM     18  C   UNL     1      -4.648  15.598  23.469  0.00  0.00    +0.000 A 
ATOM     19  C   UNL     1      -3.521  15.742  24.284  0.00  0.00    +0.000 A 
ATOM     20  C   UNL     1      -3.423  16.846  25.119  0.00  0.00    +0.000 A 
ATOM     21  N   UNL     1      -4.337  17.833  25.166  0.00  0.00    +0.000 NA
ATOM     22  C   UNL     1      -5.402  17.704  24.351  0.00  0.00    +0.000 A 
ATOM     23  C   UNL     1      -5.610  16.613  23.520  0.00  0.00    +0.000 A 
ENDBRANCH   5  18
BRANCH   4  24
ATOM     24  N   UNL     1      -3.768  15.287  20.503  0.00  0.00    +0.000 N 
ATOM     25  H   UNL     1      -3.741  15.184  19.492  0.00  0.00    +0.000 HD
ATOM     26  H   UNL     1      -2.873  15.660  20.826  0.00  0.00    +0.000 HD
ENDBRANCH   4  24
BRANCH   1  28
ATOM     27  C   UNL     1      -7.913  13.710  24.126  0.00  0.00    +0.000 C 
ATOM     28  S   UNL     1      -6.393  12.753  24.251  0.00  0.00    +0.000 S 
ENDBRANCH   1  28
TORSDOF 5
ENDMDL
MODEL 2
REMARK VINA RESULT:      -5.8      1.060      1.283
REMARK  Name = 
REMARK  6 active torsions:
REMARK  status: ('A' for Active; 'I' for Inactive)
REMARK    1  A    between atoms: C_1  and  S_2
REMARK    2  A    between atoms: S_2  and  C_3
REMARK    3  A    between atoms: N_5  and  C_6
REMARK    4  A    between atoms: C_10  and  C_11
REMARK    5  A    between atoms: C_18  and  N_19
REMARK    6  A    between atoms: C_20  and  C_21
REMARK                            x       y       z     vdW  Elec       q    Type
REMARK                         _______ _______ _______ _____ _____    ______ ____
ROOT
ATOM      1  C   UNL     1      -5.754  13.115  22.483  0.00  0.00    +0.000 A 
ATOM      2  N   UNL     1      -5.443  12.229  21.541  0.00  0.00    +0.000 NA
ATOM      3  N   UNL     1      -5.157  12.962  20.439  0.00  0.00    +0.000 N 
ATOM      4  C   UNL     1      -5.330  14.334  20.686  0.00  0.00    +0.000 A 
ATOM      5  C   UNL     1      -5.653  14.462  22.035  0.00  0.00    +0.000 A 
ENDROOT
BRANCH   3   6
ATOM      6  C   UNL     1      -4.719  12.305  19.244  0.00  0.00    +0.000 A 
ATOM      7  C   UNL     1      -3.354  11.993  19.059  0.00  0.00    +0.000 A 
ATOM      8 CL   UNL     1      -2.119  12.224  20.257  0.00  0.00    +0.000 Cl
ATOM      9  C   UNL     1      -2.912  11.362  17.882  0.00  0.00    +0.000 A 
ATOM     10  C   UNL     1      -3.805  11.007  16.870  0.00  0.00    +0.000 A 
ATOM     11  C   UNL     1      -5.158  11.307  17.050  0.00  0.00    +0.000 A 
ATOM     12  C   UNL     1      -5.609  11.978  18.200  0.00  0.00    +0.000 A 
ATOM     13 CL   UNL     1      -7.261  12.494  18.105  0.00  0.00    +0.000 Cl
BRANCH  10  14
ATOM     14  C   UNL     1      -3.348  10.346  15.592  0.00  0.00    +0.000 C 
ATOM     15  F   UNL     1      -4.352  10.142  14.697  0.00  0.00    +0.000 F 
ATOM     16  F   UNL     1      -2.404  11.079  14.942  0.00  0.00    +0.000 F 
ATOM     17  F   UNL     1      -2.789   9.127  15.815  0.00  0.00    +0.000 F 
ENDBRANCH  10  14
ENDBRANCH   3   6
BRANCH   5  18
ATOM     18  C   UNL     1      -5.877  15.730  22.735  0.00  0.00    +0.000 A 
ATOM     19  C   UNL     1      -4.887  16.319  23.528  0.00  0.00    +0.000 A 
ATOM     20  C   UNL     1      -5.167  17.501  24.197  0.00  0.00    +0.000 A 
ATOM     21  N   UNL     1      -6.338  18.159  24.098  0.00  0.00    +0.000 NA
ATOM     22  C   UNL     1      -7.273  17.603  23.303  0.00  0.00    +0.000 A 
ATOM     23  C   UNL     1      -7.101  16.400  22.635  0.00  0.00    +0.000 A 
ENDBRANCH   5  18
BRANCH   4  24
ATOM     24  N   UNL     1      -5.230  15.300  19.724  0.00  0.00    +0.000 N 
ATOM     25  H   UNL     1      -6.021  15.905  19.518  0.00  0.00    +0.000 HD
ATOM     26  H   UNL     1      -4.762  15.051  18.851  0.00  0.00    +0.000 HD
ENDBRANCH   4  24
BRANCH   1  28
ATOM     27  C   UNL     1      -4.685  12.380  24.957  0.00  0.00    +0.000 C 
ATOM     28  S   UNL     1      -6.246  12.602  24.089  0.00  0.00    +0.000 S 
ENDBRANCH   1  28
TORSDOF 5
ENDMDL
MODEL 3
REMARK VINA RESULT:      -5.8      0.539      2.182
REMARK  Name = 
REMARK  6 active torsions:
REMARK  status: ('A' for Active; 'I' for Inactive)
REMARK    1  A    between atoms: C_1  and  S_2
REMARK    2  A    between atoms: S_2  and  C_3
REMARK    3  A    between atoms: N_5  and  C_6
REMARK    4  A    between atoms: C_10  and  C_11
REMARK    5  A    between atoms: C_18  and  N_19
REMARK    6  A    between atoms: C_20  and  C_21
REMARK                            x       y       z     vdW  Elec       q    Type
REMARK                         _______ _______ _______ _____ _____    ______ ____
ROOT
ATOM      1  C   UNL     1      -5.475  13.077  22.668  0.00  0.00    +0.000 A 
ATOM      2  N   UNL     1      -5.339  12.265  21.624  0.00  0.00    +0.000 NA
ATOM      3  N   UNL     1      -4.534  12.925  20.758  0.00  0.00    +0.000 N 
ATOM      4  C   UNL     1      -4.190  14.194  21.256  0.00  0.00    +0.000 A 
ATOM      5  C   UNL     1      -4.737  14.286  22.533  0.00  0.00    +0.000 A 
ENDROOT
BRANCH   3   6
ATOM      6  C   UNL     1      -4.135  12.293  19.537  0.00  0.00    +0.000 A 
ATOM      7  C   UNL     1      -5.089  12.003  18.537  0.00  0.00    +0.000 A 
ATOM      8 CL   UNL     1      -6.757  12.483  18.598  0.00  0.00    +0.000 Cl
ATOM      9  C   UNL     1      -4.710  11.368  17.341  0.00  0.00    +0.000 A 
ATOM     10  C   UNL     1      -3.381  11.022  17.093  0.00  0.00    +0.000 A 
ATOM     11  C   UNL     1      -2.431  11.312  18.076  0.00  0.00    +0.000 A 
ATOM     12  C   UNL     1      -2.801  11.905  19.295  0.00  0.00    +0.000 A 
ATOM     13 CL   UNL     1      -1.530  11.929  20.474  0.00  0.00    +0.000 Cl
BRANCH  10  14
ATOM     14  C   UNL     1      -2.957  10.324  15.823  0.00  0.00    +0.000 C 
ATOM     15  F   UNL     1      -2.624  11.179  14.818  0.00  0.00    +0.000 F 
ATOM     16  F   UNL     1      -1.873   9.523  16.013  0.00  0.00    +0.000 F 
ATOM     17  F   UNL     1      -3.935   9.521  15.327  0.00  0.00    +0.000 F 
ENDBRANCH  10  14
ENDBRANCH   3   6
BRANCH   5  18
ATOM     18  C   UNL     1      -4.586  15.429  23.438  0.00  0.00    +0.000 A 
ATOM     19  C   UNL     1      -5.621  16.345  23.647  0.00  0.00    +0.000 A 
ATOM     20  C   UNL     1      -5.409  17.430  24.486  0.00  0.00    +0.000 A 
ATOM     21  N   UNL     1      -4.264  17.641  25.162  0.00  0.00    +0.000 NA
ATOM     22  C   UNL     1      -3.285  16.734  24.982  0.00  0.00    +0.000 A 
ATOM     23  C   UNL     1      -3.387  15.647  24.127  0.00  0.00    +0.000 A 
ENDBRANCH   5  18
BRANCH   4  24
ATOM     24  N   UNL     1      -3.488  15.127  20.545  0.00  0.00    +0.000 N 
ATOM     25  H   UNL     1      -2.473  15.090  20.508  0.00  0.00    +0.000 HD
ATOM     26  H   UNL     1      -3.786  16.101  20.621  0.00  0.00    +0.000 HD
ENDBRANCH   4  24
BRANCH   1  28
ATOM     27  C   UNL     1      -7.917  11.856  23.264  0.00  0.00    +0.000 C 
ATOM     28  S   UNL     1      -6.491  12.642  24.034  0.00  0.00    +0.000 S 
ENDBRANCH   1  28
TORSDOF 5
ENDMDL
MODEL 4
REMARK VINA RESULT:      -5.7      4.731      7.910
REMARK  Name = 
REMARK  6 active torsions:
REMARK  status: ('A' for Active; 'I' for Inactive)
REMARK    1  A    between atoms: C_1  and  S_2
REMARK    2  A    between atoms: S_2  and  C_3
REMARK    3  A    between atoms: N_5  and  C_6
REMARK    4  A    between atoms: C_10  and  C_11
REMARK    5  A    between atoms: C_18  and  N_19
REMARK    6  A    between atoms: C_20  and  C_21
REMARK                            x       y       z     vdW  Elec       q    Type
REMARK                         _______ _______ _______ _____ _____    ______ ____
ROOT
ATOM      1  C   UNL     1      -5.582  11.618  19.551  0.00  0.00    +0.000 A 
ATOM      2  N   UNL     1      -5.736  12.389  20.623  0.00  0.00    +0.000 NA
ATOM      3  N   UNL     1      -4.575  13.077  20.739  0.00  0.00    +0.000 N 
ATOM      4  C   UNL     1      -3.662  12.700  19.740  0.00  0.00    +0.000 A 
ATOM      5  C   UNL     1      -4.324  11.798  18.911  0.00  0.00    +0.000 A 
ENDROOT
BRANCH   3   6
ATOM      6  C   UNL     1      -4.431  14.056  21.775  0.00  0.00    +0.000 A 
ATOM      7  C   UNL     1      -4.802  15.400  21.545  0.00  0.00    +0.000 A 
ATOM      8 CL   UNL     1      -5.574  15.975  20.101  0.00  0.00    +0.000 Cl
ATOM      9  C   UNL     1      -4.649  16.371  22.551  0.00  0.00    +0.000 A 
ATOM     10  C   UNL     1      -4.147  16.040  23.810  0.00  0.00    +0.000 A 
ATOM     11  C   UNL     1      -3.785  14.710  24.045  0.00  0.00    +0.000 A 
ATOM     12  C   UNL     1      -3.888  13.737  23.037  0.00  0.00    +0.000 A 
ATOM     13 CL   UNL     1      -3.138  12.228  23.443  0.00  0.00    +0.000 Cl
BRANCH  10  14
ATOM     14  C   UNL     1      -3.959  17.071  24.896  0.00  0.00    +0.000 C 
ATOM     15  F   UNL     1      -5.088  17.315  25.615  0.00  0.00    +0.000 F 
ATOM     16  F   UNL     1      -3.009  16.703  25.798  0.00  0.00    +0.000 F 
ATOM     17  F   UNL     1      -3.562  18.273  24.400  0.00  0.00    +0.000 F 
ENDBRANCH  10  14
ENDBRANCH   3   6
BRANCH   5  18
ATOM     18  C   UNL     1      -3.757  11.181  17.708  0.00  0.00    +0.000 A 
ATOM     19  C   UNL     1      -4.231  11.488  16.429  0.00  0.00    +0.000 A 
ATOM     20  C   UNL     1      -3.682  10.845  15.329  0.00  0.00    +0.000 A 
ATOM     21  N   UNL     1      -2.670   9.960  15.406  0.00  0.00    +0.000 NA
ATOM     22  C   UNL     1      -2.196   9.697  16.640  0.00  0.00    +0.000 A 
ATOM     23  C   UNL     1      -2.714  10.252  17.800  0.00  0.00    +0.000 A 
ENDBRANCH   5  18
BRANCH   4  24
ATOM     24  N   UNL     1      -2.369  13.140  19.684  0.00  0.00    +0.000 N 
ATOM     25  H   UNL     1      -1.761  13.058  20.495  0.00  0.00    +0.000 HD
ATOM     26  H   UNL     1      -2.194  14.034  19.222  0.00  0.00    +0.000 HD
ENDBRANCH   4  24
BRANCH   1  28
ATOM     27  C   UNL     1      -7.686  10.095  20.580  0.00  0.00    +0.000 C 
ATOM     28  S   UNL     1      -6.841  10.502  19.044  0.00  0.00    +0.000 S 
ENDBRANCH   1  28
TORSDOF 5
ENDMDL
MODEL 5
REMARK VINA RESULT:      -5.7      4.764      7.854
REMARK  Name = 
REMARK  6 active torsions:
REMARK  status: ('A' for Active; 'I' for Inactive)
REMARK    1  A    between atoms: C_1  and  S_2
REMARK    2  A    between atoms: S_2  and  C_3
REMARK    3  A    between atoms: N_5  and  C_6
REMARK    4  A    between atoms: C_10  and  C_11
REMARK    5  A    between atoms: C_18  and  N_19
REMARK    6  A    between atoms: C_20  and  C_21
REMARK                            x       y       z     vdW  Elec       q    Type
REMARK                         _______ _______ _______ _____ _____    ______ ____
ROOT
ATOM      1  C   UNL     1      -5.612  11.717  19.645  0.00  0.00    +0.000 A 
ATOM      2  N   UNL     1      -5.776  12.512  20.698  0.00  0.00    +0.000 NA
ATOM      3  N   UNL     1      -4.611  13.193  20.819  0.00  0.00    +0.000 N 
ATOM      4  C   UNL     1      -3.685  12.787  19.843  0.00  0.00    +0.000 A 
ATOM      5  C   UNL     1      -4.342  11.873  19.022  0.00  0.00    +0.000 A 
ENDROOT
BRANCH   3   6
ATOM      6  C   UNL     1      -4.476  14.191  21.837  0.00  0.00    +0.000 A 
ATOM      7  C   UNL     1      -4.776  15.543  21.556  0.00  0.00    +0.000 A 
ATOM      8 CL   UNL     1      -5.450  16.113  20.061  0.00  0.00    +0.000 Cl
ATOM      9  C   UNL     1      -4.630  16.533  22.544  0.00  0.00    +0.000 A 
ATOM     10  C   UNL     1      -4.206  16.214  23.834  0.00  0.00    +0.000 A 
ATOM     11  C   UNL     1      -3.914  14.878  24.120  0.00  0.00    +0.000 A 
ATOM     12  C   UNL     1      -4.010  13.883  23.132  0.00  0.00    +0.000 A 
ATOM     13 CL   UNL     1      -3.347  12.355  23.612  0.00  0.00    +0.000 Cl
BRANCH  10  14
ATOM     14  C   UNL     1      -4.026  17.265  24.903  0.00  0.00    +0.000 C 
ATOM     15  F   UNL     1      -3.761  18.504  24.407  0.00  0.00    +0.000 F 
ATOM     16  F   UNL     1      -5.132  17.399  25.685  0.00  0.00    +0.000 F 
ATOM     17  F   UNL     1      -3.002  16.970  25.747  0.00  0.00    +0.000 F 
ENDBRANCH  10  14
ENDBRANCH   3   6
BRANCH   5  18
ATOM     18  C   UNL     1      -3.760  11.226  17.842  0.00  0.00    +0.000 A 
ATOM     19  C   UNL     1      -2.686  10.337  17.944  0.00  0.00    +0.000 A 
ATOM     20  C   UNL     1      -2.152   9.783  16.790  0.00  0.00    +0.000 A 
ATOM     21  N   UNL     1      -2.635  10.013  15.555  0.00  0.00    +0.000 NA
ATOM     22  C   UNL     1      -3.693  10.843  15.470  0.00  0.00    +0.000 A 
ATOM     23  C   UNL     1      -4.262  11.482  16.561  0.00  0.00    +0.000 A 
ENDBRANCH   5  18
BRANCH   4  24
ATOM     24  N   UNL     1      -2.388  13.214  19.799  0.00  0.00    +0.000 N 
ATOM     25  H   UNL     1      -1.695  12.703  19.258  0.00  0.00    +0.000 HD
ATOM     26  H   UNL     1      -1.964  13.530  20.674  0.00  0.00    +0.000 HD
ENDBRANCH   4  24
BRANCH   1  28
ATOM     27  C   UNL     1      -7.702  10.180  20.680  0.00  0.00    +0.000 C 
ATOM     28  S   UNL     1      -6.872  10.602  19.140  0.00  0.00    +0.000 S 
ENDBRANCH   1  28
TORSDOF 5
ENDMDL
MODEL 6
REMARK VINA RESULT:      -5.7      7.422     10.540
REMARK  Name = 
REMARK  6 active torsions:
REMARK  status: ('A' for Active; 'I' for Inactive)
REMARK    1  A    between atoms: C_1  and  S_2
REMARK    2  A    between atoms: S_2  and  C_3
REMARK    3  A    between atoms: N_5  and  C_6
REMARK    4  A    between atoms: C_10  and  C_11
REMARK    5  A    between atoms: C_18  and  N_19
REMARK    6  A    between atoms: C_20  and  C_21
REMARK                            x       y       z     vdW  Elec       q    Type
REMARK                         _______ _______ _______ _____ _____    ______ ____
ROOT
ATOM      1  C   UNL     1       2.072   6.330  20.070  0.00  0.00    +0.000 A 
ATOM      2  N   UNL     1       1.295   7.230  20.666  0.00  0.00    +0.000 NA
ATOM      3  N   UNL     1       1.353   8.331  19.879  0.00  0.00    +0.000 N 
ATOM      4  C   UNL     1       2.215   8.128  18.788  0.00  0.00    +0.000 A 
ATOM      5  C   UNL     1       2.642   6.803  18.855  0.00  0.00    +0.000 A 
ENDROOT
BRANCH   3   6
ATOM      6  C   UNL     1       0.569   9.482  20.211  0.00  0.00    +0.000 A 
ATOM      7  C   UNL     1       0.576   9.997  21.526  0.00  0.00    +0.000 A 
ATOM      8 CL   UNL     1       1.595   9.416  22.806  0.00  0.00    +0.000 Cl
ATOM      9  C   UNL     1      -0.203  11.117  21.866  0.00  0.00    +0.000 A 
ATOM     10  C   UNL     1      -0.991  11.768  20.916  0.00  0.00    +0.000 A 
ATOM     11  C   UNL     1      -0.997  11.268  19.611  0.00  0.00    +0.000 A 
ATOM     12  C   UNL     1      -0.260  10.122  19.266  0.00  0.00    +0.000 A 
ATOM     13 CL   UNL     1      -0.616   9.513  17.683  0.00  0.00    +0.000 Cl
BRANCH  10  14
ATOM     14  C   UNL     1      -1.848  12.961  21.264  0.00  0.00    +0.000 C 
ATOM     15  F   UNL     1      -2.708  13.321  20.273  0.00  0.00    +0.000 F 
ATOM     16  F   UNL     1      -2.614  12.741  22.367  0.00  0.00    +0.000 F 
ATOM     17  F   UNL     1      -1.104  14.066  21.538  0.00  0.00    +0.000 F 
ENDBRANCH  10  14
ENDBRANCH   3   6
BRANCH   5  18
ATOM     18  C   UNL     1       3.523   6.148  17.883  0.00  0.00    +0.000 A 
ATOM     19  C   UNL     1       3.345   4.812  17.511  0.00  0.00    +0.000 A 
ATOM     20  C   UNL     1       4.232   4.233  16.616  0.00  0.00    +0.000 A 
ATOM     21  N   UNL     1       5.248   4.896  16.032  0.00  0.00    +0.000 NA
ATOM     22  C   UNL     1       5.390   6.193  16.370  0.00  0.00    +0.000 A 
ATOM     23  C   UNL     1       4.584   6.843  17.293  0.00  0.00    +0.000 A 
ENDBRANCH   5  18
BRANCH   4  24
ATOM     24  N   UNL     1       2.560   9.104  17.897  0.00  0.00    +0.000 N 
ATOM     25  H   UNL     1       2.410   8.970  16.900  0.00  0.00    +0.000 HD
ATOM     26  H   UNL     1       3.453   9.580  18.040  0.00  0.00    +0.000 HD
ENDBRANCH   4  24
BRANCH   1  28
ATOM     27  C   UNL     1       0.907   3.795  20.224  0.00  0.00    +0.000 C 
ATOM     28  S   UNL     1       2.334   4.743  20.777  0.00  0.00    +0.000 S 
ENDBRANCH   1  28
TORSDOF 5
ENDMDL
MODEL 7
REMARK VINA RESULT:      -5.7      7.410     10.520
REMARK  Name = 
REMARK  6 active torsions:
REMARK  status: ('A' for Active; 'I' for Inactive)
REMARK    1  A    between atoms: C_1  and  S_2
REMARK    2  A    between atoms: S_2  and  C_3
REMARK    3  A    between atoms: N_5  and  C_6
REMARK    4  A    between atoms: C_10  and  C_11
REMARK    5  A    between atoms: C_18  and  N_19
REMARK    6  A    between atoms: C_20  and  C_21
REMARK                            x       y       z     vdW  Elec       q    Type
REMARK                         _______ _______ _______ _____ _____    ______ ____
ROOT
ATOM      1  C   UNL     1       2.061   6.344  20.100  0.00  0.00    +0.000 A 
ATOM      2  N   UNL     1       1.287   7.247  20.694  0.00  0.00    +0.000 NA
ATOM      3  N   UNL     1       1.343   8.344  19.901  0.00  0.00    +0.000 N 
ATOM      4  C   UNL     1       2.201   8.135  18.809  0.00  0.00    +0.000 A 
ATOM      5  C   UNL     1       2.627   6.810  18.881  0.00  0.00    +0.000 A 
ENDROOT
BRANCH   3   6
ATOM      6  C   UNL     1       0.560   9.497  20.230  0.00  0.00    +0.000 A 
ATOM      7  C   UNL     1       0.567  10.015  21.544  0.00  0.00    +0.000 A 
ATOM      8 CL   UNL     1       1.584   9.435  22.827  0.00  0.00    +0.000 Cl
ATOM      9  C   UNL     1      -0.211  11.138  21.881  0.00  0.00    +0.000 A 
ATOM     10  C   UNL     1      -0.996  11.788  20.928  0.00  0.00    +0.000 A 
ATOM     11  C   UNL     1      -1.002  11.284  19.624  0.00  0.00    +0.000 A 
ATOM     12  C   UNL     1      -0.267  10.137  19.283  0.00  0.00    +0.000 A 
ATOM     13 CL   UNL     1      -0.622   9.525  17.701  0.00  0.00    +0.000 Cl
BRANCH  10  14
ATOM     14  C   UNL     1      -1.851  12.983  21.273  0.00  0.00    +0.000 C 
ATOM     15  F   UNL     1      -3.115  12.655  21.657  0.00  0.00    +0.000 F 
ATOM     16  F   UNL     1      -1.326  13.717  22.292  0.00  0.00    +0.000 F 
ATOM     17  F   UNL     1      -1.987  13.838  20.225  0.00  0.00    +0.000 F 
ENDBRANCH  10  14
ENDBRANCH   3   6
BRANCH   5  18
ATOM     18  C   UNL     1       3.505   6.150  17.911  0.00  0.00    +0.000 A 
ATOM     19  C   UNL     1       4.567   6.824  17.300  0.00  0.00    +0.000 A 
ATOM     20  C   UNL     1       5.343   6.161  16.360  0.00  0.00    +0.000 A 
ATOM     21  N   UNL     1       5.167   4.869  16.022  0.00  0.00    +0.000 NA
ATOM     22  C   UNL     1       4.164   4.217  16.642  0.00  0.00    +0.000 A 
ATOM     23  C   UNL     1       3.307   4.811  17.556  0.00  0.00    +0.000 A 
ENDBRANCH   5  18
BRANCH   4  24
ATOM     24  N   UNL     1       2.545   9.107  17.912  0.00  0.00    +0.000 N 
ATOM     25  H   UNL     1       2.457  10.090  18.159  0.00  0.00    +0.000 HD
ATOM     26  H   UNL     1       2.254   8.978  16.941  0.00  0.00    +0.000 HD
ENDBRANCH   4  24
BRANCH   1  28
ATOM     27  C   UNL     1       0.913   3.801  20.243  0.00  0.00    +0.000 C 
ATOM     28  S   UNL     1       2.325   4.760  20.814  0.00  0.00    +0.000 S 
ENDBRANCH   1  28
TORSDOF 5
ENDMDL
MODEL 8
REMARK VINA RESULT:      -5.7      4.756      7.733
REMARK  Name = 
REMARK  6 active torsions:
REMARK  status: ('A' for Active; 'I' for Inactive)
REMARK    1  A    between atoms: C_1  and  S_2
REMARK    2  A    between atoms: S_2  and  C_3
REMARK    3  A    between atoms: N_5  and  C_6
REMARK    4  A    between atoms: C_10  and  C_11
REMARK    5  A    between atoms: C_18  and  N_19
REMARK    6  A    between atoms: C_20  and  C_21
REMARK                            x       y       z     vdW  Elec       q    Type
REMARK                         _______ _______ _______ _____ _____    ______ ____
ROOT
ATOM      1  C   UNL     1      -5.553  11.781  19.481  0.00  0.00    +0.000 A 
ATOM      2  N   UNL     1      -5.704  12.584  20.530  0.00  0.00    +0.000 NA
ATOM      3  N   UNL     1      -4.510  13.205  20.681  0.00  0.00    +0.000 N 
ATOM      4  C   UNL     1      -3.581  12.753  19.729  0.00  0.00    +0.000 A 
ATOM      5  C   UNL     1      -4.262  11.873  18.890  0.00  0.00    +0.000 A 
ENDROOT
BRANCH   3   6
ATOM      6  C   UNL     1      -4.350  14.196  21.703  0.00  0.00    +0.000 A 
ATOM      7  C   UNL     1      -3.874  13.833  22.982  0.00  0.00    +0.000 A 
ATOM      8 CL   UNL     1      -3.315  12.246  23.412  0.00  0.00    +0.000 Cl
ATOM      9  C   UNL     1      -3.728  14.796  23.997  0.00  0.00    +0.000 A 
ATOM     10  C   UNL     1      -4.028  16.140  23.770  0.00  0.00    +0.000 A 
ATOM     11  C   UNL     1      -4.493  16.506  22.504  0.00  0.00    +0.000 A 
ATOM     12  C   UNL     1      -4.688  15.549  21.494  0.00  0.00    +0.000 A 
ATOM     13 CL   UNL     1      -5.521  16.161  20.102  0.00  0.00    +0.000 Cl
BRANCH  10  14
ATOM     14  C   UNL     1      -3.896  17.185  24.851  0.00  0.00    +0.000 C 
ATOM     15  F   UNL     1      -2.867  16.951  25.710  0.00  0.00    +0.000 F 
ATOM     16  F   UNL     1      -3.688  18.430  24.342  0.00  0.00    +0.000 F 
ATOM     17  F   UNL     1      -5.014  17.276  25.619  0.00  0.00    +0.000 F 
ENDBRANCH  10  14
ENDBRANCH   3   6
BRANCH   5  18
ATOM     18  C   UNL     1      -3.683  11.197  17.725  0.00  0.00    +0.000 A 
ATOM     19  C   UNL     1      -2.635  10.280  17.851  0.00  0.00    +0.000 A 
ATOM     20  C   UNL     1      -2.102   9.698  16.710  0.00  0.00    +0.000 A 
ATOM     21  N   UNL     1      -2.564   9.927  15.466  0.00  0.00    +0.000 NA
ATOM     22  C   UNL     1      -3.598  10.785  15.359  0.00  0.00    +0.000 A 
ATOM     23  C   UNL     1      -4.163  11.451  16.436  0.00  0.00    +0.000 A 
ENDBRANCH   5  18
BRANCH   4  24
ATOM     24  N   UNL     1      -2.263  13.114  19.718  0.00  0.00    +0.000 N 
ATOM     25  H   UNL     1      -1.592  12.633  20.312  0.00  0.00    +0.000 HD
ATOM     26  H   UNL     1      -2.047  14.113  19.709  0.00  0.00    +0.000 HD
ENDBRANCH   4  24
BRANCH   1  28
ATOM     27  C   UNL     1      -7.501  10.043  20.476  0.00  0.00    +0.000 C 
ATOM     28  S   UNL     1      -6.855  10.731  18.943  0.00  0.00    +0.000 S 
ENDBRANCH   1  28
TORSDOF 5
ENDMDL
MODEL 9
REMARK VINA RESULT:      -5.6      3.646      4.738
REMARK  Name = 
REMARK  6 active torsions:
REMARK  status: ('A' for Active; 'I' for Inactive)
REMARK    1  A    between atoms: C_1  and  S_2
REMARK    2  A    between atoms: S_2  and  C_3
REMARK    3  A    between atoms: N_5  and  C_6
REMARK    4  A    between atoms: C_10  and  C_11
REMARK    5  A    between atoms: C_18  and  N_19
REMARK    6  A    between atoms: C_20  and  C_21
REMARK                            x       y       z     vdW  Elec       q    Type
REMARK                         _______ _______ _______ _____ _____    ______ ____
ROOT
ATOM      1  C   UNL     1      -2.653  12.951  23.334  0.00  0.00    +0.000 A 
ATOM      2  N   UNL     1      -2.290  11.954  22.532  0.00  0.00    +0.000 NA
ATOM      3  N   UNL     1      -1.078  12.310  22.044  0.00  0.00    +0.000 N 
ATOM      4  C   UNL     1      -0.692  13.574  22.522  0.00  0.00    +0.000 A 
ATOM      5  C   UNL     1      -1.675  13.980  23.421  0.00  0.00    +0.000 A 
ENDROOT
BRANCH   3   6
ATOM      6  C   UNL     1      -0.370  11.414  21.181  0.00  0.00    +0.000 A 
ATOM      7  C   UNL     1      -0.321  11.651  19.789  0.00  0.00    +0.000 A 
ATOM      8 CL   UNL     1      -0.958  13.065  19.007  0.00  0.00    +0.000 Cl
ATOM      9  C   UNL     1       0.359  10.768  18.931  0.00  0.00    +0.000 A 
ATOM     10  C   UNL     1       1.022   9.643  19.423  0.00  0.00    +0.000 A 
ATOM     11  C   UNL     1       0.982   9.407  20.800  0.00  0.00    +0.000 A 
ATOM     12  C   UNL     1       0.270  10.254  21.666  0.00  0.00    +0.000 A 
ATOM     13 CL   UNL     1       0.120   9.638  23.279  0.00  0.00    +0.000 Cl
BRANCH  10  14
ATOM     14  C   UNL     1       1.741   8.674  18.517  0.00  0.00    +0.000 C 
ATOM     15  F   UNL     1       2.079   7.507  19.128  0.00  0.00    +0.000 F 
ATOM     16  F   UNL     1       0.994   8.331  17.432  0.00  0.00    +0.000 F 
ATOM     17  F   UNL     1       2.899   9.191  18.027  0.00  0.00    +0.000 F 
ENDBRANCH  10  14
ENDBRANCH   3   6
BRANCH   5  18
ATOM     18  C   UNL     1      -1.652  15.227  24.192  0.00  0.00    +0.000 A 
ATOM     19  C   UNL     1      -1.975  16.458  23.612  0.00  0.00    +0.000 A 
ATOM     20  C   UNL     1      -1.901  17.610  24.381  0.00  0.00    +0.000 A 
ATOM     21  N   UNL     1      -1.576  17.621  25.687  0.00  0.00    +0.000 NA
ATOM     22  C   UNL     1      -1.301  16.426  26.246  0.00  0.00    +0.000 A 
ATOM     23  C   UNL     1      -1.301  15.228  25.547  0.00  0.00    +0.000 A 
ENDBRANCH   5  18
BRANCH   4  24
ATOM     24  N   UNL     1       0.426  14.238  22.102  0.00  0.00    +0.000 N 
ATOM     25  H   UNL     1       1.326  14.061  22.542  0.00  0.00    +0.000 HD
ATOM     26  H   UNL     1       0.338  15.238  21.910  0.00  0.00    +0.000 HD
ENDBRANCH   4  24
BRANCH   1  28
ATOM     27  C   UNL     1      -5.149  14.206  23.299  0.00  0.00    +0.000 C 
ATOM     28  S   UNL     1      -4.204  12.937  24.159  0.00  0.00    +0.000 S 
ENDBRANCH   1  28
TORSDOF 5
ENDMDL
