MODEL 1
REMARK VINA RESULT:      -8.6      0.000      0.000
REMARK  Name = 
REMARK  9 active torsions:
REMARK  status: ('A' for Active; 'I' for Inactive)
REMARK    1  A    between atoms: C_1  and  C_2
REMARK    2  A    between atoms: C_4  and  C_5
REMARK    3  A    between atoms: C_7  and  N_8
REMARK    4  A    between atoms: C_9  and  C_11
REMARK    5  A    between atoms: C_11  and  N_12
REMARK    6  A    between atoms: C_15  and  C_16
REMARK    7  A    between atoms: N_18  and  C_19
REMARK    8  A    between atoms: C_19  and  C_20
REMARK    9  A    between atoms: C_29  and  N_30
REMARK                            x       y       z     vdW  Elec       q    Type
REMARK                         _______ _______ _______ _____ _____    ______ ____
ROOT
ATOM      1  N   UNL     1       1.415   9.077  19.437  0.00  0.00    +0.000 N 
ATOM      2  N   UNL     1       1.783   9.228  18.149  0.00  0.00    +0.000 NA
ATOM      3  N   UNL     1       2.499   8.166  17.814  0.00  0.00    +0.000 NA
ATOM      4  C   UNL     1       2.576   7.323  18.905  0.00  0.00    +0.000 A 
ATOM      5  C   UNL     1       1.899   7.905  19.968  0.00  0.00    +0.000 A 
ENDROOT
BRANCH   4   6
ATOM      6  C   UNL     1       3.269   6.040  18.845  0.00  0.00    +0.000 C 
ATOM      7  O   UNL     1       2.775   4.984  19.231  0.00  0.00    +0.000 OA
ATOM      8  N   UNL     1       4.532   6.128  18.296  0.00  0.00    +0.000 N 
ATOM      9  H   UNL     1       4.907   7.056  18.134  0.00  0.00    +0.000 HD
BRANCH   8  10
ATOM     10  C   UNL     1       5.397   4.984  18.136  0.00  0.00    +0.000 C 
BRANCH  10  11
ATOM     11  C   UNL     1       5.742   4.760  16.682  0.00  0.00    +0.000 A 
ATOM     12  C   UNL     1       4.968   3.873  15.895  0.00  0.00    +0.000 A 
ATOM     13  C   UNL     1       5.277   3.628  14.553  0.00  0.00    +0.000 A 
ATOM     14  C   UNL     1       6.366   4.280  14.021  0.00  0.00    +0.000 A 
ATOM     15  C   UNL     1       7.130   5.142  14.768  0.00  0.00    +0.000 A 
ATOM     16  C   UNL     1       6.845   5.405  16.096  0.00  0.00    +0.000 A 
ATOM     17  O   UNL     1       8.160   5.674  14.058  0.00  0.00    +0.000 OA
ATOM     18  C   UNL     1       7.971   5.027  12.783  0.00  0.00    +0.000 C 
ATOM     19  O   UNL     1       6.817   4.161  12.744  0.00  0.00    +0.000 OA
ENDBRANCH  10  11
ENDBRANCH   8  10
ENDBRANCH   4   6
BRANCH   5  20
ATOM     20  N   UNL     1       1.697   7.538  21.251  0.00  0.00    +0.000 N 
ATOM     21  H   UNL     1       2.417   7.025  21.766  0.00  0.00    +0.000 HD
ATOM     22  H   UNL     1       0.823   7.647  21.768  0.00  0.00    +0.000 HD
ENDBRANCH   5  20
BRANCH   1  23
ATOM     23  C   UNL     1       0.719  10.154  20.097  0.00  0.00    +0.000 C 
BRANCH  23  25
ATOM     24  N   UNL     1      -1.329  10.059  18.761  0.00  0.00    +0.000 N 
ATOM     25  C   UNL     1      -0.268  10.851  19.190  0.00  0.00    +0.000 C 
ATOM     26  O   UNL     1      -0.058  12.021  18.873  0.00  0.00    +0.000 OA
ATOM     27  H   UNL     1      -1.419   9.137  19.167  0.00  0.00    +0.000 HD
BRANCH  24  34
ATOM     28  C   UNL     1      -5.638  12.360  18.021  0.00  0.00    +0.000 C 
ATOM     29  C   UNL     1      -4.479  11.570  17.481  0.00  0.00    +0.000 A 
ATOM     30  C   UNL     1      -4.425  11.236  16.123  0.00  0.00    +0.000 A 
ATOM     31  C   UNL     1      -3.349  10.505  15.617  0.00  0.00    +0.000 A 
ATOM     32  C   UNL     1      -3.276  10.139  14.162  0.00  0.00    +0.000 C 
ATOM     33  C   UNL     1      -2.316  10.110  16.482  0.00  0.00    +0.000 A 
ATOM     34  C   UNL     1      -2.343  10.433  17.842  0.00  0.00    +0.000 A 
ATOM     35  C   UNL     1      -3.435  11.162  18.332  0.00  0.00    +0.000 A 
ENDBRANCH  24  34
ENDBRANCH  23  25
ENDBRANCH   1  23
TORSDOF 7
ENDMDL
MODEL 2
REMARK VINA RESULT:      -8.6      0.247      1.560
REMARK  Name = 
REMARK  9 active torsions:
REMARK  status: ('A' for Active; 'I' for Inactive)
REMARK    1  A    between atoms: C_1  and  C_2
REMARK    2  A    between atoms: C_4  and  C_5
REMARK    3  A    between atoms: C_7  and  N_8
REMARK    4  A    between atoms: C_9  and  C_11
REMARK    5  A    between atoms: C_11  and  N_12
REMARK    6  A    between atoms: C_15  and  C_16
REMARK    7  A    between atoms: N_18  and  C_19
REMARK    8  A    between atoms: C_19  and  C_20
REMARK    9  A    between atoms: C_29  and  N_30
REMARK                            x       y       z     vdW  Elec       q    Type
REMARK                         _______ _______ _______ _____ _____    ______ ____
ROOT
ATOM      1  N   UNL     1       1.338   9.205  19.451  0.00  0.00    +0.000 N 
ATOM      2  N   UNL     1       1.663   9.249  18.143  0.00  0.00    +0.000 NA
ATOM      3  N   UNL     1       2.381   8.169  17.877  0.00  0.00    +0.000 NA
ATOM      4  C   UNL     1       2.503   7.425  19.033  0.00  0.00    +0.000 A 
ATOM      5  C   UNL     1       1.854   8.088  20.064  0.00  0.00    +0.000 A 
ENDROOT
BRANCH   4   6
ATOM      6  C   UNL     1       3.210   6.148  19.060  0.00  0.00    +0.000 C 
ATOM      7  O   UNL     1       2.853   5.189  19.739  0.00  0.00    +0.000 OA
ATOM      8  N   UNL     1       4.316   6.120  18.235  0.00  0.00    +0.000 N 
ATOM      9  H   UNL     1       4.613   6.996  17.822  0.00  0.00    +0.000 HD
BRANCH   8  10
ATOM     10  C   UNL     1       5.163   4.959  18.102  0.00  0.00    +0.000 C 
BRANCH  10  11
ATOM     11  C   UNL     1       5.582   4.750  16.665  0.00  0.00    +0.000 A 
ATOM     12  C   UNL     1       4.844   3.880  15.827  0.00  0.00    +0.000 A 
ATOM     13  C   UNL     1       5.220   3.649  14.501  0.00  0.00    +0.000 A 
ATOM     14  C   UNL     1       6.340   4.299  14.034  0.00  0.00    +0.000 A 
ATOM     15  C   UNL     1       7.071   5.146  14.832  0.00  0.00    +0.000 A 
ATOM     16  C   UNL     1       6.719   5.394  16.146  0.00  0.00    +0.000 A 
ATOM     17  O   UNL     1       8.141   5.678  14.183  0.00  0.00    +0.000 OA
ATOM     18  C   UNL     1       8.013   5.049  12.891  0.00  0.00    +0.000 C 
ATOM     19  O   UNL     1       6.857   4.193  12.781  0.00  0.00    +0.000 OA
ENDBRANCH  10  11
ENDBRANCH   8  10
ENDBRANCH   4   6
BRANCH   5  20
ATOM     20  N   UNL     1       1.697   7.831  21.380  0.00  0.00    +0.000 N 
ATOM     21  H   UNL     1       1.650   6.868  21.721  0.00  0.00    +0.000 HD
ATOM     22  H   UNL     1       1.526   8.530  22.104  0.00  0.00    +0.000 HD
ENDBRANCH   5  20
BRANCH   1  23
ATOM     23  C   UNL     1       0.650  10.328  20.039  0.00  0.00    +0.000 C 
BRANCH  23  25
ATOM     24  N   UNL     1      -1.398  10.167  18.709  0.00  0.00    +0.000 N 
ATOM     25  C   UNL     1      -0.329  10.974  19.086  0.00  0.00    +0.000 C 
ATOM     26  O   UNL     1      -0.107  12.119  18.693  0.00  0.00    +0.000 OA
ATOM     27  H   UNL     1      -1.498   9.274  19.176  0.00  0.00    +0.000 HD
BRANCH  24  34
ATOM     28  C   UNL     1      -2.973   9.894  14.034  0.00  0.00    +0.000 C 
ATOM     29  C   UNL     1      -3.182  10.355  15.450  0.00  0.00    +0.000 A 
ATOM     30  C   UNL     1      -4.336  11.066  15.795  0.00  0.00    +0.000 A 
ATOM     31  C   UNL     1      -4.535  11.495  17.109  0.00  0.00    +0.000 A 
ATOM     32  C   UNL     1      -5.768  12.259  17.497  0.00  0.00    +0.000 C 
ATOM     33  C   UNL     1      -3.568  11.202  18.085  0.00  0.00    +0.000 A 
ATOM     34  C   UNL     1      -2.408  10.490  17.766  0.00  0.00    +0.000 A 
ATOM     35  C   UNL     1      -2.223  10.074  16.441  0.00  0.00    +0.000 A 
ENDBRANCH  24  34
ENDBRANCH  23  25
ENDBRANCH   1  23
TORSDOF 7
ENDMDL
MODEL 3
REMARK VINA RESULT:      -8.5      1.212      2.365
REMARK  Name = 
REMARK  9 active torsions:
REMARK  status: ('A' for Active; 'I' for Inactive)
REMARK    1  A    between atoms: C_1  and  C_2
REMARK    2  A    between atoms: C_4  and  C_5
REMARK    3  A    between atoms: C_7  and  N_8
REMARK    4  A    between atoms: C_9  and  C_11
REMARK    5  A    between atoms: C_11  and  N_12
REMARK    6  A    between atoms: C_15  and  C_16
REMARK    7  A    between atoms: N_18  and  C_19
REMARK    8  A    between atoms: C_19  and  C_20
REMARK    9  A    between atoms: C_29  and  N_30
REMARK                            x       y       z     vdW  Elec       q    Type
REMARK                         _______ _______ _______ _____ _____    ______ ____
ROOT
ATOM      1  N   UNL     1       0.834  10.155  19.937  0.00  0.00    +0.000 N 
ATOM      2  N   UNL     1       1.333  10.013  18.693  0.00  0.00    +0.000 NA
ATOM      3  N   UNL     1       1.857   8.800  18.611  0.00  0.00    +0.000 NA
ATOM      4  C   UNL     1       1.676   8.160  19.821  0.00  0.00    +0.000 A 
ATOM      5  C   UNL     1       1.035   9.027  20.695  0.00  0.00    +0.000 A 
ENDROOT
BRANCH   4   6
ATOM      6  C   UNL     1       2.111   6.784  20.041  0.00  0.00    +0.000 C 
ATOM      7  O   UNL     1       1.716   6.089  20.973  0.00  0.00    +0.000 OA
ATOM      8  N   UNL     1       3.002   6.336  19.088  0.00  0.00    +0.000 N 
ATOM      9  H   UNL     1       3.375   7.019  18.439  0.00  0.00    +0.000 HD
BRANCH   8  10
ATOM     10  C   UNL     1       3.562   5.006  19.105  0.00  0.00    +0.000 C 
BRANCH  10  11
ATOM     11  C   UNL     1       4.722   4.889  18.144  0.00  0.00    +0.000 A 
ATOM     12  C   UNL     1       6.043   4.751  18.634  0.00  0.00    +0.000 A 
ATOM     13  C   UNL     1       7.138   4.664  17.770  0.00  0.00    +0.000 A 
ATOM     14  C   UNL     1       6.888   4.719  16.417  0.00  0.00    +0.000 A 
ATOM     15  C   UNL     1       5.614   4.854  15.922  0.00  0.00    +0.000 A 
ATOM     16  C   UNL     1       4.514   4.940  16.754  0.00  0.00    +0.000 A 
ATOM     17  O   UNL     1       5.586   4.895  14.563  0.00  0.00    +0.000 OA
ATOM     18  C   UNL     1       6.993   4.796  14.261  0.00  0.00    +0.000 C 
ATOM     19  O   UNL     1       7.824   4.656  15.433  0.00  0.00    +0.000 OA
ENDBRANCH  10  11
ENDBRANCH   8  10
ENDBRANCH   4   6
BRANCH   5  20
ATOM     20  N   UNL     1       0.657   8.930  21.987  0.00  0.00    +0.000 N 
ATOM     21  H   UNL     1       1.300   8.562  22.692  0.00  0.00    +0.000 HD
ATOM     22  H   UNL     1      -0.282   9.113  22.345  0.00  0.00    +0.000 HD
ENDBRANCH   5  20
BRANCH   1  23
ATOM     23  C   UNL     1       0.304  11.436  20.337  0.00  0.00    +0.000 C 
BRANCH  23  25
ATOM     24  N   UNL     1      -1.647  10.887  18.966  0.00  0.00    +0.000 N 
ATOM     25  C   UNL     1      -0.826  11.901  19.448  0.00  0.00    +0.000 C 
ATOM     26  O   UNL     1      -0.922  13.101  19.189  0.00  0.00    +0.000 OA
ATOM     27  H   UNL     1      -1.499   9.953  19.328  0.00  0.00    +0.000 HD
BRANCH  24  34
ATOM     28  C   UNL     1      -3.331  10.186  14.374  0.00  0.00    +0.000 C 
ATOM     29  C   UNL     1      -3.549  10.688  15.775  0.00  0.00    +0.000 A 
ATOM     30  C   UNL     1      -4.772  11.266  16.133  0.00  0.00    +0.000 A 
ATOM     31  C   UNL     1      -4.980  11.731  17.433  0.00  0.00    +0.000 A 
ATOM     32  C   UNL     1      -6.286  12.353  17.835  0.00  0.00    +0.000 C 
ATOM     33  C   UNL     1      -3.951  11.610  18.382  0.00  0.00    +0.000 A 
ATOM     34  C   UNL     1      -2.721  11.033  18.050  0.00  0.00    +0.000 A 
ATOM     35  C   UNL     1      -2.530  10.579  16.739  0.00  0.00    +0.000 A 
ENDBRANCH  24  34
ENDBRANCH  23  25
ENDBRANCH   1  23
TORSDOF 7
ENDMDL
MODEL 4
REMARK VINA RESULT:      -8.4      1.074      2.496
REMARK  Name = 
REMARK  9 active torsions:
REMARK  status: ('A' for Active; 'I' for Inactive)
REMARK    1  A    between atoms: C_1  and  C_2
REMARK    2  A    between atoms: C_4  and  C_5
REMARK    3  A    between atoms: C_7  and  N_8
REMARK    4  A    between atoms: C_9  and  C_11
REMARK    5  A    between atoms: C_11  and  N_12
REMARK    6  A    between atoms: C_15  and  C_16
REMARK    7  A    between atoms: N_18  and  C_19
REMARK    8  A    between atoms: C_19  and  C_20
REMARK    9  A    between atoms: C_29  and  N_30
REMARK                            x       y       z     vdW  Elec       q    Type
REMARK                         _______ _______ _______ _____ _____    ______ ____
ROOT
ATOM      1  N   UNL     1       1.404   9.311  19.990  0.00  0.00    +0.000 N 
ATOM      2  N   UNL     1       1.007   8.884  21.205  0.00  0.00    +0.000 NA
ATOM      3  N   UNL     1       1.265   7.587  21.274  0.00  0.00    +0.000 NA
ATOM      4  C   UNL     1       1.845   7.190  20.086  0.00  0.00    +0.000 A 
ATOM      5  C   UNL     1       1.924   8.285  19.238  0.00  0.00    +0.000 A 
ENDROOT
BRANCH   4   6
ATOM      6  C   UNL     1       2.285   5.816  19.861  0.00  0.00    +0.000 C 
ATOM      7  O   UNL     1       1.515   4.864  19.770  0.00  0.00    +0.000 OA
ATOM      8  N   UNL     1       3.655   5.694  19.748  0.00  0.00    +0.000 N 
ATOM      9  H   UNL     1       4.216   6.507  19.973  0.00  0.00    +0.000 HD
BRANCH   8  10
ATOM     10  C   UNL     1       4.311   4.429  19.521  0.00  0.00    +0.000 C 
BRANCH  10  11
ATOM     11  C   UNL     1       5.235   4.499  18.326  0.00  0.00    +0.000 A 
ATOM     12  C   UNL     1       6.604   4.811  18.502  0.00  0.00    +0.000 A 
ATOM     13  C   UNL     1       7.477   4.905  17.415  0.00  0.00    +0.000 A 
ATOM     14  C   UNL     1       6.958   4.685  16.159  0.00  0.00    +0.000 A 
ATOM     15  C   UNL     1       5.631   4.384  15.968  0.00  0.00    +0.000 A 
ATOM     16  C   UNL     1       4.747   4.282  17.026  0.00  0.00    +0.000 A 
ATOM     17  O   UNL     1       5.321   4.213  14.655  0.00  0.00    +0.000 OA
ATOM     18  C   UNL     1       6.601   4.466  14.040  0.00  0.00    +0.000 C 
ATOM     19  O   UNL     1       7.651   4.740  14.991  0.00  0.00    +0.000 OA
ENDBRANCH  10  11
ENDBRANCH   8  10
ENDBRANCH   4   6
BRANCH   5  20
ATOM     20  N   UNL     1       2.361   8.448  17.971  0.00  0.00    +0.000 N 
ATOM     21  H   UNL     1       1.722   8.338  17.181  0.00  0.00    +0.000 HD
ATOM     22  H   UNL     1       3.333   8.594  17.693  0.00  0.00    +0.000 HD
ENDBRANCH   5  20
BRANCH   1  23
ATOM     23  C   UNL     1       1.130  10.673  19.603  0.00  0.00    +0.000 C 
BRANCH  23  25
ATOM     24  N   UNL     1      -0.767  10.594  18.059  0.00  0.00    +0.000 N 
ATOM     25  C   UNL     1      -0.338  10.920  19.342  0.00  0.00    +0.000 C 
ATOM     26  O   UNL     1      -1.026  11.407  20.238  0.00  0.00    +0.000 OA
ATOM     27  H   UNL     1      -0.108  10.125  17.450  0.00  0.00    +0.000 HD
BRANCH  24  34
ATOM     28  C   UNL     1      -3.811  10.101  14.198  0.00  0.00    +0.000 C 
ATOM     29  C   UNL     1      -3.567  10.561  15.609  0.00  0.00    +0.000 A 
ATOM     30  C   UNL     1      -4.595  11.163  16.341  0.00  0.00    +0.000 A 
ATOM     31  C   UNL     1      -4.374  11.590  17.652  0.00  0.00    +0.000 A 
ATOM     32  C   UNL     1      -5.467  12.237  18.452  0.00  0.00    +0.000 C 
ATOM     33  C   UNL     1      -3.108  11.406  18.233  0.00  0.00    +0.000 A 
ATOM     34  C   UNL     1      -2.064  10.804  17.524  0.00  0.00    +0.000 A 
ATOM     35  C   UNL     1      -2.305  10.389  16.207  0.00  0.00    +0.000 A 
ENDBRANCH  24  34
ENDBRANCH  23  25
ENDBRANCH   1  23
TORSDOF 7
ENDMDL
MODEL 5
REMARK VINA RESULT:      -8.4      1.196      1.796
REMARK  Name = 
REMARK  9 active torsions:
REMARK  status: ('A' for Active; 'I' for Inactive)
REMARK    1  A    between atoms: C_1  and  C_2
REMARK    2  A    between atoms: C_4  and  C_5
REMARK    3  A    between atoms: C_7  and  N_8
REMARK    4  A    between atoms: C_9  and  C_11
REMARK    5  A    between atoms: C_11  and  N_12
REMARK    6  A    between atoms: C_15  and  C_16
REMARK    7  A    between atoms: N_18  and  C_19
REMARK    8  A    between atoms: C_19  and  C_20
REMARK    9  A    between atoms: C_29  and  N_30
REMARK                            x       y       z     vdW  Elec       q    Type
REMARK                         _______ _______ _______ _____ _____    ______ ____
ROOT
ATOM      1  N   UNL     1       0.905  10.179  19.916  0.00  0.00    +0.000 N 
ATOM      2  N   UNL     1       1.488  10.061  18.706  0.00  0.00    +0.000 NA
ATOM      3  N   UNL     1       2.014   8.848  18.636  0.00  0.00    +0.000 NA
ATOM      4  C   UNL     1       1.748   8.183  19.817  0.00  0.00    +0.000 A 
ATOM      5  C   UNL     1       1.051   9.034  20.662  0.00  0.00    +0.000 A 
ENDROOT
BRANCH   4   6
ATOM      6  C   UNL     1       2.165   6.801  20.038  0.00  0.00    +0.000 C 
ATOM      7  O   UNL     1       1.610   6.044  20.830  0.00  0.00    +0.000 OA
ATOM      8  N   UNL     1       3.238   6.425  19.257  0.00  0.00    +0.000 N 
ATOM      9  H   UNL     1       3.716   7.152  18.737  0.00  0.00    +0.000 HD
BRANCH   8  10
ATOM     10  C   UNL     1       3.816   5.103  19.307  0.00  0.00    +0.000 C 
BRANCH  10  11
ATOM     11  C   UNL     1       4.895   4.938  18.262  0.00  0.00    +0.000 A 
ATOM     12  C   UNL     1       6.257   4.886  18.647  0.00  0.00    +0.000 A 
ATOM     13  C   UNL     1       7.278   4.757  17.701  0.00  0.00    +0.000 A 
ATOM     14  C   UNL     1       6.914   4.685  16.376  0.00  0.00    +0.000 A 
ATOM     15  C   UNL     1       5.599   4.736  15.983  0.00  0.00    +0.000 A 
ATOM     16  C   UNL     1       4.569   4.860  16.897  0.00  0.00    +0.000 A 
ATOM     17  O   UNL     1       5.456   4.657  14.633  0.00  0.00    +0.000 OA
ATOM     18  C   UNL     1       6.836   4.575  14.220  0.00  0.00    +0.000 C 
ATOM     19  O   UNL     1       7.766   4.565  15.323  0.00  0.00    +0.000 OA
ENDBRANCH  10  11
ENDBRANCH   8  10
ENDBRANCH   4   6
BRANCH   5  20
ATOM     20  N   UNL     1       0.584   8.912  21.923  0.00  0.00    +0.000 N 
ATOM     21  H   UNL     1       1.054   8.301  22.596  0.00  0.00    +0.000 HD
ATOM     22  H   UNL     1      -0.284   9.318  22.276  0.00  0.00    +0.000 HD
ENDBRANCH   5  20
BRANCH   1  23
ATOM     23  C   UNL     1       0.351  11.453  20.305  0.00  0.00    +0.000 C 
BRANCH  23  25
ATOM     24  N   UNL     1      -1.339  10.828  18.649  0.00  0.00    +0.000 N 
ATOM     25  C   UNL     1      -0.873  11.825  19.501  0.00  0.00    +0.000 C 
ATOM     26  O   UNL     1      -1.341  12.957  19.622  0.00  0.00    +0.000 OA
ATOM     27  H   UNL     1      -0.904   9.916  18.713  0.00  0.00    +0.000 HD
BRANCH  24  34
ATOM     28  C   UNL     1      -5.931  12.425  17.768  0.00  0.00    +0.000 C 
ATOM     29  C   UNL     1      -4.686  11.729  17.295  0.00  0.00    +0.000 A 
ATOM     30  C   UNL     1      -4.612  11.227  15.991  0.00  0.00    +0.000 A 
ATOM     31  C   UNL     1      -3.456  10.582  15.547  0.00  0.00    +0.000 A 
ATOM     32  C   UNL     1      -3.360  10.038  14.151  0.00  0.00    +0.000 C 
ATOM     33  C   UNL     1      -2.364  10.444  16.419  0.00  0.00    +0.000 A 
ATOM     34  C   UNL     1      -2.410  10.940  17.726  0.00  0.00    +0.000 A 
ATOM     35  C   UNL     1      -3.581  11.578  18.155  0.00  0.00    +0.000 A 
ENDBRANCH  24  34
ENDBRANCH  23  25
ENDBRANCH   1  23
TORSDOF 7
ENDMDL
MODEL 6
REMARK VINA RESULT:      -8.3      0.692      1.987
REMARK  Name = 
REMARK  9 active torsions:
REMARK  status: ('A' for Active; 'I' for Inactive)
REMARK    1  A    between atoms: C_1  and  C_2
REMARK    2  A    between atoms: C_4  and  C_5
REMARK    3  A    between atoms: C_7  and  N_8
REMARK    4  A    between atoms: C_9  and  C_11
REMARK    5  A    between atoms: C_11  and  N_12
REMARK    6  A    between atoms: C_15  and  C_16
REMARK    7  A    between atoms: N_18  and  C_19
REMARK    8  A    between atoms: C_19  and  C_20
REMARK    9  A    between atoms: C_29  and  N_30
REMARK                            x       y       z     vdW  Elec       q    Type
REMARK                         _______ _______ _______ _____ _____    ______ ____
ROOT
ATOM      1  N   UNL     1       1.486   9.368  19.296  0.00  0.00    +0.000 N 
ATOM      2  N   UNL     1       1.850   9.608  18.020  0.00  0.00    +0.000 NA
ATOM      3  N   UNL     1       2.385   8.494  17.544  0.00  0.00    +0.000 NA
ATOM      4  C   UNL     1       2.347   7.530  18.532  0.00  0.00    +0.000 A 
ATOM      5  C   UNL     1       1.789   8.082  19.676  0.00  0.00    +0.000 A 
ENDROOT
BRANCH   4   6
ATOM      6  C   UNL     1       2.830   6.171  18.305  0.00  0.00    +0.000 C 
ATOM      7  O   UNL     1       2.094   5.230  18.018  0.00  0.00    +0.000 OA
ATOM      8  N   UNL     1       4.198   6.050  18.431  0.00  0.00    +0.000 N 
ATOM      9  H   UNL     1       4.705   6.845  18.802  0.00  0.00    +0.000 HD
BRANCH   8  10
ATOM     10  C   UNL     1       4.893   4.798  18.247  0.00  0.00    +0.000 C 
BRANCH  10  11
ATOM     11  C   UNL     1       5.609   4.761  16.916  0.00  0.00    +0.000 A 
ATOM     12  C   UNL     1       6.849   5.426  16.756  0.00  0.00    +0.000 A 
ATOM     13  C   UNL     1       7.523   5.428  15.531  0.00  0.00    +0.000 A 
ATOM     14  C   UNL     1       6.937   4.760  14.480  0.00  0.00    +0.000 A 
ATOM     15  C   UNL     1       5.734   4.112  14.615  0.00  0.00    +0.000 A 
ATOM     16  C   UNL     1       5.047   4.091  15.815  0.00  0.00    +0.000 A 
ATOM     17  O   UNL     1       5.327   3.524  13.459  0.00  0.00    +0.000 OA
ATOM     18  C   UNL     1       6.401   3.899  12.573  0.00  0.00    +0.000 C 
ATOM     19  O   UNL     1       7.441   4.661  13.221  0.00  0.00    +0.000 OA
ENDBRANCH  10  11
ENDBRANCH   8  10
ENDBRANCH   4   6
BRANCH   5  20
ATOM     20  N   UNL     1       1.554   7.605  20.917  0.00  0.00    +0.000 N 
ATOM     21  H   UNL     1       1.961   6.717  21.219  0.00  0.00    +0.000 HD
ATOM     22  H   UNL     1       0.911   8.013  21.596  0.00  0.00    +0.000 HD
ENDBRANCH   5  20
BRANCH   1  23
ATOM     23  C   UNL     1       0.979  10.456  20.096  0.00  0.00    +0.000 C 
BRANCH  23  25
ATOM     24  N   UNL     1      -1.023  10.230  18.707  0.00  0.00    +0.000 N 
ATOM     25  C   UNL     1      -0.266  11.079  19.508  0.00  0.00    +0.000 C 
ATOM     26  O   UNL     1      -0.502  12.264  19.739  0.00  0.00    +0.000 OA
ATOM     27  H   UNL     1      -0.752   9.255  18.671  0.00  0.00    +0.000 HD
BRANCH  24  34
ATOM     28  C   UNL     1      -3.351  10.200  14.349  0.00  0.00    +0.000 C 
ATOM     29  C   UNL     1      -3.331  10.564  15.808  0.00  0.00    +0.000 A 
ATOM     30  C   UNL     1      -4.426  11.214  16.387  0.00  0.00    +0.000 A 
ATOM     31  C   UNL     1      -4.412  11.552  17.741  0.00  0.00    +0.000 A 
ATOM     32  C   UNL     1      -5.579  12.249  18.379  0.00  0.00    +0.000 C 
ATOM     33  C   UNL     1      -3.289  11.230  18.522  0.00  0.00    +0.000 A 
ATOM     34  C   UNL     1      -2.183  10.578  17.968  0.00  0.00    +0.000 A 
ATOM     35  C   UNL     1      -2.214  10.253  16.606  0.00  0.00    +0.000 A 
ENDBRANCH  24  34
ENDBRANCH  23  25
ENDBRANCH   1  23
TORSDOF 7
ENDMDL
MODEL 7
REMARK VINA RESULT:      -8.3      1.977      9.773
REMARK  Name = 
REMARK  9 active torsions:
REMARK  status: ('A' for Active; 'I' for Inactive)
REMARK    1  A    between atoms: C_1  and  C_2
REMARK    2  A    between atoms: C_4  and  C_5
REMARK    3  A    between atoms: C_7  and  N_8
REMARK    4  A    between atoms: C_9  and  C_11
REMARK    5  A    between atoms: C_11  and  N_12
REMARK    6  A    between atoms: C_15  and  C_16
REMARK    7  A    between atoms: N_18  and  C_19
REMARK    8  A    between atoms: C_19  and  C_20
REMARK    9  A    between atoms: C_29  and  N_30
REMARK                            x       y       z     vdW  Elec       q    Type
REMARK                         _______ _______ _______ _____ _____    ______ ____
ROOT
ATOM      1  N   UNL     1       3.730   5.655  18.514  0.00  0.00    +0.000 N 
ATOM      2  N   UNL     1       3.719   6.573  17.527  0.00  0.00    +0.000 NA
ATOM      3  N   UNL     1       2.936   7.567  17.918  0.00  0.00    +0.000 NA
ATOM      4  C   UNL     1       2.453   7.277  19.179  0.00  0.00    +0.000 A 
ATOM      5  C   UNL     1       2.939   6.038  19.571  0.00  0.00    +0.000 A 
ENDROOT
BRANCH   4   6
ATOM      6  C   UNL     1       1.587   8.200  19.907  0.00  0.00    +0.000 C 
ATOM      7  O   UNL     1       1.101   7.950  21.006  0.00  0.00    +0.000 OA
ATOM      8  N   UNL     1       1.379   9.391  19.242  0.00  0.00    +0.000 N 
ATOM      9  H   UNL     1       1.706   9.455  18.284  0.00  0.00    +0.000 HD
BRANCH   8  10
ATOM     10  C   UNL     1       0.559  10.452  19.775  0.00  0.00    +0.000 C 
BRANCH  10  11
ATOM     11  C   UNL     1      -0.656  10.692  18.909  0.00  0.00    +0.000 A 
ATOM     12  C   UNL     1      -1.662  11.595  19.328  0.00  0.00    +0.000 A 
ATOM     13  C   UNL     1      -2.808  11.820  18.558  0.00  0.00    +0.000 A 
ATOM     14  C   UNL     1      -2.926  11.129  17.374  0.00  0.00    +0.000 A 
ATOM     15  C   UNL     1      -1.961  10.247  16.952  0.00  0.00    +0.000 A 
ATOM     16  C   UNL     1      -0.818  10.007  17.691  0.00  0.00    +0.000 A 
ATOM     17  O   UNL     1      -2.274   9.664  15.764  0.00  0.00    +0.000 OA
ATOM     18  C   UNL     1      -3.559  10.263  15.499  0.00  0.00    +0.000 C 
ATOM     19  O   UNL     1      -3.967  11.214  16.504  0.00  0.00    +0.000 OA
ENDBRANCH  10  11
ENDBRANCH   8  10
ENDBRANCH   4   6
BRANCH   5  20
ATOM     20  N   UNL     1       2.756   5.274  20.669  0.00  0.00    +0.000 N 
ATOM     21  H   UNL     1       3.515   4.694  21.033  0.00  0.00    +0.000 HD
ATOM     22  H   UNL     1       1.869   5.139  21.155  0.00  0.00    +0.000 HD
ENDBRANCH   5  20
BRANCH   1  23
ATOM     23  C   UNL     1       4.417   4.405  18.300  0.00  0.00    +0.000 C 
BRANCH  23  25
ATOM     24  N   UNL     1       4.894   4.381  15.900  0.00  0.00    +0.000 N 
ATOM     25  C   UNL     1       5.429   4.482  17.180  0.00  0.00    +0.000 C 
ATOM     26  O   UNL     1       6.621   4.591  17.464  0.00  0.00    +0.000 OA
ATOM     27  H   UNL     1       3.885   4.377  15.813  0.00  0.00    +0.000 HD
BRANCH  24  34
ATOM     28  C   UNL     1       5.403   2.353  11.423  0.00  0.00    +0.000 C 
ATOM     29  C   UNL     1       5.871   3.328  12.468  0.00  0.00    +0.000 A 
ATOM     30  C   UNL     1       6.977   4.148  12.220  0.00  0.00    +0.000 A 
ATOM     31  C   UNL     1       7.414   5.056  13.187  0.00  0.00    +0.000 A 
ATOM     32  C   UNL     1       8.599   5.944  12.938  0.00  0.00    +0.000 C 
ATOM     33  C   UNL     1       6.731   5.143  14.411  0.00  0.00    +0.000 A 
ATOM     34  C   UNL     1       5.621   4.337  14.682  0.00  0.00    +0.000 A 
ATOM     35  C   UNL     1       5.202   3.428  13.702  0.00  0.00    +0.000 A 
ENDBRANCH  24  34
ENDBRANCH  23  25
ENDBRANCH   1  23
TORSDOF 7
ENDMDL
MODEL 8
REMARK VINA RESULT:      -8.1      1.992     10.025
REMARK  Name = 
REMARK  9 active torsions:
REMARK  status: ('A' for Active; 'I' for Inactive)
REMARK    1  A    between atoms: C_1  and  C_2
REMARK    2  A    between atoms: C_4  and  C_5
REMARK    3  A    between atoms: C_7  and  N_8
REMARK    4  A    between atoms: C_9  and  C_11
REMARK    5  A    between atoms: C_11  and  N_12
REMARK    6  A    between atoms: C_15  and  C_16
REMARK    7  A    between atoms: N_18  and  C_19
REMARK    8  A    between atoms: C_19  and  C_20
REMARK    9  A    between atoms: C_29  and  N_30
REMARK                            x       y       z     vdW  Elec       q    Type
REMARK                         _______ _______ _______ _____ _____    ______ ____
ROOT
ATOM      1  N   UNL     1       3.702   5.907  18.544  0.00  0.00    +0.000 N 
ATOM      2  N   UNL     1       3.748   6.826  17.558  0.00  0.00    +0.000 NA
ATOM      3  N   UNL     1       2.941   7.817  17.902  0.00  0.00    +0.000 NA
ATOM      4  C   UNL     1       2.383   7.526  19.131  0.00  0.00    +0.000 A 
ATOM      5  C   UNL     1       2.848   6.287  19.551  0.00  0.00    +0.000 A 
ENDROOT
BRANCH   4   6
ATOM      6  C   UNL     1       1.473   8.446  19.806  0.00  0.00    +0.000 C 
ATOM      7  O   UNL     1       1.046   8.266  20.943  0.00  0.00    +0.000 OA
ATOM      8  N   UNL     1       1.149   9.549  19.043  0.00  0.00    +0.000 N 
ATOM      9  H   UNL     1       1.436   9.545  18.071  0.00  0.00    +0.000 HD
BRANCH   8  10
ATOM     10  C   UNL     1       0.266  10.591  19.510  0.00  0.00    +0.000 C 
BRANCH  10  11
ATOM     11  C   UNL     1      -1.002  10.641  18.690  0.00  0.00    +0.000 A 
ATOM     12  C   UNL     1      -1.100   9.907  17.484  0.00  0.00    +0.000 A 
ATOM     13  C   UNL     1      -2.252   9.951  16.693  0.00  0.00    +0.000 A 
ATOM     14  C   UNL     1      -3.293  10.739  17.128  0.00  0.00    +0.000 A 
ATOM     15  C   UNL     1      -3.217  11.460  18.294  0.00  0.00    +0.000 A 
ATOM     16  C   UNL     1      -2.091  11.432  19.096  0.00  0.00    +0.000 A 
ATOM     17  O   UNL     1      -4.346  12.177  18.538  0.00  0.00    +0.000 OA
ATOM     18  C   UNL     1      -5.133  11.843  17.376  0.00  0.00    +0.000 C 
ATOM     19  O   UNL     1      -4.482  10.908  16.490  0.00  0.00    +0.000 OA
ENDBRANCH  10  11
ENDBRANCH   8  10
ENDBRANCH   4   6
BRANCH   5  20
ATOM     20  N   UNL     1       2.601   5.523  20.636  0.00  0.00    +0.000 N 
ATOM     21  H   UNL     1       1.662   5.159  20.814  0.00  0.00    +0.000 HD
ATOM     22  H   UNL     1       3.265   5.327  21.386  0.00  0.00    +0.000 HD
ENDBRANCH   5  20
BRANCH   1  23
ATOM     23  C   UNL     1       4.404   4.659  18.370  0.00  0.00    +0.000 C 
BRANCH  23  25
ATOM     24  N   UNL     1       5.776   4.666  16.344  0.00  0.00    +0.000 N 
ATOM     25  C   UNL     1       4.568   4.281  16.917  0.00  0.00    +0.000 C 
ATOM     26  O   UNL     1       3.641   3.707  16.345  0.00  0.00    +0.000 OA
ATOM     27  H   UNL     1       6.480   5.059  16.957  0.00  0.00    +0.000 HD
BRANCH  24  34
ATOM     28  C   UNL     1       8.837   5.986  12.698  0.00  0.00    +0.000 C 
ATOM     29  C   UNL     1       7.668   5.174  13.181  0.00  0.00    +0.000 A 
ATOM     30  C   UNL     1       7.001   4.310  12.306  0.00  0.00    +0.000 A 
ATOM     31  C   UNL     1       5.916   3.553  12.752  0.00  0.00    +0.000 A 
ATOM     32  C   UNL     1       5.189   2.620  11.826  0.00  0.00    +0.000 C 
ATOM     33  C   UNL     1       5.500   3.662  14.089  0.00  0.00    +0.000 A 
ATOM     34  C   UNL     1       6.152   4.515  14.985  0.00  0.00    +0.000 A 
ATOM     35  C   UNL     1       7.235   5.272  14.517  0.00  0.00    +0.000 A 
ENDBRANCH  24  34
ENDBRANCH  23  25
ENDBRANCH   1  23
TORSDOF 7
ENDMDL
MODEL 9
REMARK VINA RESULT:      -8.0      3.302      4.806
REMARK  Name = 
REMARK  9 active torsions:
REMARK  status: ('A' for Active; 'I' for Inactive)
REMARK    1  A    between atoms: C_1  and  C_2
REMARK    2  A    between atoms: C_4  and  C_5
REMARK    3  A    between atoms: C_7  and  N_8
REMARK    4  A    between atoms: C_9  and  C_11
REMARK    5  A    between atoms: C_11  and  N_12
REMARK    6  A    between atoms: C_15  and  C_16
REMARK    7  A    between atoms: N_18  and  C_19
REMARK    8  A    between atoms: C_19  and  C_20
REMARK    9  A    between atoms: C_29  and  N_30
REMARK                            x       y       z     vdW  Elec       q    Type
REMARK                         _______ _______ _______ _____ _____    ______ ____
ROOT
ATOM      1  N   UNL     1       0.561   9.942  20.037  0.00  0.00    +0.000 N 
ATOM      2  N   UNL     1       1.281   9.945  18.897  0.00  0.00    +0.000 NA
ATOM      3  N   UNL     1       1.921   8.788  18.830  0.00  0.00    +0.000 NA
ATOM      4  C   UNL     1       1.591   8.036  19.940  0.00  0.00    +0.000 A 
ATOM      5  C   UNL     1       0.730   8.774  20.740  0.00  0.00    +0.000 A 
ENDROOT
BRANCH   4   6
ATOM      6  C   UNL     1       2.106   6.685  20.141  0.00  0.00    +0.000 C 
ATOM      7  O   UNL     1       1.513   5.822  20.782  0.00  0.00    +0.000 OA
ATOM      8  N   UNL     1       3.322   6.469  19.526  0.00  0.00    +0.000 N 
ATOM      9  H   UNL     1       3.799   7.274  19.138  0.00  0.00    +0.000 HD
BRANCH   8  10
ATOM     10  C   UNL     1       4.016   5.205  19.589  0.00  0.00    +0.000 C 
BRANCH  10  11
ATOM     11  C   UNL     1       5.027   5.080  18.473  0.00  0.00    +0.000 A 
ATOM     12  C   UNL     1       6.411   5.205  18.748  0.00  0.00    +0.000 A 
ATOM     13  C   UNL     1       7.367   5.117  17.732  0.00  0.00    +0.000 A 
ATOM     14  C   UNL     1       6.917   4.906  16.449  0.00  0.00    +0.000 A 
ATOM     15  C   UNL     1       5.580   4.785  16.162  0.00  0.00    +0.000 A 
ATOM     16  C   UNL     1       4.612   4.865  17.147  0.00  0.00    +0.000 A 
ATOM     17  O   UNL     1       5.347   4.589  14.837  0.00  0.00    +0.000 OA
ATOM     18  C   UNL     1       6.693   4.627  14.319  0.00  0.00    +0.000 C 
ATOM     19  O   UNL     1       7.697   4.800  15.340  0.00  0.00    +0.000 OA
ENDBRANCH  10  11
ENDBRANCH   8  10
ENDBRANCH   4   6
BRANCH   5  20
ATOM     20  N   UNL     1       0.142   8.540  21.933  0.00  0.00    +0.000 N 
ATOM     21  H   UNL     1      -0.597   7.838  22.020  0.00  0.00    +0.000 HD
ATOM     22  H   UNL     1       0.302   9.074  22.787  0.00  0.00    +0.000 HD
ENDBRANCH   5  20
BRANCH   1  23
ATOM     23  C   UNL     1      -0.146  11.140  20.420  0.00  0.00    +0.000 C 
BRANCH  23  25
ATOM     24  N   UNL     1       0.764  13.019  19.145  0.00  0.00    +0.000 N 
ATOM     25  C   UNL     1       0.728  12.371  20.376  0.00  0.00    +0.000 C 
ATOM     26  O   UNL     1       1.357  12.690  21.385  0.00  0.00    +0.000 OA
ATOM     27  H   UNL     1       0.132  12.693  18.425  0.00  0.00    +0.000 HD
BRANCH  24  34
ATOM     28  C   UNL     1       5.218  14.718  17.847  0.00  0.00    +0.000 C 
ATOM     29  C   UNL     1       3.772  14.977  18.165  0.00  0.00    +0.000 A 
ATOM     30  C   UNL     1       3.262  16.279  18.113  0.00  0.00    +0.000 A 
ATOM     31  C   UNL     1       1.920  16.524  18.405  0.00  0.00    +0.000 A 
ATOM     32  C   UNL     1       1.356  17.915  18.354  0.00  0.00    +0.000 C 
ATOM     33  C   UNL     1       1.080  15.451  18.748  0.00  0.00    +0.000 A 
ATOM     34  C   UNL     1       1.564  14.140  18.804  0.00  0.00    +0.000 A 
ATOM     35  C   UNL     1       2.916  13.916  18.514  0.00  0.00    +0.000 A 
ENDBRANCH  24  34
ENDBRANCH  23  25
ENDBRANCH   1  23
TORSDOF 7
ENDMDL
