MODEL 1
REMARK VINA RESULT:      -7.4      0.000      0.000
REMARK  Name = 
REMARK  6 active torsions:
REMARK  status: ('A' for Active; 'I' for Inactive)
REMARK    1  A    between atoms: C_1  and  C_2
REMARK    2  A    between atoms: C_2  and  C_3
REMARK    3  A    between atoms: C_2  and  N_9
REMARK    4  A    between atoms: N_9  and  C_10
REMARK    5  A    between atoms: N_9  and  C_11
REMARK    6  A    between atoms: C_11  and  C_12
REMARK                            x       y       z     vdW  Elec       q    Type
REMARK                         _______ _______ _______ _____ _____    ______ ____
ROOT
ATOM      1  N   UNL     1       3.066   6.984  17.989  0.00  0.00    +0.000 NA
ATOM      2  C   UNL     1       2.218   8.173  17.820  0.00  0.00    +0.000 C 
ENDROOT
BRANCH   1   4
ATOM      3  C   UNL     1       1.946   7.073  20.287  0.00  0.00    +0.000 C 
ATOM      4  C   UNL     1       2.900   6.343  19.321  0.00  0.00    +0.000 C 
BRANCH   4   5
ATOM      5  C   UNL     1       2.574   4.848  19.217  0.00  0.00    +0.000 A 
ATOM      6  C   UNL     1       1.909   4.294  18.115  0.00  0.00    +0.000 A 
ATOM      7  C   UNL     1       1.605   2.940  18.113  0.00  0.00    +0.000 A 
ATOM      8  N   UNL     1       1.921   2.098  19.117  0.00  0.00    +0.000 NA
ATOM      9  C   UNL     1       2.583   2.636  20.163  0.00  0.00    +0.000 A 
ATOM     10  C   UNL     1       2.932   3.977  20.256  0.00  0.00    +0.000 A 
ENDBRANCH   4   5
ENDBRANCH   1   4
BRANCH   1  11
ATOM     11  C   UNL     1       4.462   7.373  17.691  0.00  0.00    +0.000 C 
BRANCH  11  12
ATOM     12  C   UNL     1       5.289   6.327  16.996  0.00  0.00    +0.000 A 
ATOM     13  C   UNL     1       5.088   5.985  15.633  0.00  0.00    +0.000 A 
ATOM     14  C   UNL     1       5.892   5.055  14.922  0.00  0.00    +0.000 A 
ATOM     15  C   UNL     1       6.971   4.368  15.503  0.00  0.00    +0.000 A 
ATOM     16  C   UNL     1       7.194   4.679  16.857  0.00  0.00    +0.000 A 
ATOM     17  N   UNL     1       8.133   4.206  17.684  0.00  0.00    +0.000 NA
ATOM     18  O   UNL     1       7.922   4.841  18.894  0.00  0.00    +0.000 OA
ATOM     19  N   UNL     1       6.857   5.721  18.837  0.00  0.00    +0.000 NA
ATOM     20  C   UNL     1       6.375   5.638  17.588  0.00  0.00    +0.000 A 
ENDBRANCH  11  12
ENDBRANCH   1  11
TORSDOF 4
ENDMDL
MODEL 2
REMARK VINA RESULT:      -7.2      2.091      3.856
REMARK  Name = 
REMARK  6 active torsions:
REMARK  status: ('A' for Active; 'I' for Inactive)
REMARK    1  A    between atoms: C_1  and  C_2
REMARK    2  A    between atoms: C_2  and  C_3
REMARK    3  A    between atoms: C_2  and  N_9
REMARK    4  A    between atoms: N_9  and  C_10
REMARK    5  A    between atoms: N_9  and  C_11
REMARK    6  A    between atoms: C_11  and  C_12
REMARK                            x       y       z     vdW  Elec       q    Type
REMARK                         _______ _______ _______ _____ _____    ______ ____
ROOT
ATOM      1  N   UNL     1       3.371   2.919  18.412  0.00  0.00    +0.000 NA
ATOM      2  C   UNL     1       3.283   1.482  18.711  0.00  0.00    +0.000 C 
ENDROOT
BRANCH   1   4
ATOM      3  C   UNL     1       0.872   2.745  18.931  0.00  0.00    +0.000 C 
ATOM      4  C   UNL     1       2.039   3.580  18.367  0.00  0.00    +0.000 C 
BRANCH   4   5
ATOM      5  C   UNL     1       2.065   4.996  18.955  0.00  0.00    +0.000 A 
ATOM      6  C   UNL     1       1.770   5.261  20.299  0.00  0.00    +0.000 A 
ATOM      7  C   UNL     1       1.768   6.574  20.749  0.00  0.00    +0.000 A 
ATOM      8  N   UNL     1       2.044   7.637  19.967  0.00  0.00    +0.000 NA
ATOM      9  C   UNL     1       2.350   7.369  18.680  0.00  0.00    +0.000 A 
ATOM     10  C   UNL     1       2.380   6.091  18.137  0.00  0.00    +0.000 A 
ENDBRANCH   4   5
ENDBRANCH   1   4
BRANCH   1  11
ATOM     11  C   UNL     1       4.151   3.078  17.165  0.00  0.00    +0.000 C 
BRANCH  11  12
ATOM     12  C   UNL     1       5.240   4.114  17.214  0.00  0.00    +0.000 A 
ATOM     13  C   UNL     1       5.627   4.749  18.423  0.00  0.00    +0.000 A 
ATOM     14  C   UNL     1       6.696   5.679  18.523  0.00  0.00    +0.000 A 
ATOM     15  C   UNL     1       7.480   6.072  17.425  0.00  0.00    +0.000 A 
ATOM     16  C   UNL     1       7.119   5.464  16.209  0.00  0.00    +0.000 A 
ATOM     17  N   UNL     1       7.665   5.620  14.997  0.00  0.00    +0.000 NA
ATOM     18  O   UNL     1       6.950   4.790  14.154  0.00  0.00    +0.000 OA
ATOM     19  N   UNL     1       5.956   4.102  14.826  0.00  0.00    +0.000 NA
ATOM     20  C   UNL     1       6.027   4.504  16.103  0.00  0.00    +0.000 A 
ENDBRANCH  11  12
ENDBRANCH   1  11
TORSDOF 4
ENDMDL
MODEL 3
REMARK VINA RESULT:      -7.2      1.479      3.513
REMARK  Name = 
REMARK  6 active torsions:
REMARK  status: ('A' for Active; 'I' for Inactive)
REMARK    1  A    between atoms: C_1  and  C_2
REMARK    2  A    between atoms: C_2  and  C_3
REMARK    3  A    between atoms: C_2  and  N_9
REMARK    4  A    between atoms: N_9  and  C_10
REMARK    5  A    between atoms: N_9  and  C_11
REMARK    6  A    between atoms: C_11  and  C_12
REMARK                            x       y       z     vdW  Elec       q    Type
REMARK                         _______ _______ _______ _____ _____    ______ ____
ROOT
ATOM      1  N   UNL     1       3.418   3.664  19.919  0.00  0.00    +0.000 NA
ATOM      2  C   UNL     1       3.176   2.698  21.001  0.00  0.00    +0.000 C 
ENDROOT
BRANCH   1   4
ATOM      3  C   UNL     1       0.862   3.566  19.872  0.00  0.00    +0.000 C 
ATOM      4  C   UNL     1       2.160   4.204  19.337  0.00  0.00    +0.000 C 
BRANCH   4   5
ATOM      5  C   UNL     1       2.103   5.736  19.377  0.00  0.00    +0.000 A 
ATOM      6  C   UNL     1       1.717   6.448  20.521  0.00  0.00    +0.000 A 
ATOM      7  C   UNL     1       1.644   7.833  20.468  0.00  0.00    +0.000 A 
ATOM      8  N   UNL     1       1.933   8.558  19.370  0.00  0.00    +0.000 NA
ATOM      9  C   UNL     1       2.327   7.865  18.281  0.00  0.00    +0.000 A 
ATOM     10  C   UNL     1       2.432   6.481  18.236  0.00  0.00    +0.000 A 
ENDBRANCH   4   5
ENDBRANCH   1   4
BRANCH   1  11
ATOM     11  C   UNL     1       4.301   3.020  18.922  0.00  0.00    +0.000 C 
BRANCH  11  12
ATOM     12  C   UNL     1       5.047   3.962  18.018  0.00  0.00    +0.000 A 
ATOM     13  C   UNL     1       4.713   4.121  16.648  0.00  0.00    +0.000 A 
ATOM     14  C   UNL     1       5.346   5.049  15.779  0.00  0.00    +0.000 A 
ATOM     15  C   UNL     1       6.381   5.905  16.190  0.00  0.00    +0.000 A 
ATOM     16  C   UNL     1       6.741   5.770  17.544  0.00  0.00    +0.000 A 
ATOM     17  N   UNL     1       7.675   6.435  18.235  0.00  0.00    +0.000 NA
ATOM     18  O   UNL     1       7.617   5.932  19.522  0.00  0.00    +0.000 OA
ATOM     19  N   UNL     1       6.646   4.955  19.653  0.00  0.00    +0.000 NA
ATOM     20  C   UNL     1       6.089   4.823  18.440  0.00  0.00    +0.000 A 
ENDBRANCH  11  12
ENDBRANCH   1  11
TORSDOF 4
ENDMDL
MODEL 4
REMARK VINA RESULT:      -7.1      1.470      3.339
REMARK  Name = 
REMARK  6 active torsions:
REMARK  status: ('A' for Active; 'I' for Inactive)
REMARK    1  A    between atoms: C_1  and  C_2
REMARK    2  A    between atoms: C_2  and  C_3
REMARK    3  A    between atoms: C_2  and  N_9
REMARK    4  A    between atoms: N_9  and  C_10
REMARK    5  A    between atoms: N_9  and  C_11
REMARK    6  A    between atoms: C_11  and  C_12
REMARK                            x       y       z     vdW  Elec       q    Type
REMARK                         _______ _______ _______ _____ _____    ______ ____
ROOT
ATOM      1  N   UNL     1       3.474   3.590  19.535  0.00  0.00    +0.000 NA
ATOM      2  C   UNL     1       3.553   2.473  20.487  0.00  0.00    +0.000 C 
ENDROOT
BRANCH   1   4
ATOM      3  C   UNL     1       1.049   3.524  20.345  0.00  0.00    +0.000 C 
ATOM      4  C   UNL     1       2.091   4.116  19.375  0.00  0.00    +0.000 C 
BRANCH   4   5
ATOM      5  C   UNL     1       2.043   5.648  19.349  0.00  0.00    +0.000 A 
ATOM      6  C   UNL     1       2.368   6.395  18.208  0.00  0.00    +0.000 A 
ATOM      7  C   UNL     1       2.349   7.781  18.273  0.00  0.00    +0.000 A 
ATOM      8  N   UNL     1       2.023   8.476  19.381  0.00  0.00    +0.000 NA
ATOM      9  C   UNL     1       1.689   7.747  20.468  0.00  0.00    +0.000 A 
ATOM     10  C   UNL     1       1.677   6.360  20.501  0.00  0.00    +0.000 A 
ENDBRANCH   4   5
ENDBRANCH   1   4
BRANCH   1  11
ATOM     11  C   UNL     1       4.088   3.150  18.263  0.00  0.00    +0.000 C 
BRANCH  11  12
ATOM     12  C   UNL     1       5.087   4.102  17.665  0.00  0.00    +0.000 A 
ATOM     13  C   UNL     1       5.070   4.451  16.289  0.00  0.00    +0.000 A 
ATOM     14  C   UNL     1       5.950   5.398  15.701  0.00  0.00    +0.000 A 
ATOM     15  C   UNL     1       6.939   6.084  16.425  0.00  0.00    +0.000 A 
ATOM     16  C   UNL     1       6.986   5.757  17.793  0.00  0.00    +0.000 A 
ATOM     17  N   UNL     1       7.800   6.233  18.743  0.00  0.00    +0.000 NA
ATOM     18  O   UNL     1       7.424   5.596  19.912  0.00  0.00    +0.000 OA
ATOM     19  N   UNL     1       6.372   4.723  19.709  0.00  0.00    +0.000 NA
ATOM     20  C   UNL     1       6.080   4.791  18.402  0.00  0.00    +0.000 A 
ENDBRANCH  11  12
ENDBRANCH   1  11
TORSDOF 4
ENDMDL
MODEL 5
REMARK VINA RESULT:      -7.1      2.047      4.944
REMARK  Name = 
REMARK  6 active torsions:
REMARK  status: ('A' for Active; 'I' for Inactive)
REMARK    1  A    between atoms: C_1  and  C_2
REMARK    2  A    between atoms: C_2  and  C_3
REMARK    3  A    between atoms: C_2  and  N_9
REMARK    4  A    between atoms: N_9  and  C_10
REMARK    5  A    between atoms: N_9  and  C_11
REMARK    6  A    between atoms: C_11  and  C_12
REMARK                            x       y       z     vdW  Elec       q    Type
REMARK                         _______ _______ _______ _____ _____    ______ ____
ROOT
ATOM      1  N   UNL     1       4.399   4.851  16.637  0.00  0.00    +0.000 NA
ATOM      2  C   UNL     1       5.383   4.859  15.545  0.00  0.00    +0.000 C 
ENDROOT
BRANCH   1   4
ATOM      3  C   UNL     1       6.170   6.407  17.630  0.00  0.00    +0.000 C 
ATOM      4  C   UNL     1       4.806   5.705  17.785  0.00  0.00    +0.000 C 
BRANCH   4   5
ATOM      5  C   UNL     1       3.704   6.682  18.211  0.00  0.00    +0.000 A 
ATOM      6  C   UNL     1       3.327   7.782  17.428  0.00  0.00    +0.000 A 
ATOM      7  C   UNL     1       2.353   8.652  17.900  0.00  0.00    +0.000 A 
ATOM      8  N   UNL     1       1.725   8.504  19.083  0.00  0.00    +0.000 NA
ATOM      9  C   UNL     1       2.078   7.428  19.818  0.00  0.00    +0.000 A 
ATOM     10  C   UNL     1       3.038   6.503  19.431  0.00  0.00    +0.000 A 
ENDBRANCH   4   5
ENDBRANCH   1   4
BRANCH   1  11
ATOM     11  C   UNL     1       4.144   3.442  17.010  0.00  0.00    +0.000 C 
BRANCH  11  12
ATOM     12  C   UNL     1       3.229   3.243  18.188  0.00  0.00    +0.000 A 
ATOM     13  C   UNL     1       1.827   3.446  18.100  0.00  0.00    +0.000 A 
ATOM     14  C   UNL     1       0.923   3.202  19.167  0.00  0.00    +0.000 A 
ATOM     15  C   UNL     1       1.328   2.737  20.430  0.00  0.00    +0.000 A 
ATOM     16  C   UNL     1       2.715   2.531  20.552  0.00  0.00    +0.000 A 
ATOM     17  N   UNL     1       3.409   2.095  21.610  0.00  0.00    +0.000 NA
ATOM     18  O   UNL     1       4.730   2.059  21.203  0.00  0.00    +0.000 OA
ATOM     19  N   UNL     1       4.877   2.465  19.889  0.00  0.00    +0.000 NA
ATOM     20  C   UNL     1       3.646   2.774  19.457  0.00  0.00    +0.000 A 
ENDBRANCH  11  12
ENDBRANCH   1  11
TORSDOF 4
ENDMDL
MODEL 6
REMARK VINA RESULT:      -7.1      1.624      1.961
REMARK  Name = 
REMARK  6 active torsions:
REMARK  status: ('A' for Active; 'I' for Inactive)
REMARK    1  A    between atoms: C_1  and  C_2
REMARK    2  A    between atoms: C_2  and  C_3
REMARK    3  A    between atoms: C_2  and  N_9
REMARK    4  A    between atoms: N_9  and  C_10
REMARK    5  A    between atoms: N_9  and  C_11
REMARK    6  A    between atoms: C_11  and  C_12
REMARK                            x       y       z     vdW  Elec       q    Type
REMARK                         _______ _______ _______ _____ _____    ______ ____
ROOT
ATOM      1  N   UNL     1       2.495   6.982  18.498  0.00  0.00    +0.000 NA
ATOM      2  C   UNL     1       1.722   8.164  18.089  0.00  0.00    +0.000 C 
ENDROOT
BRANCH   1   4
ATOM      3  C   UNL     1       1.433   7.630  20.734  0.00  0.00    +0.000 C 
ATOM      4  C   UNL     1       2.349   6.671  19.946  0.00  0.00    +0.000 C 
BRANCH   4   5
ATOM      5  C   UNL     1       1.991   5.202  20.199  0.00  0.00    +0.000 A 
ATOM      6  C   UNL     1       2.341   4.532  21.379  0.00  0.00    +0.000 A 
ATOM      7  C   UNL     1       2.025   3.187  21.517  0.00  0.00    +0.000 A 
ATOM      8  N   UNL     1       1.383   2.466  20.577  0.00  0.00    +0.000 NA
ATOM      9  C   UNL     1       1.029   3.127  19.454  0.00  0.00    +0.000 A 
ATOM     10  C   UNL     1       1.298   4.469  19.224  0.00  0.00    +0.000 A 
ENDBRANCH   4   5
ENDBRANCH   1   4
BRANCH   1  11
ATOM     11  C   UNL     1       3.898   7.186  18.078  0.00  0.00    +0.000 C 
BRANCH  11  12
ATOM     12  C   UNL     1       4.530   6.028  17.356  0.00  0.00    +0.000 A 
ATOM     13  C   UNL     1       3.844   4.805  17.141  0.00  0.00    +0.000 A 
ATOM     14  C   UNL     1       4.379   3.714  16.405  0.00  0.00    +0.000 A 
ATOM     15  C   UNL     1       5.655   3.733  15.818  0.00  0.00    +0.000 A 
ATOM     16  C   UNL     1       6.366   4.931  16.018  0.00  0.00    +0.000 A 
ATOM     17  N   UNL     1       7.589   5.264  15.589  0.00  0.00    +0.000 NA
ATOM     18  O   UNL     1       7.810   6.550  16.045  0.00  0.00    +0.000 OA
ATOM     19  N   UNL     1       6.729   7.039  16.757  0.00  0.00    +0.000 NA
ATOM     20  C   UNL     1       5.817   6.055  16.767  0.00  0.00    +0.000 A 
ENDBRANCH  11  12
ENDBRANCH   1  11
TORSDOF 4
ENDMDL
MODEL 7
REMARK VINA RESULT:      -7.1      2.069      3.746
REMARK  Name = 
REMARK  6 active torsions:
REMARK  status: ('A' for Active; 'I' for Inactive)
REMARK    1  A    between atoms: C_1  and  C_2
REMARK    2  A    between atoms: C_2  and  C_3
REMARK    3  A    between atoms: C_2  and  N_9
REMARK    4  A    between atoms: N_9  and  C_10
REMARK    5  A    between atoms: N_9  and  C_11
REMARK    6  A    between atoms: C_11  and  C_12
REMARK                            x       y       z     vdW  Elec       q    Type
REMARK                         _______ _______ _______ _____ _____    ______ ____
ROOT
ATOM      1  N   UNL     1       3.479   3.200  18.919  0.00  0.00    +0.000 NA
ATOM      2  C   UNL     1       3.497   1.831  19.454  0.00  0.00    +0.000 C 
ENDROOT
BRANCH   1   4
ATOM      3  C   UNL     1       1.011   2.959  19.545  0.00  0.00    +0.000 C 
ATOM      4  C   UNL     1       2.104   3.757  18.807  0.00  0.00    +0.000 C 
BRANCH   4   5
ATOM      5  C   UNL     1       2.046   5.252  19.143  0.00  0.00    +0.000 A 
ATOM      6  C   UNL     1       2.318   6.250  18.197  0.00  0.00    +0.000 A 
ATOM      7  C   UNL     1       2.294   7.582  18.587  0.00  0.00    +0.000 A 
ATOM      8  N   UNL     1       2.011   7.993  19.839  0.00  0.00    +0.000 NA
ATOM      9  C   UNL     1       1.727   7.025  20.737  0.00  0.00    +0.000 A 
ATOM     10  C   UNL     1       1.725   5.669  20.443  0.00  0.00    +0.000 A 
ENDBRANCH   4   5
ENDBRANCH   1   4
BRANCH   1  11
ATOM     11  C   UNL     1       4.221   3.199  17.639  0.00  0.00    +0.000 C 
BRANCH  11  12
ATOM     12  C   UNL     1       5.297   4.243  17.517  0.00  0.00    +0.000 A 
ATOM     13  C   UNL     1       5.746   5.001  18.629  0.00  0.00    +0.000 A 
ATOM     14  C   UNL     1       6.806   5.945  18.570  0.00  0.00    +0.000 A 
ATOM     15  C   UNL     1       7.518   6.230  17.393  0.00  0.00    +0.000 A 
ATOM     16  C   UNL     1       7.094   5.498  16.268  0.00  0.00    +0.000 A 
ATOM     17  N   UNL     1       7.565   5.534  15.016  0.00  0.00    +0.000 NA
ATOM     18  O   UNL     1       6.813   4.617  14.306  0.00  0.00    +0.000 OA
ATOM     19  N   UNL     1       5.870   3.994  15.103  0.00  0.00    +0.000 NA
ATOM     20  C   UNL     1       6.011   4.524  16.327  0.00  0.00    +0.000 A 
ENDBRANCH  11  12
ENDBRANCH   1  11
TORSDOF 4
ENDMDL
MODEL 8
REMARK VINA RESULT:      -7.1      2.066      5.157
REMARK  Name = 
REMARK  6 active torsions:
REMARK  status: ('A' for Active; 'I' for Inactive)
REMARK    1  A    between atoms: C_1  and  C_2
REMARK    2  A    between atoms: C_2  and  C_3
REMARK    3  A    between atoms: C_2  and  N_9
REMARK    4  A    between atoms: N_9  and  C_10
REMARK    5  A    between atoms: N_9  and  C_11
REMARK    6  A    between atoms: C_11  and  C_12
REMARK                            x       y       z     vdW  Elec       q    Type
REMARK                         _______ _______ _______ _____ _____    ______ ____
ROOT
ATOM      1  N   UNL     1       4.402   4.522  16.712  0.00  0.00    +0.000 NA
ATOM      2  C   UNL     1       5.376   4.391  15.618  0.00  0.00    +0.000 C 
ENDROOT
BRANCH   1   4
ATOM      3  C   UNL     1       6.277   6.026  17.589  0.00  0.00    +0.000 C 
ATOM      4  C   UNL     1       4.889   5.393  17.816  0.00  0.00    +0.000 C 
BRANCH   4   5
ATOM      5  C   UNL     1       3.849   6.435  18.245  0.00  0.00    +0.000 A 
ATOM      6  C   UNL     1       3.163   6.359  19.465  0.00  0.00    +0.000 A 
ATOM      7  C   UNL     1       2.200   7.312  19.765  0.00  0.00    +0.000 A 
ATOM      8  N   UNL     1       1.877   8.335  18.949  0.00  0.00    +0.000 NA
ATOM      9  C   UNL     1       2.560   8.413  17.787  0.00  0.00    +0.000 A 
ATOM     10  C   UNL     1       3.540   7.510  17.399  0.00  0.00    +0.000 A 
ENDBRANCH   4   5
ENDBRANCH   1   4
BRANCH   1  11
ATOM     11  C   UNL     1       4.028   3.161  17.155  0.00  0.00    +0.000 C 
BRANCH  11  12
ATOM     12  C   UNL     1       3.073   3.101  18.316  0.00  0.00    +0.000 A 
ATOM     13  C   UNL     1       1.691   3.394  18.175  0.00  0.00    +0.000 A 
ATOM     14  C   UNL     1       0.746   3.282  19.229  0.00  0.00    +0.000 A 
ATOM     15  C   UNL     1       1.086   2.872  20.528  0.00  0.00    +0.000 A 
ATOM     16  C   UNL     1       2.451   2.578  20.704  0.00  0.00    +0.000 A 
ATOM     17  N   UNL     1       3.086   2.162  21.806  0.00  0.00    +0.000 NA
ATOM     18  O   UNL     1       4.411   2.010  21.440  0.00  0.00    +0.000 OA
ATOM     19  N   UNL     1       4.619   2.320  20.109  0.00  0.00    +0.000 NA
ATOM     20  C   UNL     1       3.424   2.686  19.623  0.00  0.00    +0.000 A 
ENDBRANCH  11  12
ENDBRANCH   1  11
TORSDOF 4
ENDMDL
MODEL 9
REMARK VINA RESULT:      -7.0      2.074      3.971
REMARK  Name = 
REMARK  6 active torsions:
REMARK  status: ('A' for Active; 'I' for Inactive)
REMARK    1  A    between atoms: C_1  and  C_2
REMARK    2  A    between atoms: C_2  and  C_3
REMARK    3  A    between atoms: C_2  and  N_9
REMARK    4  A    between atoms: N_9  and  C_10
REMARK    5  A    between atoms: N_9  and  C_11
REMARK    6  A    between atoms: C_11  and  C_12
REMARK                            x       y       z     vdW  Elec       q    Type
REMARK                         _______ _______ _______ _____ _____    ______ ____
ROOT
ATOM      1  N   UNL     1       3.417   4.112  19.519  0.00  0.00    +0.000 NA
ATOM      2  C   UNL     1       2.599   2.971  19.954  0.00  0.00    +0.000 C 
ENDROOT
BRANCH   1   4
ATOM      3  C   UNL     1       1.609   4.213  17.712  0.00  0.00    +0.000 C 
ATOM      4  C   UNL     1       2.762   4.919  18.454  0.00  0.00    +0.000 C 
BRANCH   4   5
ATOM      5  C   UNL     1       2.359   6.316  18.940  0.00  0.00    +0.000 A 
ATOM      6  C   UNL     1       1.980   6.576  20.264  0.00  0.00    +0.000 A 
ATOM      7  C   UNL     1       1.582   7.857  20.620  0.00  0.00    +0.000 A 
ATOM      8  N   UNL     1       1.541   8.895  19.762  0.00  0.00    +0.000 NA
ATOM      9  C   UNL     1       1.931   8.641  18.495  0.00  0.00    +0.000 A 
ATOM     10  C   UNL     1       2.346   7.395  18.044  0.00  0.00    +0.000 A 
ENDBRANCH   4   5
ENDBRANCH   1   4
BRANCH   1  11
ATOM     11  C   UNL     1       4.749   3.597  19.133  0.00  0.00    +0.000 C 
BRANCH  11  12
ATOM     12  C   UNL     1       5.648   4.586  18.443  0.00  0.00    +0.000 A 
ATOM     13  C   UNL     1       6.511   5.454  19.161  0.00  0.00    +0.000 A 
ATOM     14  C   UNL     1       7.424   6.351  18.546  0.00  0.00    +0.000 A 
ATOM     15  C   UNL     1       7.561   6.476  17.153  0.00  0.00    +0.000 A 
ATOM     16  C   UNL     1       6.714   5.632  16.410  0.00  0.00    +0.000 A 
ATOM     17  N   UNL     1       6.607   5.508  15.082  0.00  0.00    +0.000 NA
ATOM     18  O   UNL     1       5.644   4.539  14.873  0.00  0.00    +0.000 OA
ATOM     19  N   UNL     1       5.144   4.041  16.062  0.00  0.00    +0.000 NA
ATOM     20  C   UNL     1       5.781   4.705  17.038  0.00  0.00    +0.000 A 
ENDBRANCH  11  12
ENDBRANCH   1  11
TORSDOF 4
ENDMDL
