MODEL 1
REMARK VINA RESULT:     -10.2      0.000      0.000
REMARK  Name = 
REMARK  9 active torsions:
REMARK  status: ('A' for Active; 'I' for Inactive)
REMARK    1  A    between atoms: C_1  and  C_2
REMARK    2  A    between atoms: C_3  and  C_4
REMARK    3  A    between atoms: C_4  and  C_5
REMARK    4  A    between atoms: C_5  and  O_7
REMARK    5  A    between atoms: C_16  and  C_17
REMARK    6  A    between atoms: C_20  and  S_21
REMARK    7  A    between atoms: S_21  and  N_24
REMARK    8  A    between atoms: N_24  and  C_25
REMARK    9  A    between atoms: C_25  and  C_26
REMARK                            x       y       z     vdW  Elec       q    Type
REMARK                         _______ _______ _______ _____ _____    ______ ____
ROOT
ATOM      1  C   UNL     1       2.550   6.959  18.420  0.00  0.00    +0.000 A 
ATOM      2  C   UNL     1       2.127   7.980  17.547  0.00  0.00    +0.000 A 
ATOM      3  C   UNL     1       1.575   9.174  18.026  0.00  0.00    +0.000 A 
ATOM      4  C   UNL     1       1.330   9.320  19.392  0.00  0.00    +0.000 A 
ATOM      5  C   UNL     1       1.629   8.280  20.267  0.00  0.00    +0.000 A 
ATOM      6  C   UNL     1       2.246   7.122  19.784  0.00  0.00    +0.000 A 
ENDROOT
BRANCH   1  18
ATOM      7  C   UNL     1       5.395   7.346  17.568  0.00  0.00    +0.000 C 
ATOM      8  C   UNL     1       4.704   6.003  17.434  0.00  0.00    +0.000 A 
ATOM      9  C   UNL     1       5.397   4.934  16.816  0.00  0.00    +0.000 A 
ATOM     10  C   UNL     1       4.859   3.642  16.899  0.00  0.00    +0.000 A 
ATOM     11  C   UNL     1       3.645   3.381  17.539  0.00  0.00    +0.000 A 
ATOM     12  C   UNL     1       3.235   2.042  17.716  0.00  0.00    +0.000 A 
ATOM     13  C   UNL     1       2.042   1.732  18.362  0.00  0.00    +0.000 A 
ATOM     14  C   UNL     1       1.212   2.763  18.745  0.00  0.00    +0.000 A 
ATOM     15  F   UNL     1       0.051   2.490  19.354  0.00  0.00    +0.000 F 
ATOM     16  C   UNL     1       1.577   4.088  18.527  0.00  0.00    +0.000 A 
ATOM     17  C   UNL     1       2.850   4.453  18.009  0.00  0.00    +0.000 A 
ATOM     18  C   UNL     1       3.381   5.800  17.953  0.00  0.00    +0.000 A 
BRANCH   9  19
ATOM     19  C   UNL     1       6.757   5.084  16.145  0.00  0.00    +0.000 C 
BRANCH  19  20
ATOM     20  C   UNL     1       6.838   4.853  14.653  0.00  0.00    +0.000 C 
ATOM     21  O   UNL     1       6.042   4.151  14.047  0.00  0.00    +0.000 OA
BRANCH  20  22
ATOM     22  O   UNL     1       7.804   5.543  14.007  0.00  0.00    +0.000 OA
ATOM     23  H   UNL     1       8.619   5.677  14.530  0.00  0.00    +0.000 HD
ENDBRANCH  20  22
ENDBRANCH  19  20
ENDBRANCH   9  19
ENDBRANCH   1  18
BRANCH   4  24
ATOM     24  S   UNL     1       0.769  10.888  20.031  0.00  0.00    +0.000 S 
ATOM     25  O   UNL     1       1.234  10.984  21.396  0.00  0.00    +0.000 OA
ATOM     26  O   UNL     1       1.096  11.886  19.039  0.00  0.00    +0.000 OA
BRANCH  24  27
ATOM     27  N   UNL     1      -0.902  10.722  20.025  0.00  0.00    +0.000 NA
ATOM     28  H   UNL     1      -1.270  10.436  20.931  0.00  0.00    +0.000 HD
BRANCH  27  29
ATOM     29  C   UNL     1      -1.659  11.805  19.390  0.00  0.00    +0.000 C 
BRANCH  29  30
ATOM     30  C   UNL     1      -2.406  11.303  18.182  0.00  0.00    +0.000 A 
ATOM     31  C   UNL     1      -3.722  11.724  17.937  0.00  0.00    +0.000 A 
ATOM     32  C   UNL     1      -4.417  11.243  16.828  0.00  0.00    +0.000 A 
ATOM     33  C   UNL     1      -3.810  10.332  15.964  0.00  0.00    +0.000 A 
ATOM     34  C   UNL     1      -2.505   9.902  16.210  0.00  0.00    +0.000 A 
ATOM     35  C   UNL     1      -1.806  10.381  17.317  0.00  0.00    +0.000 A 
ENDBRANCH  29  30
ENDBRANCH  27  29
ENDBRANCH  24  27
ENDBRANCH   4  24
TORSDOF 8
ENDMDL
MODEL 2
REMARK VINA RESULT:     -10.1      0.923      1.313
REMARK  Name = 
REMARK  9 active torsions:
REMARK  status: ('A' for Active; 'I' for Inactive)
REMARK    1  A    between atoms: C_1  and  C_2
REMARK    2  A    between atoms: C_3  and  C_4
REMARK    3  A    between atoms: C_4  and  C_5
REMARK    4  A    between atoms: C_5  and  O_7
REMARK    5  A    between atoms: C_16  and  C_17
REMARK    6  A    between atoms: C_20  and  S_21
REMARK    7  A    between atoms: S_21  and  N_24
REMARK    8  A    between atoms: N_24  and  C_25
REMARK    9  A    between atoms: C_25  and  C_26
REMARK                            x       y       z     vdW  Elec       q    Type
REMARK                         _______ _______ _______ _____ _____    ______ ____
ROOT
ATOM      1  C   UNL     1       2.641   7.056  18.656  0.00  0.00    +0.000 A 
ATOM      2  C   UNL     1       2.454   7.129  20.050  0.00  0.00    +0.000 A 
ATOM      3  C   UNL     1       1.733   8.174  20.640  0.00  0.00    +0.000 A 
ATOM      4  C   UNL     1       1.283   9.233  19.851  0.00  0.00    +0.000 A 
ATOM      5  C   UNL     1       1.557   9.247  18.486  0.00  0.00    +0.000 A 
ATOM      6  C   UNL     1       2.215   8.162  17.898  0.00  0.00    +0.000 A 
ENDROOT
BRANCH   1  18
ATOM      7  C   UNL     1       5.021   7.192  16.843  0.00  0.00    +0.000 C 
ATOM      8  C   UNL     1       4.235   5.908  17.023  0.00  0.00    +0.000 A 
ATOM      9  C   UNL     1       4.588   4.774  16.253  0.00  0.00    +0.000 A 
ATOM     10  C   UNL     1       4.026   3.532  16.581  0.00  0.00    +0.000 A 
ATOM     11  C   UNL     1       3.102   3.384  17.617  0.00  0.00    +0.000 A 
ATOM     12  C   UNL     1       2.689   2.087  17.990  0.00  0.00    +0.000 A 
ATOM     13  C   UNL     1       1.783   1.888  19.027  0.00  0.00    +0.000 A 
ATOM     14  C   UNL     1       1.215   2.991  19.627  0.00  0.00    +0.000 A 
ATOM     15  F   UNL     1       0.328   2.826  20.617  0.00  0.00    +0.000 F 
ATOM     16  C   UNL     1       1.571   4.277  19.234  0.00  0.00    +0.000 A 
ATOM     17  C   UNL     1       2.601   4.526  18.285  0.00  0.00    +0.000 A 
ATOM     18  C   UNL     1       3.170   5.824  17.982  0.00  0.00    +0.000 A 
BRANCH   9  19
ATOM     19  C   UNL     1       5.631   4.798  15.141  0.00  0.00    +0.000 C 
BRANCH  19  20
ATOM     20  C   UNL     1       7.085   4.894  15.539  0.00  0.00    +0.000 C 
ATOM     21  O   UNL     1       7.515   4.447  16.592  0.00  0.00    +0.000 OA
BRANCH  20  22
ATOM     22  O   UNL     1       7.909   5.438  14.615  0.00  0.00    +0.000 OA
ATOM     23  H   UNL     1       7.464   5.702  13.787  0.00  0.00    +0.000 HD
ENDBRANCH  20  22
ENDBRANCH  19  20
ENDBRANCH   9  19
ENDBRANCH   1  18
BRANCH   4  24
ATOM     24  S   UNL     1       0.239  10.490  20.563  0.00  0.00    +0.000 S 
ATOM     25  O   UNL     1      -0.745   9.817  21.381  0.00  0.00    +0.000 OA
ATOM     26  O   UNL     1       1.113  11.507  21.099  0.00  0.00    +0.000 OA
BRANCH  24  27
ATOM     27  N   UNL     1      -0.519  11.157  19.220  0.00  0.00    +0.000 NA
ATOM     28  H   UNL     1      -0.156  10.786  18.343  0.00  0.00    +0.000 HD
BRANCH  27  29
ATOM     29  C   UNL     1      -1.982  11.236  19.274  0.00  0.00    +0.000 C 
BRANCH  29  30
ATOM     30  C   UNL     1      -2.586  10.964  17.921  0.00  0.00    +0.000 A 
ATOM     31  C   UNL     1      -3.823  11.527  17.570  0.00  0.00    +0.000 A 
ATOM     32  C   UNL     1      -4.386  11.259  16.324  0.00  0.00    +0.000 A 
ATOM     33  C   UNL     1      -3.727  10.421  15.425  0.00  0.00    +0.000 A 
ATOM     34  C   UNL     1      -2.501   9.851  15.773  0.00  0.00    +0.000 A 
ATOM     35  C   UNL     1      -1.934  10.116  17.018  0.00  0.00    +0.000 A 
ENDBRANCH  29  30
ENDBRANCH  27  29
ENDBRANCH  24  27
ENDBRANCH   4  24
TORSDOF 8
ENDMDL
MODEL 3
REMARK VINA RESULT:      -9.9      1.007      1.042
REMARK  Name = 
REMARK  9 active torsions:
REMARK  status: ('A' for Active; 'I' for Inactive)
REMARK    1  A    between atoms: C_1  and  C_2
REMARK    2  A    between atoms: C_3  and  C_4
REMARK    3  A    between atoms: C_4  and  C_5
REMARK    4  A    between atoms: C_5  and  O_7
REMARK    5  A    between atoms: C_16  and  C_17
REMARK    6  A    between atoms: C_20  and  S_21
REMARK    7  A    between atoms: S_21  and  N_24
REMARK    8  A    between atoms: N_24  and  C_25
REMARK    9  A    between atoms: C_25  and  C_26
REMARK                            x       y       z     vdW  Elec       q    Type
REMARK                         _______ _______ _______ _____ _____    ______ ____
ROOT
ATOM      1  C   UNL     1       2.345   7.047  18.492  0.00  0.00    +0.000 A 
ATOM      2  C   UNL     1       1.988   8.067  17.588  0.00  0.00    +0.000 A 
ATOM      3  C   UNL     1       1.580   9.331  18.031  0.00  0.00    +0.000 A 
ATOM      4  C   UNL     1       1.412   9.561  19.397  0.00  0.00    +0.000 A 
ATOM      5  C   UNL     1       1.643   8.534  20.308  0.00  0.00    +0.000 A 
ATOM      6  C   UNL     1       2.118   7.299  19.858  0.00  0.00    +0.000 A 
ENDROOT
BRANCH   1  18
ATOM      7  C   UNL     1       4.729   7.151  16.684  0.00  0.00    +0.000 C 
ATOM      8  C   UNL     1       4.101   5.832  17.090  0.00  0.00    +0.000 A 
ATOM      9  C   UNL     1       4.605   4.632  16.533  0.00  0.00    +0.000 A 
ATOM     10  C   UNL     1       4.190   3.408  17.078  0.00  0.00    +0.000 A 
ATOM     11  C   UNL     1       3.268   3.333  18.124  0.00  0.00    +0.000 A 
ATOM     12  C   UNL     1       3.008   2.082  18.722  0.00  0.00    +0.000 A 
ATOM     13  C   UNL     1       2.110   1.959  19.778  0.00  0.00    +0.000 A 
ATOM     14  C   UNL     1       1.401   3.073  20.173  0.00  0.00    +0.000 A 
ATOM     15  F   UNL     1       0.519   2.978  21.176  0.00  0.00    +0.000 F 
ATOM     16  C   UNL     1       1.606   4.304  19.556  0.00  0.00    +0.000 A 
ATOM     17  C   UNL     1       2.619   4.506  18.578  0.00  0.00    +0.000 A 
ATOM     18  C   UNL     1       3.033   5.789  18.049  0.00  0.00    +0.000 A 
BRANCH   9  19
ATOM     19  C   UNL     1       5.661   4.588  15.435  0.00  0.00    +0.000 C 
BRANCH  19  20
ATOM     20  C   UNL     1       7.090   4.898  15.816  0.00  0.00    +0.000 C 
ATOM     21  O   UNL     1       7.600   4.503  16.854  0.00  0.00    +0.000 OA
BRANCH  20  22
ATOM     22  O   UNL     1       7.806   5.579  14.893  0.00  0.00    +0.000 OA
ATOM     23  H   UNL     1       8.287   5.012  14.260  0.00  0.00    +0.000 HD
ENDBRANCH  20  22
ENDBRANCH  19  20
ENDBRANCH   9  19
ENDBRANCH   1  18
BRANCH   4  24
ATOM     24  S   UNL     1       1.040  11.204  19.981  0.00  0.00    +0.000 S 
ATOM     25  O   UNL     1       0.803  11.108  21.404  0.00  0.00    +0.000 OA
ATOM     26  O   UNL     1       2.045  12.083  19.429  0.00  0.00    +0.000 OA
BRANCH  24  27
ATOM     27  N   UNL     1      -0.404  11.564  19.201  0.00  0.00    +0.000 NA
ATOM     28  H   UNL     1      -0.259  11.985  18.285  0.00  0.00    +0.000 HD
BRANCH  27  29
ATOM     29  C   UNL     1      -1.429  10.516  19.220  0.00  0.00    +0.000 C 
BRANCH  29  30
ATOM     30  C   UNL     1      -2.298  10.591  17.991  0.00  0.00    +0.000 A 
ATOM     31  C   UNL     1      -3.471  11.361  17.998  0.00  0.00    +0.000 A 
ATOM     32  C   UNL     1      -4.281  11.413  16.865  0.00  0.00    +0.000 A 
ATOM     33  C   UNL     1      -3.934  10.692  15.723  0.00  0.00    +0.000 A 
ATOM     34  C   UNL     1      -2.773   9.917  15.715  0.00  0.00    +0.000 A 
ATOM     35  C   UNL     1      -1.960   9.861  16.846  0.00  0.00    +0.000 A 
ENDBRANCH  29  30
ENDBRANCH  27  29
ENDBRANCH  24  27
ENDBRANCH   4  24
TORSDOF 8
ENDMDL
MODEL 4
REMARK VINA RESULT:      -9.9      0.944      1.575
REMARK  Name = 
REMARK  9 active torsions:
REMARK  status: ('A' for Active; 'I' for Inactive)
REMARK    1  A    between atoms: C_1  and  C_2
REMARK    2  A    between atoms: C_3  and  C_4
REMARK    3  A    between atoms: C_4  and  C_5
REMARK    4  A    between atoms: C_5  and  O_7
REMARK    5  A    between atoms: C_16  and  C_17
REMARK    6  A    between atoms: C_20  and  S_21
REMARK    7  A    between atoms: S_21  and  N_24
REMARK    8  A    between atoms: N_24  and  C_25
REMARK    9  A    between atoms: C_25  and  C_26
REMARK                            x       y       z     vdW  Elec       q    Type
REMARK                         _______ _______ _______ _____ _____    ______ ____
ROOT
ATOM      1  C   UNL     1       2.619   6.985  18.663  0.00  0.00    +0.000 A 
ATOM      2  C   UNL     1       2.416   7.095  20.053  0.00  0.00    +0.000 A 
ATOM      3  C   UNL     1       1.686   8.154  20.606  0.00  0.00    +0.000 A 
ATOM      4  C   UNL     1       1.242   9.189  19.783  0.00  0.00    +0.000 A 
ATOM      5  C   UNL     1       1.532   9.167  18.422  0.00  0.00    +0.000 A 
ATOM      6  C   UNL     1       2.199   8.069  17.871  0.00  0.00    +0.000 A 
ENDROOT
BRANCH   1  18
ATOM      7  C   UNL     1       4.967   7.090  16.807  0.00  0.00    +0.000 C 
ATOM      8  C   UNL     1       4.207   5.801  17.050  0.00  0.00    +0.000 A 
ATOM      9  C   UNL     1       4.568   4.644  16.318  0.00  0.00    +0.000 A 
ATOM     10  C   UNL     1       4.033   3.406  16.703  0.00  0.00    +0.000 A 
ATOM     11  C   UNL     1       3.128   3.283  17.760  0.00  0.00    +0.000 A 
ATOM     12  C   UNL     1       2.744   1.995  18.189  0.00  0.00    +0.000 A 
ATOM     13  C   UNL     1       1.858   1.821  19.248  0.00  0.00    +0.000 A 
ATOM     14  C   UNL     1       1.280   2.937  19.815  0.00  0.00    +0.000 A 
ATOM     15  F   UNL     1       0.412   2.796  20.824  0.00  0.00    +0.000 F 
ATOM     16  C   UNL     1       1.607   4.213  19.365  0.00  0.00    +0.000 A 
ATOM     17  C   UNL     1       2.618   4.442  18.391  0.00  0.00    +0.000 A 
ATOM     18  C   UNL     1       3.159   5.737  18.029  0.00  0.00    +0.000 A 
BRANCH   9  19
ATOM     19  C   UNL     1       5.592   4.643  15.190  0.00  0.00    +0.000 C 
BRANCH  19  20
ATOM     20  C   UNL     1       7.045   4.843  15.554  0.00  0.00    +0.000 C 
ATOM     21  O   UNL     1       7.799   5.553  14.905  0.00  0.00    +0.000 OA
BRANCH  20  22
ATOM     22  O   UNL     1       7.447   4.250  16.700  0.00  0.00    +0.000 OA
ATOM     23  H   UNL     1       6.758   3.709  17.135  0.00  0.00    +0.000 HD
ENDBRANCH  20  22
ENDBRANCH  19  20
ENDBRANCH   9  19
ENDBRANCH   1  18
BRANCH   4  24
ATOM     24  S   UNL     1       0.186  10.462  20.449  0.00  0.00    +0.000 S 
ATOM     25  O   UNL     1      -0.015  10.162  21.849  0.00  0.00    +0.000 OA
ATOM     26  O   UNL     1       0.725  11.728  20.007  0.00  0.00    +0.000 OA
BRANCH  24  27
ATOM     27  N   UNL     1      -1.256  10.229  19.619  0.00  0.00    +0.000 NA
ATOM     28  H   UNL     1      -1.930   9.682  20.153  0.00  0.00    +0.000 HD
BRANCH  27  29
ATOM     29  C   UNL     1      -1.829  11.413  18.972  0.00  0.00    +0.000 C 
BRANCH  29  30
ATOM     30  C   UNL     1      -2.553  11.036  17.706  0.00  0.00    +0.000 A 
ATOM     31  C   UNL     1      -1.963  10.153  16.787  0.00  0.00    +0.000 A 
ATOM     32  C   UNL     1      -2.629   9.821  15.609  0.00  0.00    +0.000 A 
ATOM     33  C   UNL     1      -3.879  10.373  15.332  0.00  0.00    +0.000 A 
ATOM     34  C   UNL     1      -4.465  11.259  16.238  0.00  0.00    +0.000 A 
ATOM     35  C   UNL     1      -3.803  11.595  17.418  0.00  0.00    +0.000 A 
ENDBRANCH  29  30
ENDBRANCH  27  29
ENDBRANCH  24  27
ENDBRANCH   4  24
TORSDOF 8
ENDMDL
MODEL 5
REMARK VINA RESULT:      -9.9      0.941      1.348
REMARK  Name = 
REMARK  9 active torsions:
REMARK  status: ('A' for Active; 'I' for Inactive)
REMARK    1  A    between atoms: C_1  and  C_2
REMARK    2  A    between atoms: C_3  and  C_4
REMARK    3  A    between atoms: C_4  and  C_5
REMARK    4  A    between atoms: C_5  and  O_7
REMARK    5  A    between atoms: C_16  and  C_17
REMARK    6  A    between atoms: C_20  and  S_21
REMARK    7  A    between atoms: S_21  and  N_24
REMARK    8  A    between atoms: N_24  and  C_25
REMARK    9  A    between atoms: C_25  and  C_26
REMARK                            x       y       z     vdW  Elec       q    Type
REMARK                         _______ _______ _______ _____ _____    ______ ____
ROOT
ATOM      1  C   UNL     1       2.268   7.028  18.647  0.00  0.00    +0.000 A 
ATOM      2  C   UNL     1       1.848   8.053  17.776  0.00  0.00    +0.000 A 
ATOM      3  C   UNL     1       1.376   9.279  18.259  0.00  0.00    +0.000 A 
ATOM      4  C   UNL     1       1.207   9.459  19.632  0.00  0.00    +0.000 A 
ATOM      5  C   UNL     1       1.501   8.421  20.511  0.00  0.00    +0.000 A 
ATOM      6  C   UNL     1       2.040   7.227  20.021  0.00  0.00    +0.000 A 
ENDROOT
BRANCH   1  18
ATOM      7  C   UNL     1       4.735   7.323  16.976  0.00  0.00    +0.000 C 
ATOM      8  C   UNL     1       4.133   5.962  17.265  0.00  0.00    +0.000 A 
ATOM      9  C   UNL     1       4.705   4.816  16.661  0.00  0.00    +0.000 A 
ATOM     10  C   UNL     1       4.305   3.547  17.104  0.00  0.00    +0.000 A 
ATOM     11  C   UNL     1       3.335   3.376  18.094  0.00  0.00    +0.000 A 
ATOM     12  C   UNL     1       3.088   2.082  18.597  0.00  0.00    +0.000 A 
ATOM     13  C   UNL     1       2.143   1.863  19.595  0.00  0.00    +0.000 A 
ATOM     14  C   UNL     1       1.376   2.926  20.021  0.00  0.00    +0.000 A 
ATOM     15  F   UNL     1       0.449   2.740  20.969  0.00  0.00    +0.000 F 
ATOM     16  C   UNL     1       1.571   4.200  19.495  0.00  0.00    +0.000 A 
ATOM     17  C   UNL     1       2.624   4.496  18.586  0.00  0.00    +0.000 A 
ATOM     18  C   UNL     1       3.020   5.824  18.162  0.00  0.00    +0.000 A 
BRANCH   9  19
ATOM     19  C   UNL     1       5.815   4.876  15.618  0.00  0.00    +0.000 C 
BRANCH  19  20
ATOM     20  C   UNL     1       7.223   5.139  16.101  0.00  0.00    +0.000 C 
ATOM     21  O   UNL     1       7.771   6.225  15.985  0.00  0.00    +0.000 OA
BRANCH  20  22
ATOM     22  O   UNL     1       7.820   4.114  16.749  0.00  0.00    +0.000 OA
ATOM     23  H   UNL     1       8.169   4.347  17.632  0.00  0.00    +0.000 HD
ENDBRANCH  20  22
ENDBRANCH  19  20
ENDBRANCH   9  19
ENDBRANCH   1  18
BRANCH   4  24
ATOM     24  S   UNL     1       0.750  11.062  20.268  0.00  0.00    +0.000 S 
ATOM     25  O   UNL     1       1.297  11.164  21.602  0.00  0.00    +0.000 OA
ATOM     26  O   UNL     1       1.060  12.026  19.237  0.00  0.00    +0.000 OA
BRANCH  24  27
ATOM     27  N   UNL     1      -0.925  10.968  20.360  0.00  0.00    +0.000 NA
ATOM     28  H   UNL     1      -1.255  10.816  21.312  0.00  0.00    +0.000 HD
BRANCH  27  29
ATOM     29  C   UNL     1      -1.672  11.994  19.626  0.00  0.00    +0.000 C 
BRANCH  29  30
ATOM     30  C   UNL     1      -2.399  11.392  18.452  0.00  0.00    +0.000 A 
ATOM     31  C   UNL     1      -1.748  10.479  17.608  0.00  0.00    +0.000 A 
ATOM     32  C   UNL     1      -2.418   9.938  16.511  0.00  0.00    +0.000 A 
ATOM     33  C   UNL     1      -3.735  10.312  16.243  0.00  0.00    +0.000 A 
ATOM     34  C   UNL     1      -4.382  11.227  17.074  0.00  0.00    +0.000 A 
ATOM     35  C   UNL     1      -3.717  11.770  18.171  0.00  0.00    +0.000 A 
ENDBRANCH  29  30
ENDBRANCH  27  29
ENDBRANCH  24  27
ENDBRANCH   4  24
TORSDOF 8
ENDMDL
MODEL 6
REMARK VINA RESULT:      -9.8      0.593      1.028
REMARK  Name = 
REMARK  9 active torsions:
REMARK  status: ('A' for Active; 'I' for Inactive)
REMARK    1  A    between atoms: C_1  and  C_2
REMARK    2  A    between atoms: C_3  and  C_4
REMARK    3  A    between atoms: C_4  and  C_5
REMARK    4  A    between atoms: C_5  and  O_7
REMARK    5  A    between atoms: C_16  and  C_17
REMARK    6  A    between atoms: C_20  and  S_21
REMARK    7  A    between atoms: S_21  and  N_24
REMARK    8  A    between atoms: N_24  and  C_25
REMARK    9  A    between atoms: C_25  and  C_26
REMARK                            x       y       z     vdW  Elec       q    Type
REMARK                         _______ _______ _______ _____ _____    ______ ____
ROOT
ATOM      1  C   UNL     1       3.000   6.966  18.419  0.00  0.00    +0.000 A 
ATOM      2  C   UNL     1       2.572   7.126  19.752  0.00  0.00    +0.000 A 
ATOM      3  C   UNL     1       1.806   8.229  20.149  0.00  0.00    +0.000 A 
ATOM      4  C   UNL     1       1.549   9.254  19.238  0.00  0.00    +0.000 A 
ATOM      5  C   UNL     1       2.061   9.179  17.945  0.00  0.00    +0.000 A 
ATOM      6  C   UNL     1       2.763   8.040  17.541  0.00  0.00    +0.000 A 
ENDROOT
BRANCH   1  18
ATOM      7  C   UNL     1       5.773   6.870  17.293  0.00  0.00    +0.000 C 
ATOM      8  C   UNL     1       4.866   5.655  17.269  0.00  0.00    +0.000 A 
ATOM      9  C   UNL     1       5.315   4.476  16.624  0.00  0.00    +0.000 A 
ATOM     10  C   UNL     1       4.588   3.291  16.801  0.00  0.00    +0.000 A 
ATOM     11  C   UNL     1       3.416   3.242  17.559  0.00  0.00    +0.000 A 
ATOM     12  C   UNL     1       2.817   1.991  17.819  0.00  0.00    +0.000 A 
ATOM     13  C   UNL     1       1.658   1.890  18.583  0.00  0.00    +0.000 A 
ATOM     14  C   UNL     1       1.045   3.049  19.007  0.00  0.00    +0.000 A 
ATOM     15  F   UNL     1      -0.080   2.980  19.730  0.00  0.00    +0.000 F 
ATOM     16  C   UNL     1       1.594   4.294  18.712  0.00  0.00    +0.000 A 
ATOM     17  C   UNL     1       2.853   4.437  18.066  0.00  0.00    +0.000 A 
ATOM     18  C   UNL     1       3.584   5.679  17.915  0.00  0.00    +0.000 A 
BRANCH   9  19
ATOM     19  C   UNL     1       6.610   4.391  15.825  0.00  0.00    +0.000 C 
BRANCH  19  20
ATOM     20  C   UNL     1       6.527   4.565  14.326  0.00  0.00    +0.000 C 
ATOM     21  O   UNL     1       5.696   3.992  13.637  0.00  0.00    +0.000 OA
BRANCH  20  22
ATOM     22  O   UNL     1       7.384   5.465  13.794  0.00  0.00    +0.000 OA
ATOM     23  H   UNL     1       6.987   6.042  13.113  0.00  0.00    +0.000 HD
ENDBRANCH  20  22
ENDBRANCH  19  20
ENDBRANCH   9  19
ENDBRANCH   1  18
BRANCH   4  24
ATOM     24  S   UNL     1       0.452  10.586  19.686  0.00  0.00    +0.000 S 
ATOM     25  O   UNL     1       0.517  10.728  21.123  0.00  0.00    +0.000 OA
ATOM     26  O   UNL     1       0.741  11.685  18.794  0.00  0.00    +0.000 OA
BRANCH  24  27
ATOM     27  N   UNL     1      -1.059   9.992  19.255  0.00  0.00    +0.000 NA
ATOM     28  H   UNL     1      -1.359   9.219  19.848  0.00  0.00    +0.000 HD
BRANCH  27  29
ATOM     29  C   UNL     1      -2.102  10.992  19.007  0.00  0.00    +0.000 C 
BRANCH  29  30
ATOM     30  C   UNL     1      -2.699  10.817  17.635  0.00  0.00    +0.000 A 
ATOM     31  C   UNL     1      -3.891  11.474  17.292  0.00  0.00    +0.000 A 
ATOM     32  C   UNL     1      -4.450  11.295  16.028  0.00  0.00    +0.000 A 
ATOM     33  C   UNL     1      -3.832  10.454  15.103  0.00  0.00    +0.000 A 
ATOM     34  C   UNL     1      -2.652   9.791  15.443  0.00  0.00    +0.000 A 
ATOM     35  C   UNL     1      -2.089   9.967  16.706  0.00  0.00    +0.000 A 
ENDBRANCH  29  30
ENDBRANCH  27  29
ENDBRANCH  24  27
ENDBRANCH   4  24
TORSDOF 8
ENDMDL
MODEL 7
REMARK VINA RESULT:      -9.7      0.822      1.414
REMARK  Name = 
REMARK  9 active torsions:
REMARK  status: ('A' for Active; 'I' for Inactive)
REMARK    1  A    between atoms: C_1  and  C_2
REMARK    2  A    between atoms: C_3  and  C_4
REMARK    3  A    between atoms: C_4  and  C_5
REMARK    4  A    between atoms: C_5  and  O_7
REMARK    5  A    between atoms: C_16  and  C_17
REMARK    6  A    between atoms: C_20  and  S_21
REMARK    7  A    between atoms: S_21  and  N_24
REMARK    8  A    between atoms: N_24  and  C_25
REMARK    9  A    between atoms: C_25  and  C_26
REMARK                            x       y       z     vdW  Elec       q    Type
REMARK                         _______ _______ _______ _____ _____    ______ ____
ROOT
ATOM      1  C   UNL     1       3.016   6.979  18.349  0.00  0.00    +0.000 A 
ATOM      2  C   UNL     1       2.558   7.162  19.669  0.00  0.00    +0.000 A 
ATOM      3  C   UNL     1       1.753   8.251  20.021  0.00  0.00    +0.000 A 
ATOM      4  C   UNL     1       1.486   9.244  19.078  0.00  0.00    +0.000 A 
ATOM      5  C   UNL     1       2.024   9.150  17.798  0.00  0.00    +0.000 A 
ATOM      6  C   UNL     1       2.767   8.022  17.438  0.00  0.00    +0.000 A 
ENDROOT
BRANCH   1  18
ATOM      7  C   UNL     1       5.812   6.933  17.277  0.00  0.00    +0.000 C 
ATOM      8  C   UNL     1       4.941   5.692  17.270  0.00  0.00    +0.000 A 
ATOM      9  C   UNL     1       5.436   4.511  16.666  0.00  0.00    +0.000 A 
ATOM     10  C   UNL     1       4.740   3.309  16.861  0.00  0.00    +0.000 A 
ATOM     11  C   UNL     1       3.556   3.247  17.599  0.00  0.00    +0.000 A 
ATOM     12  C   UNL     1       2.988   1.986  17.882  0.00  0.00    +0.000 A 
ATOM     13  C   UNL     1       1.818   1.872  18.627  0.00  0.00    +0.000 A 
ATOM     14  C   UNL     1       1.164   3.024  19.007  0.00  0.00    +0.000 A 
ATOM     15  F   UNL     1       0.028   2.941  19.711  0.00  0.00    +0.000 F 
ATOM     16  C   UNL     1       1.683   4.275  18.689  0.00  0.00    +0.000 A 
ATOM     17  C   UNL     1       2.949   4.438  18.062  0.00  0.00    +0.000 A 
ATOM     18  C   UNL     1       3.647   5.696  17.891  0.00  0.00    +0.000 A 
BRANCH   9  19
ATOM     19  C   UNL     1       6.748   4.442  15.894  0.00  0.00    +0.000 C 
BRANCH  19  20
ATOM     20  C   UNL     1       6.686   4.544  14.387  0.00  0.00    +0.000 C 
ATOM     21  O   UNL     1       5.996   3.805  13.700  0.00  0.00    +0.000 OA
BRANCH  20  22
ATOM     22  O   UNL     1       7.384   5.566  13.842  0.00  0.00    +0.000 OA
ATOM     23  H   UNL     1       8.332   5.575  14.077  0.00  0.00    +0.000 HD
ENDBRANCH  20  22
ENDBRANCH  19  20
ENDBRANCH   9  19
ENDBRANCH   1  18
BRANCH   4  24
ATOM     24  S   UNL     1       0.342  10.555  19.469  0.00  0.00    +0.000 S 
ATOM     25  O   UNL     1      -0.634  10.012  20.386  0.00  0.00    +0.000 OA
ATOM     26  O   UNL     1       1.134  11.719  19.795  0.00  0.00    +0.000 OA
BRANCH  24  27
ATOM     27  N   UNL     1      -0.396  10.866  17.992  0.00  0.00    +0.000 NA
ATOM     28  H   UNL     1       0.276  11.069  17.254  0.00  0.00    +0.000 HD
BRANCH  27  29
ATOM     29  C   UNL     1      -1.458   9.938  17.592  0.00  0.00    +0.000 C 
BRANCH  29  30
ATOM     30  C   UNL     1      -2.767  10.663  17.414  0.00  0.00    +0.000 A 
ATOM     31  C   UNL     1      -3.455  11.168  18.528  0.00  0.00    +0.000 A 
ATOM     32  C   UNL     1      -4.674  11.823  18.360  0.00  0.00    +0.000 A 
ATOM     33  C   UNL     1      -5.220  11.968  17.085  0.00  0.00    +0.000 A 
ATOM     34  C   UNL     1      -4.544  11.459  15.975  0.00  0.00    +0.000 A 
ATOM     35  C   UNL     1      -3.325  10.804  16.138  0.00  0.00    +0.000 A 
ENDBRANCH  29  30
ENDBRANCH  27  29
ENDBRANCH  24  27
ENDBRANCH   4  24
TORSDOF 8
ENDMDL
MODEL 8
REMARK VINA RESULT:      -9.7      0.940      1.735
REMARK  Name = 
REMARK  9 active torsions:
REMARK  status: ('A' for Active; 'I' for Inactive)
REMARK    1  A    between atoms: C_1  and  C_2
REMARK    2  A    between atoms: C_3  and  C_4
REMARK    3  A    between atoms: C_4  and  C_5
REMARK    4  A    between atoms: C_5  and  O_7
REMARK    5  A    between atoms: C_16  and  C_17
REMARK    6  A    between atoms: C_20  and  S_21
REMARK    7  A    between atoms: S_21  and  N_24
REMARK    8  A    between atoms: N_24  and  C_25
REMARK    9  A    between atoms: C_25  and  C_26
REMARK                            x       y       z     vdW  Elec       q    Type
REMARK                         _______ _______ _______ _____ _____    ______ ____
ROOT
ATOM      1  C   UNL     1       2.922   6.998  18.416  0.00  0.00    +0.000 A 
ATOM      2  C   UNL     1       2.539   7.192  19.758  0.00  0.00    +0.000 A 
ATOM      3  C   UNL     1       1.684   8.235  20.134  0.00  0.00    +0.000 A 
ATOM      4  C   UNL     1       1.288   9.178  19.185  0.00  0.00    +0.000 A 
ATOM      5  C   UNL     1       1.748   9.080  17.875  0.00  0.00    +0.000 A 
ATOM      6  C   UNL     1       2.542   7.993  17.496  0.00  0.00    +0.000 A 
ENDROOT
BRANCH   1  18
ATOM      7  C   UNL     1       5.754   7.065  17.447  0.00  0.00    +0.000 C 
ATOM      8  C   UNL     1       4.924   5.799  17.378  0.00  0.00    +0.000 A 
ATOM      9  C   UNL     1       5.477   4.648  16.766  0.00  0.00    +0.000 A 
ATOM     10  C   UNL     1       4.813   3.421  16.907  0.00  0.00    +0.000 A 
ATOM     11  C   UNL     1       3.605   3.304  17.599  0.00  0.00    +0.000 A 
ATOM     12  C   UNL     1       3.067   2.021  17.831  0.00  0.00    +0.000 A 
ATOM     13  C   UNL     1       1.876   1.852  18.530  0.00  0.00    +0.000 A 
ATOM     14  C   UNL     1       1.172   2.973  18.913  0.00  0.00    +0.000 A 
ATOM     15  F   UNL     1       0.015   2.839  19.573  0.00  0.00    +0.000 F 
ATOM     16  C   UNL     1       1.662   4.248  18.644  0.00  0.00    +0.000 A 
ATOM     17  C   UNL     1       2.945   4.465  18.068  0.00  0.00    +0.000 A 
ATOM     18  C   UNL     1       3.608   5.748  17.952  0.00  0.00    +0.000 A 
BRANCH   9  19
ATOM     19  C   UNL     1       6.817   4.639  16.041  0.00  0.00    +0.000 C 
BRANCH  19  20
ATOM     20  C   UNL     1       6.802   4.601  14.530  0.00  0.00    +0.000 C 
ATOM     21  O   UNL     1       7.219   5.520  13.840  0.00  0.00    +0.000 OA
BRANCH  20  22
ATOM     22  O   UNL     1       6.371   3.445  13.979  0.00  0.00    +0.000 OA
ATOM     23  H   UNL     1       6.198   3.498  13.018  0.00  0.00    +0.000 HD
ENDBRANCH  20  22
ENDBRANCH  19  20
ENDBRANCH   9  19
ENDBRANCH   1  18
BRANCH   4  24
ATOM     24  S   UNL     1       0.085  10.420  19.617  0.00  0.00    +0.000 S 
ATOM     25  O   UNL     1      -0.651   9.925  20.758  0.00  0.00    +0.000 OA
ATOM     26  O   UNL     1       0.780  11.686  19.644  0.00  0.00    +0.000 OA
BRANCH  24  27
ATOM     27  N   UNL     1      -0.927  10.449  18.275  0.00  0.00    +0.000 NA
ATOM     28  H   UNL     1      -1.576   9.663  18.259  0.00  0.00    +0.000 HD
BRANCH  27  29
ATOM     29  C   UNL     1      -1.544  11.739  17.957  0.00  0.00    +0.000 C 
BRANCH  29  30
ATOM     30  C   UNL     1      -3.009  11.736  18.310  0.00  0.00    +0.000 A 
ATOM     31  C   UNL     1      -3.951  11.188  17.426  0.00  0.00    +0.000 A 
ATOM     32  C   UNL     1      -5.307  11.204  17.749  0.00  0.00    +0.000 A 
ATOM     33  C   UNL     1      -5.733  11.774  18.948  0.00  0.00    +0.000 A 
ATOM     34  C   UNL     1      -4.801  12.329  19.826  0.00  0.00    +0.000 A 
ATOM     35  C   UNL     1      -3.445  12.316  19.507  0.00  0.00    +0.000 A 
ENDBRANCH  29  30
ENDBRANCH  27  29
ENDBRANCH  24  27
ENDBRANCH   4  24
TORSDOF 8
ENDMDL
MODEL 9
REMARK VINA RESULT:      -9.6      2.344      3.294
REMARK  Name = 
REMARK  9 active torsions:
REMARK  status: ('A' for Active; 'I' for Inactive)
REMARK    1  A    between atoms: C_1  and  C_2
REMARK    2  A    between atoms: C_3  and  C_4
REMARK    3  A    between atoms: C_4  and  C_5
REMARK    4  A    between atoms: C_5  and  O_7
REMARK    5  A    between atoms: C_16  and  C_17
REMARK    6  A    between atoms: C_20  and  S_21
REMARK    7  A    between atoms: S_21  and  N_24
REMARK    8  A    between atoms: N_24  and  C_25
REMARK    9  A    between atoms: C_25  and  C_26
REMARK                            x       y       z     vdW  Elec       q    Type
REMARK                         _______ _______ _______ _____ _____    ______ ____
ROOT
ATOM      1  C   UNL     1       2.945   7.027  18.379  0.00  0.00    +0.000 A 
ATOM      2  C   UNL     1       2.483   7.200  19.699  0.00  0.00    +0.000 A 
ATOM      3  C   UNL     1       1.644   8.265  20.048  0.00  0.00    +0.000 A 
ATOM      4  C   UNL     1       1.344   9.245  19.102  0.00  0.00    +0.000 A 
ATOM      5  C   UNL     1       1.884   9.163  17.821  0.00  0.00    +0.000 A 
ATOM      6  C   UNL     1       2.662   8.057  17.465  0.00  0.00    +0.000 A 
ENDROOT
BRANCH   1  18
ATOM      7  C   UNL     1       5.780   7.047  17.415  0.00  0.00    +0.000 C 
ATOM      8  C   UNL     1       4.932   5.792  17.354  0.00  0.00    +0.000 A 
ATOM      9  C   UNL     1       5.471   4.629  16.751  0.00  0.00    +0.000 A 
ATOM     10  C   UNL     1       4.790   3.413  16.900  0.00  0.00    +0.000 A 
ATOM     11  C   UNL     1       3.580   3.318  17.591  0.00  0.00    +0.000 A 
ATOM     12  C   UNL     1       3.024   2.043  17.832  0.00  0.00    +0.000 A 
ATOM     13  C   UNL     1       1.829   1.896  18.529  0.00  0.00    +0.000 A 
ATOM     14  C   UNL     1       1.140   3.030  18.903  0.00  0.00    +0.000 A 
ATOM     15  F   UNL     1      -0.020   2.916  19.562  0.00  0.00    +0.000 F 
ATOM     16  C   UNL     1       1.648   4.295  18.625  0.00  0.00    +0.000 A 
ATOM     17  C   UNL     1       2.934   4.490  18.050  0.00  0.00    +0.000 A 
ATOM     18  C   UNL     1       3.616   5.763  17.926  0.00  0.00    +0.000 A 
BRANCH   9  19
ATOM     19  C   UNL     1       6.812   4.596  16.028  0.00  0.00    +0.000 C 
BRANCH  19  20
ATOM     20  C   UNL     1       6.806   4.718  14.522  0.00  0.00    +0.000 C 
ATOM     21  O   UNL     1       5.968   4.176  13.817  0.00  0.00    +0.000 OA
BRANCH  20  22
ATOM     22  O   UNL     1       7.744   5.539  13.998  0.00  0.00    +0.000 OA
ATOM     23  H   UNL     1       8.431   5.081  13.477  0.00  0.00    +0.000 HD
ENDBRANCH  20  22
ENDBRANCH  19  20
ENDBRANCH   9  19
ENDBRANCH   1  18
BRANCH   4  24
ATOM     24  S   UNL     1       0.160  10.521  19.489  0.00  0.00    +0.000 S 
ATOM     25  O   UNL     1      -1.156   9.939  19.353  0.00  0.00    +0.000 OA
ATOM     26  O   UNL     1       0.600  11.142  20.718  0.00  0.00    +0.000 OA
BRANCH  24  27
ATOM     27  N   UNL     1       0.400  11.644  18.263  0.00  0.00    +0.000 NA
ATOM     28  H   UNL     1       0.056  11.316  17.361  0.00  0.00    +0.000 HD
BRANCH  27  29
ATOM     29  C   UNL     1       0.033  13.029  18.572  0.00  0.00    +0.000 C 
BRANCH  29  30
ATOM     30  C   UNL     1       1.251  13.917  18.586  0.00  0.00    +0.000 A 
ATOM     31  C   UNL     1       1.129  15.283  18.882  0.00  0.00    +0.000 A 
ATOM     32  C   UNL     1       2.255  16.104  18.877  0.00  0.00    +0.000 A 
ATOM     33  C   UNL     1       3.507  15.572  18.565  0.00  0.00    +0.000 A 
ATOM     34  C   UNL     1       3.631  14.216  18.260  0.00  0.00    +0.000 A 
ATOM     35  C   UNL     1       2.508  13.391  18.265  0.00  0.00    +0.000 A 
ENDBRANCH  29  30
ENDBRANCH  27  29
ENDBRANCH  24  27
ENDBRANCH   4  24
TORSDOF 8
ENDMDL
