MODEL 1
REMARK VINA RESULT:      -7.4      0.000      0.000
REMARK  Name = 
REMARK  10 active torsions:
REMARK  status: ('A' for Active; 'I' for Inactive)
REMARK    1  A    between atoms: C_1  and  N_2
REMARK    2  A    between atoms: N_2  and  C_3
REMARK    3  A    between atoms: N_2  and  C_4
REMARK    4  A    between atoms: C_4  and  C_5
REMARK    5  A    between atoms: C_8  and  C_9
REMARK    6  A    between atoms: C_9  and  S_10
REMARK    7  A    between atoms: S_10  and  C_11
REMARK    8  A    between atoms: C_11  and  C_12
REMARK    9  A    between atoms: C_12  and  N_13
REMARK   10  A    between atoms: C_20  and  N_21
REMARK                            x       y       z     vdW  Elec       q    Type
REMARK                         _______ _______ _______ _____ _____    ______ ____
ROOT
ATOM      1  N   UNL     1       3.750   3.312  18.426  0.00  0.00    +0.000 N 
ATOM      2  C   UNL     1       3.400   3.479  17.117  0.00  0.00    +0.000 C 
ATOM      3  O   UNL     1       2.348   3.234  16.559  0.00  0.00    +0.000 OA
ATOM      4  C   UNL     1       4.565   4.054  16.454  0.00  0.00    +0.000 A 
ATOM      5  C   UNL     1       4.735   4.403  15.126  0.00  0.00    +0.000 A 
ATOM      6  C   UNL     1       5.963   4.957  14.753  0.00  0.00    +0.000 A 
ATOM      7  C   UNL     1       6.984   5.141  15.705  0.00  0.00    +0.000 A 
ATOM      8  C   UNL     1       6.768   4.765  17.041  0.00  0.00    +0.000 A 
ATOM      9  C   UNL     1       5.555   4.230  17.407  0.00  0.00    +0.000 A 
ATOM     10  C   UNL     1       5.003   3.795  18.688  0.00  0.00    +0.000 C 
ATOM     11  O   UNL     1       5.560   3.909  19.759  0.00  0.00    +0.000 OA
ENDROOT
BRANCH   8  12
ATOM     12  N   UNL     1       7.830   4.924  18.001  0.00  0.00    +0.000 N 
ATOM     13  O   UNL     1       7.826   5.969  18.664  0.00  0.00    +0.000 OA
ATOM     14  O   UNL     1       8.702   4.049  18.021  0.00  0.00    +0.000 OA
ENDBRANCH   8  12
BRANCH   1  15
ATOM     15  C   UNL     1       2.862   2.765  19.434  0.00  0.00    +0.000 C 
BRANCH  15  16
ATOM     16  C   UNL     1       1.449   3.339  19.341  0.00  0.00    +0.000 C 
BRANCH  16  17
ATOM     17  S   UNL     1       1.142   4.654  20.570  0.00  0.00    +0.000 S 
BRANCH  17  18
ATOM     18  C   UNL     1       2.659   5.651  20.362  0.00  0.00    +0.000 C 
BRANCH  18  22
ATOM     19  C   UNL     1       1.725   8.814  18.967  0.00  0.00    +0.000 A 
ATOM     20  C   UNL     1       2.110   8.242  17.773  0.00  0.00    +0.000 A 
ATOM     21  C   UNL     1       2.545   6.933  18.074  0.00  0.00    +0.000 A 
ATOM     22  C   UNL     1       2.406   6.781  19.438  0.00  0.00    +0.000 A 
ATOM     23  O   UNL     1       1.930   7.936  19.992  0.00  0.00    +0.000 OA
BRANCH  19  24
ATOM     24  C   UNL     1       1.104  10.128  19.312  0.00  0.00    +0.000 C 
BRANCH  24  26
ATOM     25  C   UNL     1      -0.893  10.984  20.398  0.00  0.00    +0.000 C 
ATOM     26  N   UNL     1      -0.367  10.035  19.412  0.00  0.00    +0.000 NA
ATOM     27  C   UNL     1      -0.982  10.288  18.108  0.00  0.00    +0.000 C 
ENDBRANCH  24  26
ENDBRANCH  19  24
ENDBRANCH  18  22
ENDBRANCH  17  18
ENDBRANCH  16  17
ENDBRANCH  15  16
ENDBRANCH   1  15
TORSDOF 8
ENDMDL
MODEL 2
REMARK VINA RESULT:      -7.2      1.769      2.498
REMARK  Name = 
REMARK  10 active torsions:
REMARK  status: ('A' for Active; 'I' for Inactive)
REMARK    1  A    between atoms: C_1  and  N_2
REMARK    2  A    between atoms: N_2  and  C_3
REMARK    3  A    between atoms: N_2  and  C_4
REMARK    4  A    between atoms: C_4  and  C_5
REMARK    5  A    between atoms: C_8  and  C_9
REMARK    6  A    between atoms: C_9  and  S_10
REMARK    7  A    between atoms: S_10  and  C_11
REMARK    8  A    between atoms: C_11  and  C_12
REMARK    9  A    between atoms: C_12  and  N_13
REMARK   10  A    between atoms: C_20  and  N_21
REMARK                            x       y       z     vdW  Elec       q    Type
REMARK                         _______ _______ _______ _____ _____    ______ ____
ROOT
ATOM      1  N   UNL     1       4.203   3.271  18.276  0.00  0.00    +0.000 N 
ATOM      2  C   UNL     1       5.054   3.601  19.292  0.00  0.00    +0.000 C 
ATOM      3  O   UNL     1       5.127   3.150  20.418  0.00  0.00    +0.000 OA
ATOM      4  C   UNL     1       5.930   4.642  18.767  0.00  0.00    +0.000 A 
ATOM      5  C   UNL     1       6.957   5.322  19.397  0.00  0.00    +0.000 A 
ATOM      6  C   UNL     1       7.658   6.274  18.650  0.00  0.00    +0.000 A 
ATOM      7  C   UNL     1       7.317   6.524  17.307  0.00  0.00    +0.000 A 
ATOM      8  C   UNL     1       6.262   5.812  16.712  0.00  0.00    +0.000 A 
ATOM      9  C   UNL     1       5.580   4.870  17.446  0.00  0.00    +0.000 A 
ATOM     10  C   UNL     1       4.497   3.945  17.122  0.00  0.00    +0.000 C 
ATOM     11  O   UNL     1       4.018   3.796  16.017  0.00  0.00    +0.000 OA
ENDROOT
BRANCH   8  12
ATOM     12  N   UNL     1       5.896   6.099  15.349  0.00  0.00    +0.000 N 
ATOM     13  O   UNL     1       5.072   7.006  15.174  0.00  0.00    +0.000 OA
ATOM     14  O   UNL     1       6.366   5.360  14.477  0.00  0.00    +0.000 OA
ENDBRANCH   8  12
BRANCH   1  15
ATOM     15  C   UNL     1       3.167   2.262  18.387  0.00  0.00    +0.000 C 
BRANCH  15  16
ATOM     16  C   UNL     1       2.239   2.506  19.577  0.00  0.00    +0.000 C 
BRANCH  16  17
ATOM     17  S   UNL     1       1.211   4.000  19.372  0.00  0.00    +0.000 S 
BRANCH  17  18
ATOM     18  C   UNL     1       2.263   5.234  20.214  0.00  0.00    +0.000 C 
BRANCH  18  22
ATOM     19  C   UNL     1       1.819   8.607  19.095  0.00  0.00    +0.000 A 
ATOM     20  C   UNL     1       2.514   8.180  17.983  0.00  0.00    +0.000 A 
ATOM     21  C   UNL     1       2.821   6.819  18.198  0.00  0.00    +0.000 A 
ATOM     22  C   UNL     1       2.301   6.492  19.432  0.00  0.00    +0.000 A 
ATOM     23  O   UNL     1       1.710   7.587  19.996  0.00  0.00    +0.000 OA
BRANCH  19  24
ATOM     24  C   UNL     1       1.151   9.896  19.444  0.00  0.00    +0.000 C 
BRANCH  24  26
ATOM     25  C   UNL     1      -0.435  10.215  21.256  0.00  0.00    +0.000 C 
ATOM     26  N   UNL     1      -0.240   9.693  19.900  0.00  0.00    +0.000 NA
ATOM     27  C   UNL     1      -1.176  10.343  18.982  0.00  0.00    +0.000 C 
ENDBRANCH  24  26
ENDBRANCH  19  24
ENDBRANCH  18  22
ENDBRANCH  17  18
ENDBRANCH  16  17
ENDBRANCH  15  16
ENDBRANCH   1  15
TORSDOF 8
ENDMDL
MODEL 3
REMARK VINA RESULT:      -7.1      1.372      1.854
REMARK  Name = 
REMARK  10 active torsions:
REMARK  status: ('A' for Active; 'I' for Inactive)
REMARK    1  A    between atoms: C_1  and  N_2
REMARK    2  A    between atoms: N_2  and  C_3
REMARK    3  A    between atoms: N_2  and  C_4
REMARK    4  A    between atoms: C_4  and  C_5
REMARK    5  A    between atoms: C_8  and  C_9
REMARK    6  A    between atoms: C_9  and  S_10
REMARK    7  A    between atoms: S_10  and  C_11
REMARK    8  A    between atoms: C_11  and  C_12
REMARK    9  A    between atoms: C_12  and  N_13
REMARK   10  A    between atoms: C_20  and  N_21
REMARK                            x       y       z     vdW  Elec       q    Type
REMARK                         _______ _______ _______ _____ _____    ______ ____
ROOT
ATOM      1  N   UNL     1       3.710   3.641  18.539  0.00  0.00    +0.000 N 
ATOM      2  C   UNL     1       3.515   3.523  17.192  0.00  0.00    +0.000 C 
ATOM      3  O   UNL     1       2.562   3.077  16.583  0.00  0.00    +0.000 OA
ATOM      4  C   UNL     1       4.709   4.072  16.559  0.00  0.00    +0.000 A 
ATOM      5  C   UNL     1       5.017   4.178  15.214  0.00  0.00    +0.000 A 
ATOM      6  C   UNL     1       6.239   4.767  14.875  0.00  0.00    +0.000 A 
ATOM      7  C   UNL     1       7.117   5.225  15.876  0.00  0.00    +0.000 A 
ATOM      8  C   UNL     1       6.763   5.089  17.228  0.00  0.00    +0.000 A 
ATOM      9  C   UNL     1       5.556   4.519  17.560  0.00  0.00    +0.000 A 
ATOM     10  C   UNL     1       4.881   4.283  18.833  0.00  0.00    +0.000 C 
ATOM     11  O   UNL     1       5.290   4.651  19.915  0.00  0.00    +0.000 OA
ENDROOT
BRANCH   8  12
ATOM     12  N   UNL     1       7.681   5.529  18.247  0.00  0.00    +0.000 N 
ATOM     13  O   UNL     1       7.789   6.751  18.407  0.00  0.00    +0.000 OA
ATOM     14  O   UNL     1       8.348   4.656  18.813  0.00  0.00    +0.000 OA
ENDBRANCH   8  12
BRANCH   1  15
ATOM     15  C   UNL     1       2.744   3.212  19.533  0.00  0.00    +0.000 C 
BRANCH  15  16
ATOM     16  C   UNL     1       1.546   4.155  19.630  0.00  0.00    +0.000 C 
BRANCH  16  17
ATOM     17  S   UNL     1       1.806   5.500  20.836  0.00  0.00    +0.000 S 
BRANCH  17  18
ATOM     18  C   UNL     1       2.313   6.849  19.712  0.00  0.00    +0.000 C 
BRANCH  18  22
ATOM     19  C   UNL     1       0.888  10.135  19.712  0.00  0.00    +0.000 A 
ATOM     20  C   UNL     1       0.691   9.897  21.056  0.00  0.00    +0.000 A 
ATOM     21  C   UNL     1       1.189   8.600  21.313  0.00  0.00    +0.000 A 
ATOM     22  C   UNL     1       1.657   8.117  20.109  0.00  0.00    +0.000 A 
ATOM     23  O   UNL     1       1.453   9.040  19.123  0.00  0.00    +0.000 OA
BRANCH  19  24
ATOM     24  C   UNL     1       0.661  11.331  18.848  0.00  0.00    +0.000 C 
BRANCH  24  26
ATOM     25  C   UNL     1       2.359  12.970  18.268  0.00  0.00    +0.000 C 
ATOM     26  N   UNL     1       1.437  12.502  19.308  0.00  0.00    +0.000 NA
ATOM     27  C   UNL     1       0.536  13.588  19.694  0.00  0.00    +0.000 C 
ENDBRANCH  24  26
ENDBRANCH  19  24
ENDBRANCH  18  22
ENDBRANCH  17  18
ENDBRANCH  16  17
ENDBRANCH  15  16
ENDBRANCH   1  15
TORSDOF 8
ENDMDL
MODEL 4
REMARK VINA RESULT:      -7.0      5.075      7.127
REMARK  Name = 
REMARK  10 active torsions:
REMARK  status: ('A' for Active; 'I' for Inactive)
REMARK    1  A    between atoms: C_1  and  N_2
REMARK    2  A    between atoms: N_2  and  C_3
REMARK    3  A    between atoms: N_2  and  C_4
REMARK    4  A    between atoms: C_4  and  C_5
REMARK    5  A    between atoms: C_8  and  C_9
REMARK    6  A    between atoms: C_9  and  S_10
REMARK    7  A    between atoms: S_10  and  C_11
REMARK    8  A    between atoms: C_11  and  C_12
REMARK    9  A    between atoms: C_12  and  N_13
REMARK   10  A    between atoms: C_20  and  N_21
REMARK                            x       y       z     vdW  Elec       q    Type
REMARK                         _______ _______ _______ _____ _____    ______ ____
ROOT
ATOM      1  N   UNL     1       4.591   5.946  17.753  0.00  0.00    +0.000 N 
ATOM      2  C   UNL     1       3.516   6.526  18.362  0.00  0.00    +0.000 C 
ATOM      3  O   UNL     1       3.088   7.660  18.263  0.00  0.00    +0.000 OA
ATOM      4  C   UNL     1       2.912   5.492  19.193  0.00  0.00    +0.000 A 
ATOM      5  C   UNL     1       1.806   5.569  20.022  0.00  0.00    +0.000 A 
ATOM      6  C   UNL     1       1.426   4.409  20.704  0.00  0.00    +0.000 A 
ATOM      7  C   UNL     1       2.156   3.214  20.549  0.00  0.00    +0.000 A 
ATOM      8  C   UNL     1       3.276   3.188  19.701  0.00  0.00    +0.000 A 
ATOM      9  C   UNL     1       3.641   4.327  19.023  0.00  0.00    +0.000 A 
ATOM     10  C   UNL     1       4.694   4.615  18.053  0.00  0.00    +0.000 C 
ATOM     11  O   UNL     1       5.455   3.792  17.588  0.00  0.00    +0.000 OA
ENDROOT
BRANCH   8  12
ATOM     12  N   UNL     1       4.037   1.971  19.575  0.00  0.00    +0.000 N 
ATOM     13  O   UNL     1       5.001   1.839  20.339  0.00  0.00    +0.000 OA
ATOM     14  O   UNL     1       3.719   1.205  18.659  0.00  0.00    +0.000 OA
ENDBRANCH   8  12
BRANCH   1  15
ATOM     15  C   UNL     1       5.467   6.642  16.829  0.00  0.00    +0.000 C 
BRANCH  15  16
ATOM     16  C   UNL     1       6.926   6.209  16.970  0.00  0.00    +0.000 C 
BRANCH  16  17
ATOM     17  S   UNL     1       7.826   7.168  18.236  0.00  0.00    +0.000 S 
BRANCH  17  18
ATOM     18  C   UNL     1       7.782   8.829  17.475  0.00  0.00    +0.000 C 
BRANCH  18  22
ATOM     19  C   UNL     1       9.431  11.756  18.717  0.00  0.00    +0.000 A 
ATOM     20  C   UNL     1       9.712  10.961  19.809  0.00  0.00    +0.000 A 
ATOM     21  C   UNL     1       9.134   9.699  19.550  0.00  0.00    +0.000 A 
ATOM     22  C   UNL     1       8.528   9.795  18.315  0.00  0.00    +0.000 A 
ATOM     23  O   UNL     1       8.684  11.056  17.813  0.00  0.00    +0.000 OA
BRANCH  19  24
ATOM     24  C   UNL     1       9.827  13.145  18.341  0.00  0.00    +0.000 C 
BRANCH  24  26
ATOM     25  C   UNL     1      11.252  14.467  16.884  0.00  0.00    +0.000 C 
ATOM     26  N   UNL     1      11.071  13.171  17.544  0.00  0.00    +0.000 NA
ATOM     27  C   UNL     1      12.226  12.884  18.395  0.00  0.00    +0.000 C 
ENDBRANCH  24  26
ENDBRANCH  19  24
ENDBRANCH  18  22
ENDBRANCH  17  18
ENDBRANCH  16  17
ENDBRANCH  15  16
ENDBRANCH   1  15
TORSDOF 8
ENDMDL
MODEL 5
REMARK VINA RESULT:      -6.9      0.943      1.492
REMARK  Name = 
REMARK  10 active torsions:
REMARK  status: ('A' for Active; 'I' for Inactive)
REMARK    1  A    between atoms: C_1  and  N_2
REMARK    2  A    between atoms: N_2  and  C_3
REMARK    3  A    between atoms: N_2  and  C_4
REMARK    4  A    between atoms: C_4  and  C_5
REMARK    5  A    between atoms: C_8  and  C_9
REMARK    6  A    between atoms: C_9  and  S_10
REMARK    7  A    between atoms: S_10  and  C_11
REMARK    8  A    between atoms: C_11  and  C_12
REMARK    9  A    between atoms: C_12  and  N_13
REMARK   10  A    between atoms: C_20  and  N_21
REMARK                            x       y       z     vdW  Elec       q    Type
REMARK                         _______ _______ _______ _____ _____    ______ ____
ROOT
ATOM      1  N   UNL     1       3.665   3.686  18.511  0.00  0.00    +0.000 N 
ATOM      2  C   UNL     1       3.385   3.637  17.176  0.00  0.00    +0.000 C 
ATOM      3  O   UNL     1       2.360   3.306  16.611  0.00  0.00    +0.000 OA
ATOM      4  C   UNL     1       4.589   4.092  16.490  0.00  0.00    +0.000 A 
ATOM      5  C   UNL     1       4.830   4.217  15.133  0.00  0.00    +0.000 A 
ATOM      6  C   UNL     1       6.083   4.699  14.740  0.00  0.00    +0.000 A 
ATOM      7  C   UNL     1       7.056   5.034  15.701  0.00  0.00    +0.000 A 
ATOM      8  C   UNL     1       6.766   4.883  17.067  0.00  0.00    +0.000 A 
ATOM      9  C   UNL     1       5.530   4.419  17.452  0.00  0.00    +0.000 A 
ATOM     10  C   UNL     1       4.908   4.202  18.756  0.00  0.00    +0.000 C 
ATOM     11  O   UNL     1       5.411   4.489  19.822  0.00  0.00    +0.000 OA
ENDROOT
BRANCH   8  12
ATOM     12  N   UNL     1       7.779   5.195  18.043  0.00  0.00    +0.000 N 
ATOM     13  O   UNL     1       8.522   4.267  18.387  0.00  0.00    +0.000 OA
ATOM     14  O   UNL     1       7.765   6.336  18.518  0.00  0.00    +0.000 OA
ENDBRANCH   8  12
BRANCH   1  15
ATOM     15  C   UNL     1       2.719   3.315  19.547  0.00  0.00    +0.000 C 
BRANCH  15  16
ATOM     16  C   UNL     1       1.570   4.314  19.675  0.00  0.00    +0.000 C 
BRANCH  16  17
ATOM     17  S   UNL     1       2.122   5.948  20.274  0.00  0.00    +0.000 S 
BRANCH  17  18
ATOM     18  C   UNL     1       2.293   6.834  18.685  0.00  0.00    +0.000 C 
BRANCH  18  22
ATOM     19  C   UNL     1       1.176   9.972  19.999  0.00  0.00    +0.000 A 
ATOM     20  C   UNL     1       1.116  10.346  18.673  0.00  0.00    +0.000 A 
ATOM     21  C   UNL     1       1.535   9.227  17.919  0.00  0.00    +0.000 A 
ATOM     22  C   UNL     1       1.832   8.234  18.829  0.00  0.00    +0.000 A 
ATOM     23  O   UNL     1       1.640   8.692  20.102  0.00  0.00    +0.000 OA
BRANCH  19  24
ATOM     24  C   UNL     1       0.789  10.659  21.267  0.00  0.00    +0.000 C 
BRANCH  24  26
ATOM     25  C   UNL     1      -1.029  11.137  22.806  0.00  0.00    +0.000 C 
ATOM     26  N   UNL     1      -0.676  10.691  21.455  0.00  0.00    +0.000 NA
ATOM     27  C   UNL     1      -1.296  11.574  20.466  0.00  0.00    +0.000 C 
ENDBRANCH  24  26
ENDBRANCH  19  24
ENDBRANCH  18  22
ENDBRANCH  17  18
ENDBRANCH  16  17
ENDBRANCH  15  16
ENDBRANCH   1  15
TORSDOF 8
ENDMDL
MODEL 6
REMARK VINA RESULT:      -6.8      1.031      1.190
REMARK  Name = 
REMARK  10 active torsions:
REMARK  status: ('A' for Active; 'I' for Inactive)
REMARK    1  A    between atoms: C_1  and  N_2
REMARK    2  A    between atoms: N_2  and  C_3
REMARK    3  A    between atoms: N_2  and  C_4
REMARK    4  A    between atoms: C_4  and  C_5
REMARK    5  A    between atoms: C_8  and  C_9
REMARK    6  A    between atoms: C_9  and  S_10
REMARK    7  A    between atoms: S_10  and  C_11
REMARK    8  A    between atoms: C_11  and  C_12
REMARK    9  A    between atoms: C_12  and  N_13
REMARK   10  A    between atoms: C_20  and  N_21
REMARK                            x       y       z     vdW  Elec       q    Type
REMARK                         _______ _______ _______ _____ _____    ______ ____
ROOT
ATOM      1  N   UNL     1       3.757   3.327  18.528  0.00  0.00    +0.000 N 
ATOM      2  C   UNL     1       3.378   3.472  17.224  0.00  0.00    +0.000 C 
ATOM      3  O   UNL     1       2.319   3.204  16.691  0.00  0.00    +0.000 OA
ATOM      4  C   UNL     1       4.522   4.054  16.531  0.00  0.00    +0.000 A 
ATOM      5  C   UNL     1       4.659   4.386  15.194  0.00  0.00    +0.000 A 
ATOM      6  C   UNL     1       5.873   4.952  14.789  0.00  0.00    +0.000 A 
ATOM      7  C   UNL     1       6.910   5.163  15.718  0.00  0.00    +0.000 A 
ATOM      8  C   UNL     1       6.725   4.803  17.063  0.00  0.00    +0.000 A 
ATOM      9  C   UNL     1       5.528   4.256  17.461  0.00  0.00    +0.000 A 
ATOM     10  C   UNL     1       5.008   3.832  18.758  0.00  0.00    +0.000 C 
ATOM     11  O   UNL     1       5.585   3.968  19.816  0.00  0.00    +0.000 OA
ENDROOT
BRANCH   8  12
ATOM     12  N   UNL     1       7.804   4.990  17.999  0.00  0.00    +0.000 N 
ATOM     13  O   UNL     1       7.850   6.081  18.581  0.00  0.00    +0.000 OA
ATOM     14  O   UNL     1       8.641   4.083  18.077  0.00  0.00    +0.000 OA
ENDBRANCH   8  12
BRANCH   1  15
ATOM     15  C   UNL     1       2.897   2.782  19.561  0.00  0.00    +0.000 C 
BRANCH  15  16
ATOM     16  C   UNL     1       2.036   3.853  20.230  0.00  0.00    +0.000 C 
BRANCH  16  17
ATOM     17  S   UNL     1       1.562   5.192  19.083  0.00  0.00    +0.000 S 
BRANCH  17  18
ATOM     18  C   UNL     1       2.542   6.571  19.773  0.00  0.00    +0.000 C 
BRANCH  18  22
ATOM     19  C   UNL     1       1.171   9.824  19.167  0.00  0.00    +0.000 A 
ATOM     20  C   UNL     1       1.640   9.628  17.885  0.00  0.00    +0.000 A 
ATOM     21  C   UNL     1       2.256   8.357  17.870  0.00  0.00    +0.000 A 
ATOM     22  C   UNL     1       2.134   7.850  19.147  0.00  0.00    +0.000 A 
ATOM     23  O   UNL     1       1.495   8.753  19.950  0.00  0.00    +0.000 OA
BRANCH  19  24
ATOM     24  C   UNL     1       0.367  10.911  19.800  0.00  0.00    +0.000 C 
BRANCH  24  26
ATOM     25  C   UNL     1      -1.225  12.406  18.736  0.00  0.00    +0.000 C 
ATOM     26  N   UNL     1       0.193  12.068  18.898  0.00  0.00    +0.000 NA
ATOM     27  C   UNL     1       0.920  13.228  19.414  0.00  0.00    +0.000 C 
ENDBRANCH  24  26
ENDBRANCH  19  24
ENDBRANCH  18  22
ENDBRANCH  17  18
ENDBRANCH  16  17
ENDBRANCH  15  16
ENDBRANCH   1  15
TORSDOF 8
ENDMDL
MODEL 7
REMARK VINA RESULT:      -6.7      3.237      5.269
REMARK  Name = 
REMARK  10 active torsions:
REMARK  status: ('A' for Active; 'I' for Inactive)
REMARK    1  A    between atoms: C_1  and  N_2
REMARK    2  A    between atoms: N_2  and  C_3
REMARK    3  A    between atoms: N_2  and  C_4
REMARK    4  A    between atoms: C_4  and  C_5
REMARK    5  A    between atoms: C_8  and  C_9
REMARK    6  A    between atoms: C_9  and  S_10
REMARK    7  A    between atoms: S_10  and  C_11
REMARK    8  A    between atoms: C_11  and  C_12
REMARK    9  A    between atoms: C_12  and  N_13
REMARK   10  A    between atoms: C_20  and  N_21
REMARK                            x       y       z     vdW  Elec       q    Type
REMARK                         _______ _______ _______ _____ _____    ______ ____
ROOT
ATOM      1  N   UNL     1       3.055   6.670  18.398  0.00  0.00    +0.000 N 
ATOM      2  C   UNL     1       3.774   5.928  17.506  0.00  0.00    +0.000 C 
ATOM      3  O   UNL     1       4.429   6.290  16.547  0.00  0.00    +0.000 OA
ATOM      4  C   UNL     1       3.637   4.539  17.928  0.00  0.00    +0.000 A 
ATOM      5  C   UNL     1       4.162   3.394  17.355  0.00  0.00    +0.000 A 
ATOM      6  C   UNL     1       3.884   2.173  17.978  0.00  0.00    +0.000 A 
ATOM      7  C   UNL     1       3.093   2.125  19.141  0.00  0.00    +0.000 A 
ATOM      8  C   UNL     1       2.576   3.314  19.681  0.00  0.00    +0.000 A 
ATOM      9  C   UNL     1       2.858   4.515  19.073  0.00  0.00    +0.000 A 
ATOM     10  C   UNL     1       2.529   5.900  19.399  0.00  0.00    +0.000 C 
ATOM     11  O   UNL     1       1.947   6.258  20.402  0.00  0.00    +0.000 OA
ENDROOT
BRANCH   8  12
ATOM     12  N   UNL     1       1.738   3.254  20.851  0.00  0.00    +0.000 N 
ATOM     13  O   UNL     1       0.517   3.335  20.665  0.00  0.00    +0.000 OA
ATOM     14  O   UNL     1       2.309   3.214  21.947  0.00  0.00    +0.000 OA
ENDBRANCH   8  12
BRANCH   1  15
ATOM     15  C   UNL     1       2.937   8.115  18.336  0.00  0.00    +0.000 C 
BRANCH  15  16
ATOM     16  C   UNL     1       1.552   8.569  17.876  0.00  0.00    +0.000 C 
BRANCH  16  17
ATOM     17  S   UNL     1       1.250  10.340  18.198  0.00  0.00    +0.000 S 
BRANCH  17  18
ATOM     18  C   UNL     1      -0.246  10.229  19.241  0.00  0.00    +0.000 C 
BRANCH  18  22
ATOM     19  C   UNL     1      -3.437  11.282  18.003  0.00  0.00    +0.000 A 
ATOM     20  C   UNL     1      -3.152  10.435  16.952  0.00  0.00    +0.000 A 
ATOM     21  C   UNL     1      -1.882   9.877  17.218  0.00  0.00    +0.000 A 
ATOM     22  C   UNL     1      -1.461  10.419  18.414  0.00  0.00    +0.000 A 
ATOM     23  O   UNL     1      -2.395  11.298  18.885  0.00  0.00    +0.000 OA
BRANCH  19  24
ATOM     24  C   UNL     1      -4.640  12.093  18.356  0.00  0.00    +0.000 C 
BRANCH  24  26
ATOM     25  C   UNL     1      -6.007  11.995  20.362  0.00  0.00    +0.000 C 
ATOM     26  N   UNL     1      -5.631  11.309  19.121  0.00  0.00    +0.000 NA
ATOM     27  C   UNL     1      -6.824  11.067  18.309  0.00  0.00    +0.000 C 
ENDBRANCH  24  26
ENDBRANCH  19  24
ENDBRANCH  18  22
ENDBRANCH  17  18
ENDBRANCH  16  17
ENDBRANCH  15  16
ENDBRANCH   1  15
TORSDOF 8
ENDMDL
MODEL 8
REMARK VINA RESULT:      -6.7      2.483      4.424
REMARK  Name = 
REMARK  10 active torsions:
REMARK  status: ('A' for Active; 'I' for Inactive)
REMARK    1  A    between atoms: C_1  and  N_2
REMARK    2  A    between atoms: N_2  and  C_3
REMARK    3  A    between atoms: N_2  and  C_4
REMARK    4  A    between atoms: C_4  and  C_5
REMARK    5  A    between atoms: C_8  and  C_9
REMARK    6  A    between atoms: C_9  and  S_10
REMARK    7  A    between atoms: S_10  and  C_11
REMARK    8  A    between atoms: C_11  and  C_12
REMARK    9  A    between atoms: C_12  and  N_13
REMARK   10  A    between atoms: C_20  and  N_21
REMARK                            x       y       z     vdW  Elec       q    Type
REMARK                         _______ _______ _______ _____ _____    ______ ____
ROOT
ATOM      1  N   UNL     1       2.068   6.534  19.826  0.00  0.00    +0.000 N 
ATOM      2  C   UNL     1       2.600   7.211  18.767  0.00  0.00    +0.000 C 
ATOM      3  O   UNL     1       2.412   8.357  18.406  0.00  0.00    +0.000 OA
ATOM      4  C   UNL     1       3.506   6.281  18.102  0.00  0.00    +0.000 A 
ATOM      5  C   UNL     1       4.283   6.470  16.973  0.00  0.00    +0.000 A 
ATOM      6  C   UNL     1       5.083   5.404  16.551  0.00  0.00    +0.000 A 
ATOM      7  C   UNL     1       5.083   4.185  17.256  0.00  0.00    +0.000 A 
ATOM      8  C   UNL     1       4.271   4.038  18.393  0.00  0.00    +0.000 A 
ATOM      9  C   UNL     1       3.493   5.092  18.813  0.00  0.00    +0.000 A 
ATOM     10  C   UNL     1       2.600   5.280  19.953  0.00  0.00    +0.000 C 
ATOM     11  O   UNL     1       2.435   4.476  20.846  0.00  0.00    +0.000 OA
ENDROOT
BRANCH   8  12
ATOM     12  N   UNL     1       4.251   2.777  19.089  0.00  0.00    +0.000 N 
ATOM     13  O   UNL     1       3.384   1.965  18.740  0.00  0.00    +0.000 OA
ATOM     14  O   UNL     1       5.039   2.644  20.031  0.00  0.00    +0.000 OA
ENDBRANCH   8  12
BRANCH   1  15
ATOM     15  C   UNL     1       1.113   7.111  20.754  0.00  0.00    +0.000 C 
BRANCH  15  16
ATOM     16  C   UNL     1       1.515   8.514  21.207  0.00  0.00    +0.000 C 
BRANCH  16  17
ATOM     17  S   UNL     1       0.090   9.503  21.777  0.00  0.00    +0.000 S 
BRANCH  17  18
ATOM     18  C   UNL     1       0.614  11.168  21.234  0.00  0.00    +0.000 C 
BRANCH  18  22
ATOM     19  C   UNL     1      -1.562  11.210  18.390  0.00  0.00    +0.000 A 
ATOM     20  C   UNL     1      -1.039  12.470  18.186  0.00  0.00    +0.000 A 
ATOM     21  C   UNL     1      -0.116  12.698  19.230  0.00  0.00    +0.000 A 
ATOM     22  C   UNL     1      -0.132  11.566  20.018  0.00  0.00    +0.000 A 
ATOM     23  O   UNL     1      -1.032  10.665  19.524  0.00  0.00    +0.000 OA
BRANCH  19  24
ATOM     24  C   UNL     1      -2.507  10.362  17.604  0.00  0.00    +0.000 C 
BRANCH  24  26
ATOM     25  C   UNL     1      -2.869  10.382  15.203  0.00  0.00    +0.000 C 
ATOM     26  N   UNL     1      -3.092  11.096  16.463  0.00  0.00    +0.000 NA
ATOM     27  C   UNL     1      -4.526  11.297  16.670  0.00  0.00    +0.000 C 
ENDBRANCH  24  26
ENDBRANCH  19  24
ENDBRANCH  18  22
ENDBRANCH  17  18
ENDBRANCH  16  17
ENDBRANCH  15  16
ENDBRANCH   1  15
TORSDOF 8
ENDMDL
MODEL 9
REMARK VINA RESULT:      -6.7      2.069      2.886
REMARK  Name = 
REMARK  10 active torsions:
REMARK  status: ('A' for Active; 'I' for Inactive)
REMARK    1  A    between atoms: C_1  and  N_2
REMARK    2  A    between atoms: N_2  and  C_3
REMARK    3  A    between atoms: N_2  and  C_4
REMARK    4  A    between atoms: C_4  and  C_5
REMARK    5  A    between atoms: C_8  and  C_9
REMARK    6  A    between atoms: C_9  and  S_10
REMARK    7  A    between atoms: S_10  and  C_11
REMARK    8  A    between atoms: C_11  and  C_12
REMARK    9  A    between atoms: C_12  and  N_13
REMARK   10  A    between atoms: C_20  and  N_21
REMARK                            x       y       z     vdW  Elec       q    Type
REMARK                         _______ _______ _______ _____ _____    ______ ____
ROOT
ATOM      1  N   UNL     1       4.388   3.231  18.245  0.00  0.00    +0.000 N 
ATOM      2  C   UNL     1       5.194   3.638  19.269  0.00  0.00    +0.000 C 
ATOM      3  O   UNL     1       5.258   3.230  20.413  0.00  0.00    +0.000 OA
ATOM      4  C   UNL     1       6.035   4.699  18.729  0.00  0.00    +0.000 A 
ATOM      5  C   UNL     1       7.012   5.450  19.359  0.00  0.00    +0.000 A 
ATOM      6  C   UNL     1       7.688   6.406  18.595  0.00  0.00    +0.000 A 
ATOM      7  C   UNL     1       7.371   6.592  17.235  0.00  0.00    +0.000 A 
ATOM      8  C   UNL     1       6.367   5.810  16.641  0.00  0.00    +0.000 A 
ATOM      9  C   UNL     1       5.710   4.863  17.392  0.00  0.00    +0.000 A 
ATOM     10  C   UNL     1       4.681   3.877  17.075  0.00  0.00    +0.000 C 
ATOM     11  O   UNL     1       4.239   3.666  15.965  0.00  0.00    +0.000 OA
ENDROOT
BRANCH   8  12
ATOM     12  N   UNL     1       6.024   6.030  15.259  0.00  0.00    +0.000 N 
ATOM     13  O   UNL     1       6.713   5.440  14.417  0.00  0.00    +0.000 OA
ATOM     14  O   UNL     1       5.133   6.854  15.028  0.00  0.00    +0.000 OA
ENDBRANCH   8  12
BRANCH   1  15
ATOM     15  C   UNL     1       3.398   2.178  18.368  0.00  0.00    +0.000 C 
BRANCH  15  16
ATOM     16  C   UNL     1       2.102   2.505  17.626  0.00  0.00    +0.000 C 
BRANCH  16  17
ATOM     17  S   UNL     1       0.800   3.144  18.734  0.00  0.00    +0.000 S 
BRANCH  17  18
ATOM     18  C   UNL     1       1.828   3.850  20.069  0.00  0.00    +0.000 C 
BRANCH  18  22
ATOM     19  C   UNL     1       1.800   7.397  20.559  0.00  0.00    +0.000 A 
ATOM     20  C   UNL     1       2.253   7.439  19.257  0.00  0.00    +0.000 A 
ATOM     21  C   UNL     1       2.357   6.099  18.823  0.00  0.00    +0.000 A 
ATOM     22  C   UNL     1       1.966   5.314  19.887  0.00  0.00    +0.000 A 
ATOM     23  O   UNL     1       1.649   6.101  20.958  0.00  0.00    +0.000 OA
BRANCH  19  24
ATOM     24  C   UNL     1       1.410   8.459  21.533  0.00  0.00    +0.000 C 
BRANCH  24  26
ATOM     25  C   UNL     1      -0.528   9.681  22.341  0.00  0.00    +0.000 C 
ATOM     26  N   UNL     1       0.134   9.106  21.166  0.00  0.00    +0.000 NA
ATOM     27  C   UNL     1       0.363  10.152  20.168  0.00  0.00    +0.000 C 
ENDBRANCH  24  26
ENDBRANCH  19  24
ENDBRANCH  18  22
ENDBRANCH  17  18
ENDBRANCH  16  17
ENDBRANCH  15  16
ENDBRANCH   1  15
TORSDOF 8
ENDMDL
