MODEL 1
REMARK VINA RESULT:      -5.6      0.000      0.000
REMARK  Name = 
REMARK  8 active torsions:
REMARK  status: ('A' for Active; 'I' for Inactive)
REMARK    1  A    between atoms: C_2  and  C_3
REMARK    2  A    between atoms: N_5  and  CA_6
REMARK    3  A    between atoms: CA_6  and  C_7
REMARK    4  A    between atoms: CA_6  and  C_11
REMARK    5  A    between atoms: C_7  and  C_8
REMARK    6  A    between atoms: C_8  and  C_9
REMARK    7  A    between atoms: C_9  and  C_10
REMARK    8  A    between atoms: C_11  and  OXT_13
REMARK                            x       y       z     vdW  Elec       q    Type
REMARK                         _______ _______ _______ _____ _____    ______ ____
ROOT
ATOM      1  CA  UNL     1       6.119   5.407  16.842  0.00  0.00    +0.000 C 
ENDROOT
BRANCH   1   4
ATOM      2  C   UNL     1       6.617   4.642  14.538  0.00  0.00    +0.000 C 
ATOM      3  O   UNL     1       7.558   5.409  14.391  0.00  0.00    +0.000 OA
ATOM      4  N   UNL     1       5.878   4.552  15.684  0.00  0.00    +0.000 N 
ATOM      5  H   UNL     1       5.140   3.862  15.775  0.00  0.00    +0.000 HD
BRANCH   2   7
ATOM      6  C   UNL     1       6.682   3.754  12.252  0.00  0.00    +0.000 C 
ATOM      7  C   UNL     1       6.147   3.715  13.478  0.00  0.00    +0.000 C 
ENDBRANCH   2   7
ENDBRANCH   1   4
BRANCH   1   8
ATOM      8  C   UNL     1       7.040   4.656  17.816  0.00  0.00    +0.000 C 
ATOM      9  O   UNL     1       6.815   4.543  19.015  0.00  0.00    +0.000 OA
BRANCH   8  10
ATOM     10  OXT UNL     1       8.150   4.134  17.245  0.00  0.00    +0.000 OA
ATOM     11  HXT UNL     1       8.754   4.791  16.850  0.00  0.00    +0.000 HD
ENDBRANCH   8  10
ENDBRANCH   1   8
BRANCH   1  12
ATOM     12  C   UNL     1       4.797   5.823  17.512  0.00  0.00    +0.000 C 
BRANCH  12  13
ATOM     13  C   UNL     1       3.696   4.769  17.347  0.00  0.00    +0.000 C 
BRANCH  13  14
ATOM     14  C   UNL     1       2.379   5.196  17.990  0.00  0.00    +0.000 C 
ATOM     15  C   UNL     1       1.433   4.008  18.092  0.00  0.00    +0.000 C 
ENDBRANCH  13  14
ENDBRANCH  12  13
ENDBRANCH   1  12
TORSDOF 7
ENDMDL
MODEL 2
REMARK VINA RESULT:      -5.5      1.744      2.328
REMARK  Name = 
REMARK  8 active torsions:
REMARK  status: ('A' for Active; 'I' for Inactive)
REMARK    1  A    between atoms: C_2  and  C_3
REMARK    2  A    between atoms: N_5  and  CA_6
REMARK    3  A    between atoms: CA_6  and  C_7
REMARK    4  A    between atoms: CA_6  and  C_11
REMARK    5  A    between atoms: C_7  and  C_8
REMARK    6  A    between atoms: C_8  and  C_9
REMARK    7  A    between atoms: C_9  and  C_10
REMARK    8  A    between atoms: C_11  and  OXT_13
REMARK                            x       y       z     vdW  Elec       q    Type
REMARK                         _______ _______ _______ _____ _____    ______ ____
ROOT
ATOM      1  CA  UNL     1       4.047   4.513  17.303  0.00  0.00    +0.000 C 
ENDROOT
BRANCH   1   4
ATOM      2  C   UNL     1       5.607   5.340  15.563  0.00  0.00    +0.000 C 
ATOM      3  O   UNL     1       5.398   6.519  15.809  0.00  0.00    +0.000 OA
ATOM      4  N   UNL     1       5.023   4.304  16.239  0.00  0.00    +0.000 N 
ATOM      5  H   UNL     1       5.270   3.342  16.031  0.00  0.00    +0.000 HD
BRANCH   2   7
ATOM      6  C   UNL     1       6.197   3.824  13.727  0.00  0.00    +0.000 C 
ATOM      7  C   UNL     1       6.517   4.880  14.484  0.00  0.00    +0.000 C 
ENDBRANCH   2   7
ENDBRANCH   1   4
BRANCH   1   8
ATOM      8  C   UNL     1       4.781   4.460  18.652  0.00  0.00    +0.000 C 
ATOM      9  O   UNL     1       4.895   5.420  19.404  0.00  0.00    +0.000 OA
BRANCH   8  10
ATOM     10  OXT UNL     1       5.322   3.254  18.946  0.00  0.00    +0.000 OA
ATOM     11  HXT UNL     1       4.942   2.816  19.730  0.00  0.00    +0.000 HD
ENDBRANCH   8  10
ENDBRANCH   1   8
BRANCH   1  12
ATOM     12  C   UNL     1       2.912   3.476  17.229  0.00  0.00    +0.000 C 
BRANCH  12  13
ATOM     13  C   UNL     1       1.606   3.988  17.848  0.00  0.00    +0.000 C 
BRANCH  13  14
ATOM     14  C   UNL     1       1.059   3.047  18.919  0.00  0.00    +0.000 C 
ATOM     15  C   UNL     1       1.069   3.733  20.277  0.00  0.00    +0.000 C 
ENDBRANCH  13  14
ENDBRANCH  12  13
ENDBRANCH   1  12
TORSDOF 7
ENDMDL
MODEL 3
REMARK VINA RESULT:      -5.5      2.390      4.934
REMARK  Name = 
REMARK  8 active torsions:
REMARK  status: ('A' for Active; 'I' for Inactive)
REMARK    1  A    between atoms: C_2  and  C_3
REMARK    2  A    between atoms: N_5  and  CA_6
REMARK    3  A    between atoms: CA_6  and  C_7
REMARK    4  A    between atoms: CA_6  and  C_11
REMARK    5  A    between atoms: C_7  and  C_8
REMARK    6  A    between atoms: C_8  and  C_9
REMARK    7  A    between atoms: C_9  and  C_10
REMARK    8  A    between atoms: C_11  and  OXT_13
REMARK                            x       y       z     vdW  Elec       q    Type
REMARK                         _______ _______ _______ _____ _____    ______ ____
ROOT
ATOM      1  CA  UNL     1       6.466   4.731  17.318  0.00  0.00    +0.000 C 
ENDROOT
BRANCH   1   4
ATOM      2  C   UNL     1       4.688   3.959  18.863  0.00  0.00    +0.000 C 
ATOM      3  O   UNL     1       4.406   5.086  19.245  0.00  0.00    +0.000 OA
ATOM      4  N   UNL     1       5.647   3.688  17.927  0.00  0.00    +0.000 N 
ATOM      5  H   UNL     1       5.807   2.739  17.606  0.00  0.00    +0.000 HD
BRANCH   2   7
ATOM      6  C   UNL     1       3.573   1.798  18.542  0.00  0.00    +0.000 C 
ATOM      7  C   UNL     1       4.031   2.733  19.382  0.00  0.00    +0.000 C 
ENDBRANCH   2   7
ENDBRANCH   1   4
BRANCH   1   8
ATOM      8  C   UNL     1       6.774   4.322  15.870  0.00  0.00    +0.000 C 
ATOM      9  O   UNL     1       7.508   4.959  15.123  0.00  0.00    +0.000 OA
BRANCH   8  10
ATOM     10  OXT UNL     1       6.148   3.193  15.463  0.00  0.00    +0.000 OA
ATOM     11  HXT UNL     1       6.443   2.377  15.911  0.00  0.00    +0.000 HD
ENDBRANCH   8  10
ENDBRANCH   1   8
BRANCH   1  12
ATOM     12  C   UNL     1       7.752   4.974  18.129  0.00  0.00    +0.000 C 
BRANCH  12  13
ATOM     13  C   UNL     1       7.845   6.405  18.670  0.00  0.00    +0.000 C 
BRANCH  13  14
ATOM     14  C   UNL     1       7.566   7.454  17.597  0.00  0.00    +0.000 C 
ATOM     15  C   UNL     1       8.193   8.785  17.986  0.00  0.00    +0.000 C 
ENDBRANCH  13  14
ENDBRANCH  12  13
ENDBRANCH   1  12
TORSDOF 7
ENDMDL
MODEL 4
REMARK VINA RESULT:      -5.5      1.785      3.787
REMARK  Name = 
REMARK  8 active torsions:
REMARK  status: ('A' for Active; 'I' for Inactive)
REMARK    1  A    between atoms: C_2  and  C_3
REMARK    2  A    between atoms: N_5  and  CA_6
REMARK    3  A    between atoms: CA_6  and  C_7
REMARK    4  A    between atoms: CA_6  and  C_11
REMARK    5  A    between atoms: C_7  and  C_8
REMARK    6  A    between atoms: C_8  and  C_9
REMARK    7  A    between atoms: C_9  and  C_10
REMARK    8  A    between atoms: C_11  and  OXT_13
REMARK                            x       y       z     vdW  Elec       q    Type
REMARK                         _______ _______ _______ _____ _____    ______ ____
ROOT
ATOM      1  CA  UNL     1       6.269   4.414  15.968  0.00  0.00    +0.000 C 
ENDROOT
BRANCH   1   4
ATOM      2  C   UNL     1       7.539   5.493  17.803  0.00  0.00    +0.000 C 
ATOM      3  O   UNL     1       7.934   4.435  18.271  0.00  0.00    +0.000 OA
ATOM      4  N   UNL     1       6.753   5.587  16.688  0.00  0.00    +0.000 N 
ATOM      5  H   UNL     1       6.494   6.492  16.309  0.00  0.00    +0.000 HD
BRANCH   2   7
ATOM      6  C   UNL     1       7.761   7.932  17.664  0.00  0.00    +0.000 C 
ATOM      7  C   UNL     1       7.853   6.817  18.397  0.00  0.00    +0.000 C 
ENDBRANCH   2   7
ENDBRANCH   1   4
BRANCH   1   8
ATOM      8  C   UNL     1       6.767   4.496  14.517  0.00  0.00    +0.000 C 
ATOM      9  O   UNL     1       6.384   3.752  13.622  0.00  0.00    +0.000 OA
BRANCH   8  10
ATOM     10  OXT UNL     1       7.695   5.457  14.299  0.00  0.00    +0.000 OA
ATOM     11  HXT UNL     1       7.357   6.371  14.346  0.00  0.00    +0.000 HD
ENDBRANCH   8  10
ENDBRANCH   1   8
BRANCH   1  12
ATOM     12  C   UNL     1       4.735   4.311  16.040  0.00  0.00    +0.000 C 
BRANCH  12  13
ATOM     13  C   UNL     1       4.220   4.169  17.477  0.00  0.00    +0.000 C 
BRANCH  13  14
ATOM     14  C   UNL     1       2.965   3.303  17.564  0.00  0.00    +0.000 C 
ATOM     15  C   UNL     1       3.329   1.891  18.000  0.00  0.00    +0.000 C 
ENDBRANCH  13  14
ENDBRANCH  12  13
ENDBRANCH   1  12
TORSDOF 7
ENDMDL
MODEL 5
REMARK VINA RESULT:      -5.5      1.828      4.652
REMARK  Name = 
REMARK  8 active torsions:
REMARK  status: ('A' for Active; 'I' for Inactive)
REMARK    1  A    between atoms: C_2  and  C_3
REMARK    2  A    between atoms: N_5  and  CA_6
REMARK    3  A    between atoms: CA_6  and  C_7
REMARK    4  A    between atoms: CA_6  and  C_11
REMARK    5  A    between atoms: C_7  and  C_8
REMARK    6  A    between atoms: C_8  and  C_9
REMARK    7  A    between atoms: C_9  and  C_10
REMARK    8  A    between atoms: C_11  and  OXT_13
REMARK                            x       y       z     vdW  Elec       q    Type
REMARK                         _______ _______ _______ _____ _____    ______ ____
ROOT
ATOM      1  CA  UNL     1       6.205   4.942  16.367  0.00  0.00    +0.000 C 
ENDROOT
BRANCH   1   4
ATOM      2  C   UNL     1       3.884   4.676  17.193  0.00  0.00    +0.000 C 
ATOM      3  O   UNL     1       3.773   5.846  17.526  0.00  0.00    +0.000 OA
ATOM      4  N   UNL     1       5.003   4.151  16.609  0.00  0.00    +0.000 N 
ATOM      5  H   UNL     1       5.026   3.184  16.303  0.00  0.00    +0.000 HD
BRANCH   2   7
ATOM      6  C   UNL     1       1.629   4.020  17.902  0.00  0.00    +0.000 C 
ATOM      7  C   UNL     1       2.814   3.665  17.392  0.00  0.00    +0.000 C 
ENDBRANCH   2   7
ENDBRANCH   1   4
BRANCH   1   8
ATOM      8  C   UNL     1       6.742   4.593  14.970  0.00  0.00    +0.000 C 
ATOM      9  O   UNL     1       6.358   3.633  14.313  0.00  0.00    +0.000 OA
BRANCH   8  10
ATOM     10  OXT UNL     1       7.704   5.430  14.517  0.00  0.00    +0.000 OA
ATOM     11  HXT UNL     1       7.443   6.369  14.476  0.00  0.00    +0.000 HD
ENDBRANCH   8  10
ENDBRANCH   1   8
BRANCH   1  12
ATOM     12  C   UNL     1       7.261   4.700  17.461  0.00  0.00    +0.000 C 
BRANCH  12  13
ATOM     13  C   UNL     1       7.662   5.989  18.188  0.00  0.00    +0.000 C 
BRANCH  13  14
ATOM     14  C   UNL     1       7.146   7.241  17.484  0.00  0.00    +0.000 C 
ATOM     15  C   UNL     1       8.026   8.435  17.821  0.00  0.00    +0.000 C 
ENDBRANCH  13  14
ENDBRANCH  12  13
ENDBRANCH   1  12
TORSDOF 7
ENDMDL
MODEL 6
REMARK VINA RESULT:      -5.5      3.300      4.028
REMARK  Name = 
REMARK  8 active torsions:
REMARK  status: ('A' for Active; 'I' for Inactive)
REMARK    1  A    between atoms: C_2  and  C_3
REMARK    2  A    between atoms: N_5  and  CA_6
REMARK    3  A    between atoms: CA_6  and  C_7
REMARK    4  A    between atoms: CA_6  and  C_11
REMARK    5  A    between atoms: C_7  and  C_8
REMARK    6  A    between atoms: C_8  and  C_9
REMARK    7  A    between atoms: C_9  and  C_10
REMARK    8  A    between atoms: C_11  and  OXT_13
REMARK                            x       y       z     vdW  Elec       q    Type
REMARK                         _______ _______ _______ _____ _____    ______ ____
ROOT
ATOM      1  CA  UNL     1       4.398   4.640  19.251  0.00  0.00    +0.000 C 
ENDROOT
BRANCH   1   4
ATOM      2  C   UNL     1       6.639   5.595  18.795  0.00  0.00    +0.000 C 
ATOM      3  O   UNL     1       7.053   5.397  19.928  0.00  0.00    +0.000 OA
ATOM      4  N   UNL     1       5.387   5.247  18.368  0.00  0.00    +0.000 N 
ATOM      5  H   UNL     1       5.110   5.386  17.402  0.00  0.00    +0.000 HD
BRANCH   2   7
ATOM      6  C   UNL     1       7.657   7.573  17.763  0.00  0.00    +0.000 C 
ATOM      7  C   UNL     1       7.445   6.253  17.735  0.00  0.00    +0.000 C 
ENDBRANCH   2   7
ENDBRANCH   1   4
BRANCH   1   8
ATOM      8  C   UNL     1       4.534   3.113  19.155  0.00  0.00    +0.000 C 
ATOM      9  O   UNL     1       4.724   2.383  20.121  0.00  0.00    +0.000 OA
BRANCH   8  10
ATOM     10  OXT UNL     1       4.447   2.623  17.896  0.00  0.00    +0.000 OA
ATOM     11  HXT UNL     1       3.611   2.165  17.692  0.00  0.00    +0.000 HD
ENDBRANCH   8  10
ENDBRANCH   1   8
BRANCH   1  12
ATOM     12  C   UNL     1       2.975   5.109  18.900  0.00  0.00    +0.000 C 
BRANCH  12  13
ATOM     13  C   UNL     1       1.908   4.065  19.249  0.00  0.00    +0.000 C 
BRANCH  13  14
ATOM     14  C   UNL     1       1.337   4.260  20.651  0.00  0.00    +0.000 C 
ATOM     15  C   UNL     1       1.444   2.968  21.447  0.00  0.00    +0.000 C 
ENDBRANCH  13  14
ENDBRANCH  12  13
ENDBRANCH   1  12
TORSDOF 7
ENDMDL
MODEL 7
REMARK VINA RESULT:      -5.5      1.548      4.812
REMARK  Name = 
REMARK  8 active torsions:
REMARK  status: ('A' for Active; 'I' for Inactive)
REMARK    1  A    between atoms: C_2  and  C_3
REMARK    2  A    between atoms: N_5  and  CA_6
REMARK    3  A    between atoms: CA_6  and  C_7
REMARK    4  A    between atoms: CA_6  and  C_11
REMARK    5  A    between atoms: C_7  and  C_8
REMARK    6  A    between atoms: C_8  and  C_9
REMARK    7  A    between atoms: C_9  and  C_10
REMARK    8  A    between atoms: C_11  and  OXT_13
REMARK                            x       y       z     vdW  Elec       q    Type
REMARK                         _______ _______ _______ _____ _____    ______ ____
ROOT
ATOM      1  CA  UNL     1       5.772   4.222  15.837  0.00  0.00    +0.000 C 
ENDROOT
BRANCH   1   4
ATOM      2  C   UNL     1       3.799   4.015  17.323  0.00  0.00    +0.000 C 
ATOM      3  O   UNL     1       3.889   2.800  17.422  0.00  0.00    +0.000 OA
ATOM      4  N   UNL     1       4.667   4.788  16.603  0.00  0.00    +0.000 N 
ATOM      5  H   UNL     1       4.579   5.799  16.595  0.00  0.00    +0.000 HD
BRANCH   2   7
ATOM      6  C   UNL     1       1.577   4.226  18.342  0.00  0.00    +0.000 C 
ATOM      7  C   UNL     1       2.721   4.809  17.966  0.00  0.00    +0.000 C 
ENDBRANCH   2   7
ENDBRANCH   1   4
BRANCH   1   8
ATOM      8  C   UNL     1       7.073   4.906  16.285  0.00  0.00    +0.000 C 
ATOM      9  O   UNL     1       7.357   6.069  16.022  0.00  0.00    +0.000 OA
BRANCH   8  10
ATOM     10  OXT UNL     1       7.909   4.108  16.990  0.00  0.00    +0.000 OA
ATOM     11  HXT UNL     1       7.979   4.326  17.939  0.00  0.00    +0.000 HD
ENDBRANCH   8  10
ENDBRANCH   1   8
BRANCH   1  12
ATOM     12  C   UNL     1       5.538   4.376  14.324  0.00  0.00    +0.000 C 
BRANCH  12  13
ATOM     13  C   UNL     1       6.503   3.527  13.489  0.00  0.00    +0.000 C 
BRANCH  13  14
ATOM     14  C   UNL     1       6.141   3.519  12.006  0.00  0.00    +0.000 C 
ATOM     15  C   UNL     1       4.648   3.280  11.830  0.00  0.00    +0.000 C 
ENDBRANCH  13  14
ENDBRANCH  12  13
ENDBRANCH   1  12
TORSDOF 7
ENDMDL
MODEL 8
REMARK VINA RESULT:      -5.4      3.058      4.209
REMARK  Name = 
REMARK  8 active torsions:
REMARK  status: ('A' for Active; 'I' for Inactive)
REMARK    1  A    between atoms: C_2  and  C_3
REMARK    2  A    between atoms: N_5  and  CA_6
REMARK    3  A    between atoms: CA_6  and  C_7
REMARK    4  A    between atoms: CA_6  and  C_11
REMARK    5  A    between atoms: C_7  and  C_8
REMARK    6  A    between atoms: C_8  and  C_9
REMARK    7  A    between atoms: C_9  and  C_10
REMARK    8  A    between atoms: C_11  and  OXT_13
REMARK                            x       y       z     vdW  Elec       q    Type
REMARK                         _______ _______ _______ _____ _____    ______ ____
ROOT
ATOM      1  CA  UNL     1       3.869   3.751  18.654  0.00  0.00    +0.000 C 
ENDROOT
BRANCH   1   4
ATOM      2  C   UNL     1       6.081   4.859  18.521  0.00  0.00    +0.000 C 
ATOM      3  O   UNL     1       6.200   4.966  19.733  0.00  0.00    +0.000 OA
ATOM      4  N   UNL     1       5.009   4.273  17.909  0.00  0.00    +0.000 N 
ATOM      5  H   UNL     1       4.981   4.162  16.901  0.00  0.00    +0.000 HD
BRANCH   2   7
ATOM      6  C   UNL     1       7.377   6.674  17.499  0.00  0.00    +0.000 C 
ATOM      7  C   UNL     1       7.086   5.369  17.554  0.00  0.00    +0.000 C 
ENDBRANCH   2   7
ENDBRANCH   1   4
BRANCH   1   8
ATOM      8  C   UNL     1       3.322   2.524  17.908  0.00  0.00    +0.000 C 
ATOM      9  O   UNL     1       2.262   2.517  17.293  0.00  0.00    +0.000 OA
BRANCH   8  10
ATOM     10  OXT UNL     1       4.103   1.422  17.997  0.00  0.00    +0.000 OA
ATOM     11  HXT UNL     1       4.768   1.449  18.710  0.00  0.00    +0.000 HD
ENDBRANCH   8  10
ENDBRANCH   1   8
BRANCH   1  12
ATOM     12  C   UNL     1       2.788   4.830  18.847  0.00  0.00    +0.000 C 
BRANCH  12  13
ATOM     13  C   UNL     1       2.248   4.872  20.282  0.00  0.00    +0.000 C 
BRANCH  13  14
ATOM     14  C   UNL     1       1.051   3.945  20.482  0.00  0.00    +0.000 C 
ATOM     15  C   UNL     1       1.431   2.784  21.390  0.00  0.00    +0.000 C 
ENDBRANCH  13  14
ENDBRANCH  12  13
ENDBRANCH   1  12
TORSDOF 7
ENDMDL
MODEL 9
REMARK VINA RESULT:      -5.4      2.384      3.627
REMARK  Name = 
REMARK  8 active torsions:
REMARK  status: ('A' for Active; 'I' for Inactive)
REMARK    1  A    between atoms: C_2  and  C_3
REMARK    2  A    between atoms: N_5  and  CA_6
REMARK    3  A    between atoms: CA_6  and  C_7
REMARK    4  A    between atoms: CA_6  and  C_11
REMARK    5  A    between atoms: C_7  and  C_8
REMARK    6  A    between atoms: C_8  and  C_9
REMARK    7  A    between atoms: C_9  and  C_10
REMARK    8  A    between atoms: C_11  and  OXT_13
REMARK                            x       y       z     vdW  Elec       q    Type
REMARK                         _______ _______ _______ _____ _____    ______ ____
ROOT
ATOM      1  CA  UNL     1       3.990   3.541  18.354  0.00  0.00    +0.000 C 
ENDROOT
BRANCH   1   4
ATOM      2  C   UNL     1       6.269   4.496  18.160  0.00  0.00    +0.000 C 
ATOM      3  O   UNL     1       6.309   4.868  19.324  0.00  0.00    +0.000 OA
ATOM      4  N   UNL     1       5.209   3.832  17.607  0.00  0.00    +0.000 N 
ATOM      5  H   UNL     1       5.247   3.498  16.650  0.00  0.00    +0.000 HD
BRANCH   2   7
ATOM      6  C   UNL     1       7.135   4.689  15.873  0.00  0.00    +0.000 C 
ATOM      7  C   UNL     1       7.368   4.731  17.190  0.00  0.00    +0.000 C 
ENDBRANCH   2   7
ENDBRANCH   1   4
BRANCH   1   8
ATOM      8  C   UNL     1       4.113   2.131  18.952  0.00  0.00    +0.000 C 
ATOM      9  O   UNL     1       3.465   1.166  18.562  0.00  0.00    +0.000 OA
BRANCH   8  10
ATOM     10  OXT UNL     1       4.994   2.033  19.975  0.00  0.00    +0.000 OA
ATOM     11  HXT UNL     1       4.971   1.184  20.455  0.00  0.00    +0.000 HD
ENDBRANCH   8  10
ENDBRANCH   1   8
BRANCH   1  12
ATOM     12  C   UNL     1       2.744   3.675  17.460  0.00  0.00    +0.000 C 
BRANCH  12  13
ATOM     13  C   UNL     1       1.818   4.811  17.908  0.00  0.00    +0.000 C 
BRANCH  13  14
ATOM     14  C   UNL     1       2.515   5.801  18.838  0.00  0.00    +0.000 C 
ATOM     15  C   UNL     1       2.940   7.041  18.065  0.00  0.00    +0.000 C 
ENDBRANCH  13  14
ENDBRANCH  12  13
ENDBRANCH   1  12
TORSDOF 7
ENDMDL
