MODEL 1
REMARK VINA RESULT:      -8.0      0.000      0.000
REMARK  Name = 
REMARK  6 active torsions:
REMARK  status: ('A' for Active; 'I' for Inactive)
REMARK    1  A    between atoms: C_2  and  C_3
REMARK    2  A    between atoms: C_3  and  O_4
REMARK    3  A    between atoms: O_4  and  C_5
REMARK    4  A    between atoms: C_5  and  C_7
REMARK    5  A    between atoms: C_8  and  C_9
REMARK    6  A    between atoms: C_17  and  C_18
REMARK                            x       y       z     vdW  Elec       q    Type
REMARK                         _______ _______ _______ _____ _____    ______ ____
ROOT
ATOM      1  O   UNL     1       3.147   2.046  17.415  0.00  0.00    +0.000 OA
ATOM      2  C   UNL     1       3.405   2.512  18.521  0.00  0.00    +0.000 C 
ATOM      3  N   UNL     1       4.324   3.497  18.811  0.00  0.00    +0.000 N 
ATOM      4  C   UNL     1       5.093   4.074  17.837  0.00  0.00    +0.000 A 
ATOM      5  N   UNL     1       5.267   3.713  16.594  0.00  0.00    +0.000 NA
ATOM      6  C   UNL     1       6.078   4.635  15.947  0.00  0.00    +0.000 A 
ATOM      7  C   UNL     1       6.545   5.656  16.754  0.00  0.00    +0.000 A 
ATOM      8  S   UNL     1       5.939   5.465  18.350  0.00  0.00    +0.000 S 
ATOM      9  H   UNL     1       4.321   3.954  19.713  0.00  0.00    +0.000 HD
ENDROOT
BRANCH   6  10
ATOM     10  C   UNL     1       6.382   4.501  14.525  0.00  0.00    +0.000 A 
ATOM     11  C   UNL     1       5.665   3.624  13.697  0.00  0.00    +0.000 A 
ATOM     12  C   UNL     1       6.007   3.478  12.349  0.00  0.00    +0.000 A 
ATOM     13  C   UNL     1       7.065   4.209  11.814  0.00  0.00    +0.000 A 
ATOM     14  C   UNL     1       7.781   5.089  12.623  0.00  0.00    +0.000 A 
ATOM     15  C   UNL     1       7.444   5.231  13.971  0.00  0.00    +0.000 A 
ENDBRANCH   6  10
BRANCH   2  16
ATOM     16  C   UNL     1       2.639   2.026  19.755  0.00  0.00    +0.000 C 
BRANCH  16  17
ATOM     17  O   UNL     1       1.516   2.853  20.061  0.00  0.00    +0.000 OA
BRANCH  17  18
ATOM     18  C   UNL     1       1.761   3.787  21.009  0.00  0.00    +0.000 C 
ATOM     19  O   UNL     1       2.183   3.573  22.133  0.00  0.00    +0.000 OA
BRANCH  18  20
ATOM     20  C   UNL     1       1.400   5.108  20.453  0.00  0.00    +0.000 C 
ATOM     21  C   UNL     1       2.358   5.987  20.131  0.00  0.00    +0.000 C 
BRANCH  21  22
ATOM     22  C   UNL     1       2.058   7.277  19.598  0.00  0.00    +0.000 A 
ATOM     23  C   UNL     1       2.283   7.821  18.341  0.00  0.00    +0.000 A 
ATOM     24  C   UNL     1       1.830   9.168  18.216  0.00  0.00    +0.000 A 
ATOM     25  C   UNL     1       1.264   9.627  19.380  0.00  0.00    +0.000 A 
ATOM     26  S   UNL     1       1.277   8.442  20.608  0.00  0.00    +0.000 S 
ENDBRANCH  21  22
ENDBRANCH  18  20
ENDBRANCH  17  18
ENDBRANCH  16  17
ENDBRANCH   2  16
TORSDOF 6
ENDMDL
MODEL 2
REMARK VINA RESULT:      -7.8      1.005      1.169
REMARK  Name = 
REMARK  6 active torsions:
REMARK  status: ('A' for Active; 'I' for Inactive)
REMARK    1  A    between atoms: C_2  and  C_3
REMARK    2  A    between atoms: C_3  and  O_4
REMARK    3  A    between atoms: O_4  and  C_5
REMARK    4  A    between atoms: C_5  and  C_7
REMARK    5  A    between atoms: C_8  and  C_9
REMARK    6  A    between atoms: C_17  and  C_18
REMARK                            x       y       z     vdW  Elec       q    Type
REMARK                         _______ _______ _______ _____ _____    ______ ____
ROOT
ATOM      1  O   UNL     1       2.044   3.358  16.603  0.00  0.00    +0.000 OA
ATOM      2  C   UNL     1       2.337   3.403  17.794  0.00  0.00    +0.000 C 
ATOM      3  N   UNL     1       3.568   3.713  18.332  0.00  0.00    +0.000 N 
ATOM      4  C   UNL     1       4.648   4.003  17.544  0.00  0.00    +0.000 A 
ATOM      5  N   UNL     1       4.797   3.855  16.254  0.00  0.00    +0.000 NA
ATOM      6  C   UNL     1       6.034   4.349  15.865  0.00  0.00    +0.000 A 
ATOM      7  C   UNL     1       6.819   4.816  16.904  0.00  0.00    +0.000 A 
ATOM      8  S   UNL     1       5.979   4.648  18.394  0.00  0.00    +0.000 S 
ATOM      9  H   UNL     1       3.660   3.923  19.317  0.00  0.00    +0.000 HD
ENDROOT
BRANCH   6  10
ATOM     10  C   UNL     1       6.431   4.361  14.460  0.00  0.00    +0.000 A 
ATOM     11  C   UNL     1       5.868   3.478  13.528  0.00  0.00    +0.000 A 
ATOM     12  C   UNL     1       6.299   3.476  12.197  0.00  0.00    +0.000 A 
ATOM     13  C   UNL     1       7.294   4.360  11.785  0.00  0.00    +0.000 A 
ATOM     14  C   UNL     1       7.857   5.248  12.699  0.00  0.00    +0.000 A 
ATOM     15  C   UNL     1       7.431   5.246  14.030  0.00  0.00    +0.000 A 
ENDBRANCH   6  10
BRANCH   2  16
ATOM     16  C   UNL     1       1.269   3.138  18.858  0.00  0.00    +0.000 C 
BRANCH  16  17
ATOM     17  O   UNL     1       1.813   2.566  20.047  0.00  0.00    +0.000 OA
BRANCH  17  18
ATOM     18  C   UNL     1       1.803   3.399  21.115  0.00  0.00    +0.000 C 
ATOM     19  O   UNL     1       2.081   3.094  22.262  0.00  0.00    +0.000 OA
BRANCH  18  20
ATOM     20  C   UNL     1       1.369   4.732  20.650  0.00  0.00    +0.000 C 
ATOM     21  C   UNL     1       2.182   5.789  20.785  0.00  0.00    +0.000 C 
BRANCH  21  22
ATOM     22  C   UNL     1       1.803   7.098  20.358  0.00  0.00    +0.000 A 
ATOM     23  C   UNL     1       1.092   8.099  21.004  0.00  0.00    +0.000 A 
ATOM     24  C   UNL     1       0.920   9.275  20.214  0.00  0.00    +0.000 A 
ATOM     25  C   UNL     1       1.508   9.150  18.979  0.00  0.00    +0.000 A 
ATOM     26  S   UNL     1       2.260   7.631  18.779  0.00  0.00    +0.000 S 
ENDBRANCH  21  22
ENDBRANCH  18  20
ENDBRANCH  17  18
ENDBRANCH  16  17
ENDBRANCH   2  16
TORSDOF 6
ENDMDL
MODEL 3
REMARK VINA RESULT:      -7.7      0.891      1.020
REMARK  Name = 
REMARK  6 active torsions:
REMARK  status: ('A' for Active; 'I' for Inactive)
REMARK    1  A    between atoms: C_2  and  C_3
REMARK    2  A    between atoms: C_3  and  O_4
REMARK    3  A    between atoms: O_4  and  C_5
REMARK    4  A    between atoms: C_5  and  C_7
REMARK    5  A    between atoms: C_8  and  C_9
REMARK    6  A    between atoms: C_17  and  C_18
REMARK                            x       y       z     vdW  Elec       q    Type
REMARK                         _______ _______ _______ _____ _____    ______ ____
ROOT
ATOM      1  O   UNL     1       3.769   2.392  17.599  0.00  0.00    +0.000 OA
ATOM      2  C   UNL     1       4.152   2.832  18.679  0.00  0.00    +0.000 C 
ATOM      3  N   UNL     1       5.144   3.766  18.888  0.00  0.00    +0.000 N 
ATOM      4  C   UNL     1       5.849   4.314  17.851  0.00  0.00    +0.000 A 
ATOM      5  N   UNL     1       5.888   3.957  16.595  0.00  0.00    +0.000 NA
ATOM      6  C   UNL     1       6.682   4.843  15.880  0.00  0.00    +0.000 A 
ATOM      7  C   UNL     1       7.274   5.830  16.646  0.00  0.00    +0.000 A 
ATOM      8  S   UNL     1       6.809   5.653  18.291  0.00  0.00    +0.000 S 
ATOM      9  H   UNL     1       5.248   4.213  19.789  0.00  0.00    +0.000 HD
ENDROOT
BRANCH   6  10
ATOM     10  C   UNL     1       6.847   4.708  14.435  0.00  0.00    +0.000 A 
ATOM     11  C   UNL     1       6.150   3.736  13.702  0.00  0.00    +0.000 A 
ATOM     12  C   UNL     1       6.360   3.596  12.326  0.00  0.00    +0.000 A 
ATOM     13  C   UNL     1       7.266   4.427  11.670  0.00  0.00    +0.000 A 
ATOM     14  C   UNL     1       7.959   5.401  12.385  0.00  0.00    +0.000 A 
ATOM     15  C   UNL     1       7.754   5.538  13.760  0.00  0.00    +0.000 A 
ENDBRANCH   6  10
BRANCH   2  16
ATOM     16  C   UNL     1       3.480   2.373  19.976  0.00  0.00    +0.000 C 
BRANCH  16  17
ATOM     17  O   UNL     1       2.216   3.004  20.189  0.00  0.00    +0.000 OA
BRANCH  17  18
ATOM     18  C   UNL     1       2.133   3.696  21.349  0.00  0.00    +0.000 C 
ATOM     19  O   UNL     1       2.268   3.233  22.469  0.00  0.00    +0.000 OA
BRANCH  18  20
ATOM     20  C   UNL     1       1.823   5.102  21.022  0.00  0.00    +0.000 C 
ATOM     21  C   UNL     1       2.330   5.664  19.916  0.00  0.00    +0.000 C 
BRANCH  21  22
ATOM     22  C   UNL     1       2.065   7.021  19.562  0.00  0.00    +0.000 A 
ATOM     23  C   UNL     1       1.402   8.030  20.246  0.00  0.00    +0.000 A 
ATOM     24  C   UNL     1       1.348   9.262  19.528  0.00  0.00    +0.000 A 
ATOM     25  C   UNL     1       1.975   9.172  18.310  0.00  0.00    +0.000 A 
ATOM     26  S   UNL     1       2.623   7.616  18.038  0.00  0.00    +0.000 S 
ENDBRANCH  21  22
ENDBRANCH  18  20
ENDBRANCH  17  18
ENDBRANCH  16  17
ENDBRANCH   2  16
TORSDOF 6
ENDMDL
MODEL 4
REMARK VINA RESULT:      -7.7      0.648      1.161
REMARK  Name = 
REMARK  6 active torsions:
REMARK  status: ('A' for Active; 'I' for Inactive)
REMARK    1  A    between atoms: C_2  and  C_3
REMARK    2  A    between atoms: C_3  and  O_4
REMARK    3  A    between atoms: O_4  and  C_5
REMARK    4  A    between atoms: C_5  and  C_7
REMARK    5  A    between atoms: C_8  and  C_9
REMARK    6  A    between atoms: C_17  and  C_18
REMARK                            x       y       z     vdW  Elec       q    Type
REMARK                         _______ _______ _______ _____ _____    ______ ____
ROOT
ATOM      1  O   UNL     1       3.872   1.881  17.737  0.00  0.00    +0.000 OA
ATOM      2  C   UNL     1       3.965   2.594  18.732  0.00  0.00    +0.000 C 
ATOM      3  N   UNL     1       4.574   3.828  18.812  0.00  0.00    +0.000 N 
ATOM      4  C   UNL     1       5.181   4.404  17.729  0.00  0.00    +0.000 A 
ATOM      5  N   UNL     1       5.479   3.881  16.569  0.00  0.00    +0.000 NA
ATOM      6  C   UNL     1       6.025   4.853  15.743  0.00  0.00    +0.000 A 
ATOM      7  C   UNL     1       6.176   6.093  16.336  0.00  0.00    +0.000 A 
ATOM      8  S   UNL     1       5.604   6.041  17.956  0.00  0.00    +0.000 S 
ATOM      9  H   UNL     1       4.423   4.424  19.614  0.00  0.00    +0.000 HD
ENDROOT
BRANCH   6  10
ATOM     10  C   UNL     1       6.390   4.548  14.363  0.00  0.00    +0.000 A 
ATOM     11  C   UNL     1       7.464   5.187  13.726  0.00  0.00    +0.000 A 
ATOM     12  C   UNL     1       7.765   4.912  12.388  0.00  0.00    +0.000 A 
ATOM     13  C   UNL     1       6.999   3.993  11.675  0.00  0.00    +0.000 A 
ATOM     14  C   UNL     1       5.934   3.344  12.297  0.00  0.00    +0.000 A 
ATOM     15  C   UNL     1       5.629   3.623  13.632  0.00  0.00    +0.000 A 
ENDBRANCH   6  10
BRANCH   2  16
ATOM     16  C   UNL     1       3.329   2.154  20.053  0.00  0.00    +0.000 C 
BRANCH  16  17
ATOM     17  O   UNL     1       3.217   3.227  20.989  0.00  0.00    +0.000 OA
BRANCH  17  18
ATOM     18  C   UNL     1       1.947   3.493  21.374  0.00  0.00    +0.000 C 
ATOM     19  O   UNL     1       1.243   2.775  22.063  0.00  0.00    +0.000 OA
BRANCH  18  20
ATOM     20  C   UNL     1       1.556   4.793  20.790  0.00  0.00    +0.000 C 
ATOM     21  C   UNL     1       2.489   5.612  20.286  0.00  0.00    +0.000 C 
BRANCH  21  22
ATOM     22  C   UNL     1       2.160   6.881  19.718  0.00  0.00    +0.000 A 
ATOM     23  C   UNL     1       2.337   7.381  18.436  0.00  0.00    +0.000 A 
ATOM     24  C   UNL     1       1.870   8.720  18.279  0.00  0.00    +0.000 A 
ATOM     25  C   UNL     1       1.340   9.216  19.445  0.00  0.00    +0.000 A 
ATOM     26  S   UNL     1       1.406   8.075  20.714  0.00  0.00    +0.000 S 
ENDBRANCH  21  22
ENDBRANCH  18  20
ENDBRANCH  17  18
ENDBRANCH  16  17
ENDBRANCH   2  16
TORSDOF 6
ENDMDL
MODEL 5
REMARK VINA RESULT:      -7.4      1.133      1.493
REMARK  Name = 
REMARK  6 active torsions:
REMARK  status: ('A' for Active; 'I' for Inactive)
REMARK    1  A    between atoms: C_2  and  C_3
REMARK    2  A    between atoms: C_3  and  O_4
REMARK    3  A    between atoms: O_4  and  C_5
REMARK    4  A    between atoms: C_5  and  C_7
REMARK    5  A    between atoms: C_8  and  C_9
REMARK    6  A    between atoms: C_17  and  C_18
REMARK                            x       y       z     vdW  Elec       q    Type
REMARK                         _______ _______ _______ _____ _____    ______ ____
ROOT
ATOM      1  O   UNL     1       2.170   3.240  16.996  0.00  0.00    +0.000 OA
ATOM      2  C   UNL     1       2.522   3.366  18.165  0.00  0.00    +0.000 C 
ATOM      3  N   UNL     1       3.760   3.770  18.618  0.00  0.00    +0.000 N 
ATOM      4  C   UNL     1       4.779   4.072  17.757  0.00  0.00    +0.000 A 
ATOM      5  N   UNL     1       4.869   3.862  16.471  0.00  0.00    +0.000 NA
ATOM      6  C   UNL     1       6.055   4.399  15.989  0.00  0.00    +0.000 A 
ATOM      7  C   UNL     1       6.865   4.962  16.957  0.00  0.00    +0.000 A 
ATOM      8  S   UNL     1       6.116   4.832  18.498  0.00  0.00    +0.000 S 
ATOM      9  H   UNL     1       3.892   4.038  19.584  0.00  0.00    +0.000 HD
ENDROOT
BRANCH   6  10
ATOM     10  C   UNL     1       6.376   4.354  14.565  0.00  0.00    +0.000 A 
ATOM     11  C   UNL     1       5.692   3.507  13.681  0.00  0.00    +0.000 A 
ATOM     12  C   UNL     1       6.051   3.448  12.330  0.00  0.00    +0.000 A 
ATOM     13  C   UNL     1       7.093   4.237  11.850  0.00  0.00    +0.000 A 
ATOM     14  C   UNL     1       7.776   5.089  12.715  0.00  0.00    +0.000 A 
ATOM     15  C   UNL     1       7.423   5.144  14.066  0.00  0.00    +0.000 A 
ENDBRANCH   6  10
BRANCH   2  16
ATOM     16  C   UNL     1       1.527   3.104  19.298  0.00  0.00    +0.000 C 
BRANCH  16  17
ATOM     17  O   UNL     1       0.970   4.308  19.826  0.00  0.00    +0.000 OA
BRANCH  17  18
ATOM     18  C   UNL     1       1.813   5.003  20.625  0.00  0.00    +0.000 C 
ATOM     19  O   UNL     1       2.487   4.538  21.528  0.00  0.00    +0.000 OA
BRANCH  18  20
ATOM     20  C   UNL     1       1.749   6.425  20.231  0.00  0.00    +0.000 C 
ATOM     21  C   UNL     1       1.189   7.327  21.049  0.00  0.00    +0.000 C 
BRANCH  21  22
ATOM     22  C   UNL     1       1.098   8.710  20.708  0.00  0.00    +0.000 A 
ATOM     23  C   UNL     1       0.847   9.829  21.490  0.00  0.00    +0.000 A 
ATOM     24  C   UNL     1       0.833  11.048  20.749  0.00  0.00    +0.000 A 
ATOM     25  C   UNL     1       1.077  10.837  19.414  0.00  0.00    +0.000 A 
ATOM     26  S   UNL     1       1.323   9.185  19.061  0.00  0.00    +0.000 S 
ENDBRANCH  21  22
ENDBRANCH  18  20
ENDBRANCH  17  18
ENDBRANCH  16  17
ENDBRANCH   2  16
TORSDOF 6
ENDMDL
MODEL 6
REMARK VINA RESULT:      -7.3      0.965      1.505
REMARK  Name = 
REMARK  6 active torsions:
REMARK  status: ('A' for Active; 'I' for Inactive)
REMARK    1  A    between atoms: C_2  and  C_3
REMARK    2  A    between atoms: C_3  and  O_4
REMARK    3  A    between atoms: O_4  and  C_5
REMARK    4  A    between atoms: C_5  and  C_7
REMARK    5  A    between atoms: C_8  and  C_9
REMARK    6  A    between atoms: C_17  and  C_18
REMARK                            x       y       z     vdW  Elec       q    Type
REMARK                         _______ _______ _______ _____ _____    ______ ____
ROOT
ATOM      1  O   UNL     1       2.844   2.007  17.308  0.00  0.00    +0.000 OA
ATOM      2  C   UNL     1       2.796   2.755  18.281  0.00  0.00    +0.000 C 
ATOM      3  N   UNL     1       3.421   3.976  18.418  0.00  0.00    +0.000 N 
ATOM      4  C   UNL     1       4.212   4.496  17.430  0.00  0.00    +0.000 A 
ATOM      5  N   UNL     1       4.677   3.924  16.351  0.00  0.00    +0.000 NA
ATOM      6  C   UNL     1       5.378   4.851  15.593  0.00  0.00    +0.000 A 
ATOM      7  C   UNL     1       5.468   6.108  16.162  0.00  0.00    +0.000 A 
ATOM      8  S   UNL     1       4.641   6.130  17.668  0.00  0.00    +0.000 S 
ATOM      9  H   UNL     1       3.161   4.605  19.165  0.00  0.00    +0.000 HD
ENDROOT
BRANCH   6  10
ATOM     10  C   UNL     1       5.952   4.486  14.301  0.00  0.00    +0.000 A 
ATOM     11  C   UNL     1       7.199   4.976  13.884  0.00  0.00    +0.000 A 
ATOM     12  C   UNL     1       7.706   4.649  12.622  0.00  0.00    +0.000 A 
ATOM     13  C   UNL     1       6.974   3.828  11.766  0.00  0.00    +0.000 A 
ATOM     14  C   UNL     1       5.738   3.328  12.171  0.00  0.00    +0.000 A 
ATOM     15  C   UNL     1       5.228   3.659  13.430  0.00  0.00    +0.000 A 
ENDBRANCH   6  10
BRANCH   2  16
ATOM     16  C   UNL     1       1.943   2.379  19.495  0.00  0.00    +0.000 C 
BRANCH  16  17
ATOM     17  O   UNL     1       1.090   3.445  19.914  0.00  0.00    +0.000 OA
BRANCH  17  18
ATOM     18  C   UNL     1       1.610   4.213  20.900  0.00  0.00    +0.000 C 
ATOM     19  O   UNL     1       2.317   3.822  21.814  0.00  0.00    +0.000 OA
BRANCH  18  20
ATOM     20  C   UNL     1       1.148   5.601  20.691  0.00  0.00    +0.000 C 
ATOM     21  C   UNL     1       2.015   6.550  20.313  0.00  0.00    +0.000 C 
BRANCH  21  22
ATOM     22  C   UNL     1       1.617   7.905  20.106  0.00  0.00    +0.000 A 
ATOM     23  C   UNL     1       1.037   8.828  20.965  0.00  0.00    +0.000 A 
ATOM     24  C   UNL     1       0.786  10.093  20.355  0.00  0.00    +0.000 A 
ATOM     25  C   UNL     1       1.183  10.113  19.041  0.00  0.00    +0.000 A 
ATOM     26  S   UNL     1       1.853   8.621  18.551  0.00  0.00    +0.000 S 
ENDBRANCH  21  22
ENDBRANCH  18  20
ENDBRANCH  17  18
ENDBRANCH  16  17
ENDBRANCH   2  16
TORSDOF 6
ENDMDL
MODEL 7
REMARK VINA RESULT:      -7.2      1.087      1.382
REMARK  Name = 
REMARK  6 active torsions:
REMARK  status: ('A' for Active; 'I' for Inactive)
REMARK    1  A    between atoms: C_2  and  C_3
REMARK    2  A    between atoms: C_3  and  O_4
REMARK    3  A    between atoms: O_4  and  C_5
REMARK    4  A    between atoms: C_5  and  C_7
REMARK    5  A    between atoms: C_8  and  C_9
REMARK    6  A    between atoms: C_17  and  C_18
REMARK                            x       y       z     vdW  Elec       q    Type
REMARK                         _______ _______ _______ _____ _____    ______ ____
ROOT
ATOM      1  O   UNL     1       4.165   2.126  18.148  0.00  0.00    +0.000 OA
ATOM      2  C   UNL     1       4.054   3.015  18.986  0.00  0.00    +0.000 C 
ATOM      3  N   UNL     1       4.330   4.355  18.813  0.00  0.00    +0.000 N 
ATOM      4  C   UNL     1       4.795   4.848  17.625  0.00  0.00    +0.000 A 
ATOM      5  N   UNL     1       5.238   4.206  16.577  0.00  0.00    +0.000 NA
ATOM      6  C   UNL     1       5.537   5.109  15.566  0.00  0.00    +0.000 A 
ATOM      7  C   UNL     1       5.358   6.436  15.909  0.00  0.00    +0.000 A 
ATOM      8  S   UNL     1       4.784   6.551  17.525  0.00  0.00    +0.000 S 
ATOM      9  H   UNL     1       4.017   5.036  19.492  0.00  0.00    +0.000 HD
ENDROOT
BRANCH   6  10
ATOM     10  C   UNL     1       5.997   4.648  14.259  0.00  0.00    +0.000 A 
ATOM     11  C   UNL     1       5.249   3.743  13.492  0.00  0.00    +0.000 A 
ATOM     12  C   UNL     1       5.733   3.280  12.264  0.00  0.00    +0.000 A 
ATOM     13  C   UNL     1       6.966   3.720  11.788  0.00  0.00    +0.000 A 
ATOM     14  C   UNL     1       7.716   4.626  12.536  0.00  0.00    +0.000 A 
ATOM     15  C   UNL     1       7.236   5.084  13.766  0.00  0.00    +0.000 A 
ENDBRANCH   6  10
BRANCH   2  16
ATOM     16  C   UNL     1       3.524   2.689  20.385  0.00  0.00    +0.000 C 
BRANCH  16  17
ATOM     17  O   UNL     1       2.781   3.769  20.952  0.00  0.00    +0.000 OA
BRANCH  17  18
ATOM     18  C   UNL     1       1.470   3.773  20.616  0.00  0.00    +0.000 C 
ATOM     19  O   UNL     1       0.774   2.789  20.434  0.00  0.00    +0.000 OA
BRANCH  18  20
ATOM     20  C   UNL     1       1.038   5.180  20.480  0.00  0.00    +0.000 C 
ATOM     21  C   UNL     1       1.920   6.174  20.646  0.00  0.00    +0.000 C 
BRANCH  21  22
ATOM     22  C   UNL     1       1.549   7.548  20.532  0.00  0.00    +0.000 A 
ATOM     23  C   UNL     1       1.041   8.437  21.469  0.00  0.00    +0.000 A 
ATOM     24  C   UNL     1       0.792   9.738  20.941  0.00  0.00    +0.000 A 
ATOM     25  C   UNL     1       1.118   9.820  19.609  0.00  0.00    +0.000 A 
ATOM     26  S   UNL     1       1.720   8.340  19.006  0.00  0.00    +0.000 S 
ENDBRANCH  21  22
ENDBRANCH  18  20
ENDBRANCH  17  18
ENDBRANCH  16  17
ENDBRANCH   2  16
TORSDOF 6
ENDMDL
MODEL 8
REMARK VINA RESULT:      -7.0      4.835      6.361
REMARK  Name = 
REMARK  6 active torsions:
REMARK  status: ('A' for Active; 'I' for Inactive)
REMARK    1  A    between atoms: C_2  and  C_3
REMARK    2  A    between atoms: C_3  and  O_4
REMARK    3  A    between atoms: O_4  and  C_5
REMARK    4  A    between atoms: C_5  and  C_7
REMARK    5  A    between atoms: C_8  and  C_9
REMARK    6  A    between atoms: C_17  and  C_18
REMARK                            x       y       z     vdW  Elec       q    Type
REMARK                         _______ _______ _______ _____ _____    ______ ____
ROOT
ATOM      1  O   UNL     1       1.915   8.656  19.743  0.00  0.00    +0.000 OA
ATOM      2  C   UNL     1       1.388   8.040  20.665  0.00  0.00    +0.000 C 
ATOM      3  N   UNL     1       1.509   6.694  20.937  0.00  0.00    +0.000 N 
ATOM      4  C   UNL     1       2.263   5.864  20.152  0.00  0.00    +0.000 A 
ATOM      5  N   UNL     1       2.797   6.089  18.981  0.00  0.00    +0.000 NA
ATOM      6  C   UNL     1       3.542   4.987  18.586  0.00  0.00    +0.000 A 
ATOM      7  C   UNL     1       3.503   3.921  19.465  0.00  0.00    +0.000 A 
ATOM      8  S   UNL     1       2.526   4.318  20.823  0.00  0.00    +0.000 S 
ATOM      9  H   UNL     1       1.205   6.320  21.826  0.00  0.00    +0.000 HD
ENDROOT
BRANCH   6  10
ATOM     10  C   UNL     1       4.297   4.999  17.336  0.00  0.00    +0.000 A 
ATOM     11  C   UNL     1       4.715   3.812  16.716  0.00  0.00    +0.000 A 
ATOM     12  C   UNL     1       5.478   3.851  15.544  0.00  0.00    +0.000 A 
ATOM     13  C   UNL     1       5.827   5.075  14.979  0.00  0.00    +0.000 A 
ATOM     14  C   UNL     1       5.412   6.262  15.580  0.00  0.00    +0.000 A 
ATOM     15  C   UNL     1       4.655   6.224  16.754  0.00  0.00    +0.000 A 
ENDBRANCH   6  10
BRANCH   2  16
ATOM     16  C   UNL     1       0.518   8.780  21.684  0.00  0.00    +0.000 C 
BRANCH  16  17
ATOM     17  O   UNL     1      -0.231   9.843  21.094  0.00  0.00    +0.000 OA
BRANCH  17  18
ATOM     18  C   UNL     1      -0.049  11.044  21.691  0.00  0.00    +0.000 C 
ATOM     19  O   UNL     1       0.942  11.748  21.595  0.00  0.00    +0.000 OA
BRANCH  18  20
ATOM     20  C   UNL     1      -1.250  11.338  22.499  0.00  0.00    +0.000 C 
ATOM     21  C   UNL     1      -2.204  12.147  22.019  0.00  0.00    +0.000 C 
BRANCH  21  22
ATOM     22  C   UNL     1      -3.378  12.467  22.766  0.00  0.00    +0.000 A 
ATOM     23  C   UNL     1      -3.642  12.394  24.127  0.00  0.00    +0.000 A 
ATOM     24  C   UNL     1      -4.964  12.806  24.471  0.00  0.00    +0.000 A 
ATOM     25  C   UNL     1      -5.683  13.190  23.367  0.00  0.00    +0.000 A 
ATOM     26  S   UNL     1      -4.771  13.056  21.930  0.00  0.00    +0.000 S 
ENDBRANCH  21  22
ENDBRANCH  18  20
ENDBRANCH  17  18
ENDBRANCH  16  17
ENDBRANCH   2  16
TORSDOF 6
ENDMDL
MODEL 9
REMARK VINA RESULT:      -6.9      2.299      3.067
REMARK  Name = 
REMARK  6 active torsions:
REMARK  status: ('A' for Active; 'I' for Inactive)
REMARK    1  A    between atoms: C_2  and  C_3
REMARK    2  A    between atoms: C_3  and  O_4
REMARK    3  A    between atoms: O_4  and  C_5
REMARK    4  A    between atoms: C_5  and  C_7
REMARK    5  A    between atoms: C_8  and  C_9
REMARK    6  A    between atoms: C_17  and  C_18
REMARK                            x       y       z     vdW  Elec       q    Type
REMARK                         _______ _______ _______ _____ _____    ______ ____
ROOT
ATOM      1  O   UNL     1       2.434   4.573  17.448  0.00  0.00    +0.000 OA
ATOM      2  C   UNL     1       2.884   4.752  18.576  0.00  0.00    +0.000 C 
ATOM      3  N   UNL     1       4.204   4.950  18.918  0.00  0.00    +0.000 N 
ATOM      4  C   UNL     1       5.200   4.955  17.980  0.00  0.00    +0.000 A 
ATOM      5  N   UNL     1       5.158   4.596  16.724  0.00  0.00    +0.000 NA
ATOM      6  C   UNL     1       6.387   4.837  16.126  0.00  0.00    +0.000 A 
ATOM      7  C   UNL     1       7.355   5.330  16.981  0.00  0.00    +0.000 A 
ATOM      8  S   UNL     1       6.704   5.512  18.561  0.00  0.00    +0.000 S 
ATOM      9  H   UNL     1       4.451   5.288  19.839  0.00  0.00    +0.000 HD
ENDROOT
BRANCH   6  10
ATOM     10  C   UNL     1       6.594   4.580  14.704  0.00  0.00    +0.000 A 
ATOM     11  C   UNL     1       7.601   5.232  13.976  0.00  0.00    +0.000 A 
ATOM     12  C   UNL     1       7.749   5.005  12.604  0.00  0.00    +0.000 A 
ATOM     13  C   UNL     1       6.895   4.122  11.946  0.00  0.00    +0.000 A 
ATOM     14  C   UNL     1       5.896   3.462  12.658  0.00  0.00    +0.000 A 
ATOM     15  C   UNL     1       5.744   3.693  14.028  0.00  0.00    +0.000 A 
ENDBRANCH   6  10
BRANCH   2  16
ATOM     16  C   UNL     1       1.939   4.810  19.779  0.00  0.00    +0.000 C 
BRANCH  16  17
ATOM     17  O   UNL     1       2.218   5.915  20.639  0.00  0.00    +0.000 OA
BRANCH  17  18
ATOM     18  C   UNL     1       2.038   7.125  20.059  0.00  0.00    +0.000 C 
ATOM     19  O   UNL     1       2.568   7.511  19.031  0.00  0.00    +0.000 OA
BRANCH  18  20
ATOM     20  C   UNL     1       1.111   7.905  20.905  0.00  0.00    +0.000 C 
ATOM     21  C   UNL     1       1.080   9.241  20.816  0.00  0.00    +0.000 C 
BRANCH  21  22
ATOM     22  C   UNL     1       0.208  10.037  21.618  0.00  0.00    +0.000 A 
ATOM     23  C   UNL     1      -0.501   9.734  22.773  0.00  0.00    +0.000 A 
ATOM     24  C   UNL     1      -1.275  10.826  23.267  0.00  0.00    +0.000 A 
ATOM     25  C   UNL     1      -1.140  11.945  22.482  0.00  0.00    +0.000 A 
ATOM     26  S   UNL     1      -0.087  11.678  21.164  0.00  0.00    +0.000 S 
ENDBRANCH  21  22
ENDBRANCH  18  20
ENDBRANCH  17  18
ENDBRANCH  16  17
ENDBRANCH   2  16
TORSDOF 6
ENDMDL
