MODEL 1
REMARK VINA RESULT:      -6.9      0.000      0.000
REMARK  Name = 
REMARK  13 active torsions:
REMARK  status: ('A' for Active; 'I' for Inactive)
REMARK    1  A    between atoms: C_1  and  C_2
REMARK    2  A    between atoms: C_2  and  C_3
REMARK    3  A    between atoms: C_5  and  C_6
REMARK    4  A    between atoms: N_8  and  C_9
REMARK    5  A    between atoms: N_8  and  C_10
REMARK    6  A    between atoms: C_10  and  C_11
REMARK    7  A    between atoms: C_15  and  C_16
REMARK    8  A    between atoms: C_18  and  C_19
REMARK    9  A    between atoms: C_19  and  N_20
REMARK   10  A    between atoms: N_20  and  C_21
REMARK   11  A    between atoms: N_20  and  C_23
REMARK   12  A    between atoms: C_21  and  C_22
REMARK   13  A    between atoms: C_23  and  C_24
REMARK                            x       y       z     vdW  Elec       q    Type
REMARK                         _______ _______ _______ _____ _____    ______ ____
ROOT
ATOM      1  C   UNL     1       1.235   8.947  20.313  0.00  0.00    +0.000 A 
ATOM      2  O   UNL     1       1.977   7.802  20.497  0.00  0.00    +0.000 OA
ATOM      3  C   UNL     1       2.376   7.355  19.266  0.00  0.00    +0.000 A 
ATOM      4  C   UNL     1       1.807   8.159  18.304  0.00  0.00    +0.000 A 
ATOM      5  C   UNL     1       1.156   9.227  18.956  0.00  0.00    +0.000 A 
ENDROOT
BRANCH   3   6
ATOM      6  C   UNL     1       3.195   6.162  19.140  0.00  0.00    +0.000 C 
ATOM      7  O   UNL     1       3.092   5.207  19.914  0.00  0.00    +0.000 OA
ATOM      8  N   UNL     1       4.065   6.073  18.035  0.00  0.00    +0.000 N 
ATOM      9  C   UNL     1       4.496   7.197  17.211  0.00  0.00    +0.000 C 
BRANCH   8  10
ATOM     10  C   UNL     1       4.383   4.738  17.533  0.00  0.00    +0.000 C 
BRANCH  10  11
ATOM     11  C   UNL     1       5.863   4.553  17.502  0.00  0.00    +0.000 A 
ATOM     12  N   UNL     1       6.578   4.521  18.632  0.00  0.00    +0.000 NA
ATOM     13  O   UNL     1       7.896   4.357  18.219  0.00  0.00    +0.000 OA
ATOM     14  N   UNL     1       7.983   4.286  16.835  0.00  0.00    +0.000 NA
ATOM     15  C   UNL     1       6.727   4.405  16.399  0.00  0.00    +0.000 A 
ATOM     16  C   UNL     1       6.422   4.379  14.953  0.00  0.00    +0.000 C 
ENDBRANCH  10  11
ENDBRANCH   8  10
ENDBRANCH   3   6
BRANCH   1  18
ATOM     17  C   UNL     1      -0.373   8.934  22.271  0.00  0.00    +0.000 C 
ATOM     18  C   UNL     1       0.759   9.646  21.539  0.00  0.00    +0.000 C 
ENDBRANCH   1  18
BRANCH   5  19
ATOM     19  C   UNL     1       0.519  10.347  18.219  0.00  0.00    +0.000 C 
BRANCH  19  20
ATOM     20  N   UNL     1      -0.927  10.445  18.455  0.00  0.00    +0.000 NA
BRANCH  20  21
ATOM     21  C   UNL     1      -1.422  11.798  18.782  0.00  0.00    +0.000 C 
ATOM     22  C   UNL     1      -1.764  12.106  20.240  0.00  0.00    +0.000 C 
ENDBRANCH  20  21
BRANCH  20  23
ATOM     23  C   UNL     1      -1.671   9.861  17.324  0.00  0.00    +0.000 C 
ATOM     24  C   UNL     1      -3.164  10.183  17.361  0.00  0.00    +0.000 C 
ENDBRANCH  20  23
ENDBRANCH  19  20
ENDBRANCH   5  19
TORSDOF 8
ENDMDL
MODEL 2
REMARK VINA RESULT:      -6.6      2.402      8.114
REMARK  Name = 
REMARK  13 active torsions:
REMARK  status: ('A' for Active; 'I' for Inactive)
REMARK    1  A    between atoms: C_1  and  C_2
REMARK    2  A    between atoms: C_2  and  C_3
REMARK    3  A    between atoms: C_5  and  C_6
REMARK    4  A    between atoms: N_8  and  C_9
REMARK    5  A    between atoms: N_8  and  C_10
REMARK    6  A    between atoms: C_10  and  C_11
REMARK    7  A    between atoms: C_15  and  C_16
REMARK    8  A    between atoms: C_18  and  C_19
REMARK    9  A    between atoms: C_19  and  N_20
REMARK   10  A    between atoms: N_20  and  C_21
REMARK   11  A    between atoms: N_20  and  C_23
REMARK   12  A    between atoms: C_21  and  C_22
REMARK   13  A    between atoms: C_23  and  C_24
REMARK                            x       y       z     vdW  Elec       q    Type
REMARK                         _______ _______ _______ _____ _____    ______ ____
ROOT
ATOM      1  C   UNL     1       2.852   5.015  17.801  0.00  0.00    +0.000 A 
ATOM      2  O   UNL     1       1.995   6.089  17.884  0.00  0.00    +0.000 OA
ATOM      3  C   UNL     1       2.746   7.211  18.114  0.00  0.00    +0.000 A 
ATOM      4  C   UNL     1       4.060   6.831  18.274  0.00  0.00    +0.000 A 
ATOM      5  C   UNL     1       4.155   5.454  17.987  0.00  0.00    +0.000 A 
ENDROOT
BRANCH   3   6
ATOM      6  C   UNL     1       2.116   8.513  18.234  0.00  0.00    +0.000 C 
ATOM      7  O   UNL     1       2.100   9.326  17.306  0.00  0.00    +0.000 OA
ATOM      8  N   UNL     1       1.424   8.805  19.426  0.00  0.00    +0.000 N 
ATOM      9  C   UNL     1       1.580   8.086  20.687  0.00  0.00    +0.000 C 
BRANCH   8  10
ATOM     10  C   UNL     1       0.306   9.741  19.346  0.00  0.00    +0.000 C 
BRANCH  10  11
ATOM     11  C   UNL     1       0.670  11.018  20.027  0.00  0.00    +0.000 A 
ATOM     12  N   UNL     1       1.491  11.901  19.446  0.00  0.00    +0.000 NA
ATOM     13  O   UNL     1       1.614  12.937  20.365  0.00  0.00    +0.000 OA
ATOM     14  N   UNL     1       0.865  12.686  21.508  0.00  0.00    +0.000 NA
ATOM     15  C   UNL     1       0.284  11.504  21.293  0.00  0.00    +0.000 A 
ATOM     16  C   UNL     1      -0.602  10.900  22.310  0.00  0.00    +0.000 C 
ENDBRANCH  10  11
ENDBRANCH   8  10
ENDBRANCH   3   6
BRANCH   1  18
ATOM     17  C   UNL     1       1.257   3.181  18.520  0.00  0.00    +0.000 C 
ATOM     18  C   UNL     1       2.246   3.693  17.478  0.00  0.00    +0.000 C 
ENDBRANCH   1  18
BRANCH   5  19
ATOM     19  C   UNL     1       5.450   4.729  17.959  0.00  0.00    +0.000 C 
BRANCH  19  20
ATOM     20  N   UNL     1       6.333   5.167  16.870  0.00  0.00    +0.000 NA
BRANCH  20  21
ATOM     21  C   UNL     1       5.657   5.461  15.589  0.00  0.00    +0.000 C 
ATOM     22  C   UNL     1       5.616   4.361  14.529  0.00  0.00    +0.000 C 
ENDBRANCH  20  21
BRANCH  20  23
ATOM     23  C   UNL     1       7.163   6.302  17.311  0.00  0.00    +0.000 C 
ATOM     24  C   UNL     1       7.783   6.090  18.691  0.00  0.00    +0.000 C 
ENDBRANCH  20  23
ENDBRANCH  19  20
ENDBRANCH   5  19
TORSDOF 8
ENDMDL
MODEL 3
REMARK VINA RESULT:      -6.6      2.463      7.904
REMARK  Name = 
REMARK  13 active torsions:
REMARK  status: ('A' for Active; 'I' for Inactive)
REMARK    1  A    between atoms: C_1  and  C_2
REMARK    2  A    between atoms: C_2  and  C_3
REMARK    3  A    between atoms: C_5  and  C_6
REMARK    4  A    between atoms: N_8  and  C_9
REMARK    5  A    between atoms: N_8  and  C_10
REMARK    6  A    between atoms: C_10  and  C_11
REMARK    7  A    between atoms: C_15  and  C_16
REMARK    8  A    between atoms: C_18  and  C_19
REMARK    9  A    between atoms: C_19  and  N_20
REMARK   10  A    between atoms: N_20  and  C_21
REMARK   11  A    between atoms: N_20  and  C_23
REMARK   12  A    between atoms: C_21  and  C_22
REMARK   13  A    between atoms: C_23  and  C_24
REMARK                            x       y       z     vdW  Elec       q    Type
REMARK                         _______ _______ _______ _____ _____    ______ ____
ROOT
ATOM      1  C   UNL     1       2.760   5.296  18.541  0.00  0.00    +0.000 A 
ATOM      2  O   UNL     1       1.979   6.389  18.841  0.00  0.00    +0.000 OA
ATOM      3  C   UNL     1       2.532   7.483  18.231  0.00  0.00    +0.000 A 
ATOM      4  C   UNL     1       3.709   7.098  17.629  0.00  0.00    +0.000 A 
ATOM      5  C   UNL     1       3.820   5.697  17.740  0.00  0.00    +0.000 A 
ENDROOT
BRANCH   3   6
ATOM      6  C   UNL     1       1.915   8.792  18.354  0.00  0.00    +0.000 C 
ATOM      7  O   UNL     1       1.900   9.604  17.425  0.00  0.00    +0.000 OA
ATOM      8  N   UNL     1       1.236   9.091  19.551  0.00  0.00    +0.000 N 
ATOM      9  C   UNL     1       1.395   8.372  20.812  0.00  0.00    +0.000 C 
BRANCH   8  10
ATOM     10  C   UNL     1       0.126  10.038  19.479  0.00  0.00    +0.000 C 
BRANCH  10  11
ATOM     11  C   UNL     1       0.391  11.193  20.386  0.00  0.00    +0.000 A 
ATOM     12  N   UNL     1      -0.238  11.304  21.563  0.00  0.00    +0.000 NA
ATOM     13  O   UNL     1       0.236  12.490  22.113  0.00  0.00    +0.000 OA
ATOM     14  N   UNL     1       1.157  13.101  21.272  0.00  0.00    +0.000 NA
ATOM     15  C   UNL     1       1.250  12.296  20.211  0.00  0.00    +0.000 A 
ATOM     16  C   UNL     1       2.147  12.629  19.085  0.00  0.00    +0.000 C 
ENDBRANCH  10  11
ENDBRANCH   8  10
ENDBRANCH   3   6
BRANCH   1  18
ATOM     17  C   UNL     1       1.338   4.056  20.233  0.00  0.00    +0.000 C 
ATOM     18  C   UNL     1       2.294   3.975  19.048  0.00  0.00    +0.000 C 
ENDBRANCH   1  18
BRANCH   5  19
ATOM     19  C   UNL     1       4.921   4.928  17.108  0.00  0.00    +0.000 C 
BRANCH  19  20
ATOM     20  N   UNL     1       5.886   5.778  16.399  0.00  0.00    +0.000 NA
BRANCH  20  21
ATOM     21  C   UNL     1       7.194   5.940  17.066  0.00  0.00    +0.000 C 
ATOM     22  C   UNL     1       7.614   7.346  17.494  0.00  0.00    +0.000 C 
ENDBRANCH  20  21
BRANCH  20  23
ATOM     23  C   UNL     1       6.048   5.317  15.008  0.00  0.00    +0.000 C 
ATOM     24  C   UNL     1       6.057   3.794  14.880  0.00  0.00    +0.000 C 
ENDBRANCH  20  23
ENDBRANCH  19  20
ENDBRANCH   5  19
TORSDOF 8
ENDMDL
MODEL 4
REMARK VINA RESULT:      -6.6      2.427      8.043
REMARK  Name = 
REMARK  13 active torsions:
REMARK  status: ('A' for Active; 'I' for Inactive)
REMARK    1  A    between atoms: C_1  and  C_2
REMARK    2  A    between atoms: C_2  and  C_3
REMARK    3  A    between atoms: C_5  and  C_6
REMARK    4  A    between atoms: N_8  and  C_9
REMARK    5  A    between atoms: N_8  and  C_10
REMARK    6  A    between atoms: C_10  and  C_11
REMARK    7  A    between atoms: C_15  and  C_16
REMARK    8  A    between atoms: C_18  and  C_19
REMARK    9  A    between atoms: C_19  and  N_20
REMARK   10  A    between atoms: N_20  and  C_21
REMARK   11  A    between atoms: N_20  and  C_23
REMARK   12  A    between atoms: C_21  and  C_22
REMARK   13  A    between atoms: C_23  and  C_24
REMARK                            x       y       z     vdW  Elec       q    Type
REMARK                         _______ _______ _______ _____ _____    ______ ____
ROOT
ATOM      1  C   UNL     1       2.650   4.906  17.913  0.00  0.00    +0.000 A 
ATOM      2  O   UNL     1       1.869   6.040  17.921  0.00  0.00    +0.000 OA
ATOM      3  C   UNL     1       2.674   7.106  18.219  0.00  0.00    +0.000 A 
ATOM      4  C   UNL     1       3.938   6.634  18.495  0.00  0.00    +0.000 A 
ATOM      5  C   UNL     1       3.960   5.252  18.216  0.00  0.00    +0.000 A 
ENDROOT
BRANCH   3   6
ATOM      6  C   UNL     1       2.131   8.450  18.284  0.00  0.00    +0.000 C 
ATOM      7  O   UNL     1       2.203   9.238  17.337  0.00  0.00    +0.000 OA
ATOM      8  N   UNL     1       1.419   8.820  19.443  0.00  0.00    +0.000 N 
ATOM      9  C   UNL     1       1.482   8.126  20.725  0.00  0.00    +0.000 C 
BRANCH   8  10
ATOM     10  C   UNL     1       0.372   9.827  19.299  0.00  0.00    +0.000 C 
BRANCH  10  11
ATOM     11  C   UNL     1       0.699  11.016  20.138  0.00  0.00    +0.000 A 
ATOM     12  N   UNL     1       0.228  11.131  21.386  0.00  0.00    +0.000 NA
ATOM     13  O   UNL     1       0.713  12.351  21.843  0.00  0.00    +0.000 OA
ATOM     14  N   UNL     1       1.484  12.980  20.873  0.00  0.00    +0.000 NA
ATOM     15  C   UNL     1       1.473  12.152  19.827  0.00  0.00    +0.000 A 
ATOM     16  C   UNL     1       2.195  12.494  18.583  0.00  0.00    +0.000 C 
ENDBRANCH  10  11
ENDBRANCH   8  10
ENDBRANCH   3   6
BRANCH   1  18
ATOM     17  C   UNL     1       1.583   2.753  18.718  0.00  0.00    +0.000 C 
ATOM     18  C   UNL     1       1.983   3.629  17.535  0.00  0.00    +0.000 C 
ENDBRANCH   1  18
BRANCH   5  19
ATOM     19  C   UNL     1       5.197   4.436  18.303  0.00  0.00    +0.000 C 
BRANCH  19  20
ATOM     20  N   UNL     1       6.038   4.533  17.102  0.00  0.00    +0.000 NA
BRANCH  20  21
ATOM     21  C   UNL     1       5.305   4.554  15.819  0.00  0.00    +0.000 C 
ATOM     22  C   UNL     1       6.029   4.053  14.569  0.00  0.00    +0.000 C 
ENDBRANCH  20  21
BRANCH  20  23
ATOM     23  C   UNL     1       6.956   5.681  17.213  0.00  0.00    +0.000 C 
ATOM     24  C   UNL     1       7.688   5.734  18.554  0.00  0.00    +0.000 C 
ENDBRANCH  20  23
ENDBRANCH  19  20
ENDBRANCH   5  19
TORSDOF 8
ENDMDL
MODEL 5
REMARK VINA RESULT:      -6.5      4.468      7.581
REMARK  Name = 
REMARK  13 active torsions:
REMARK  status: ('A' for Active; 'I' for Inactive)
REMARK    1  A    between atoms: C_1  and  C_2
REMARK    2  A    between atoms: C_2  and  C_3
REMARK    3  A    between atoms: C_5  and  C_6
REMARK    4  A    between atoms: N_8  and  C_9
REMARK    5  A    between atoms: N_8  and  C_10
REMARK    6  A    between atoms: C_10  and  C_11
REMARK    7  A    between atoms: C_15  and  C_16
REMARK    8  A    between atoms: C_18  and  C_19
REMARK    9  A    between atoms: C_19  and  N_20
REMARK   10  A    between atoms: N_20  and  C_21
REMARK   11  A    between atoms: N_20  and  C_23
REMARK   12  A    between atoms: C_21  and  C_22
REMARK   13  A    between atoms: C_23  and  C_24
REMARK                            x       y       z     vdW  Elec       q    Type
REMARK                         _______ _______ _______ _____ _____    ______ ____
ROOT
ATOM      1  C   UNL     1       5.381   4.918  15.770  0.00  0.00    +0.000 A 
ATOM      2  O   UNL     1       4.544   3.839  15.942  0.00  0.00    +0.000 OA
ATOM      3  C   UNL     1       4.075   3.868  17.227  0.00  0.00    +0.000 A 
ATOM      4  C   UNL     1       4.690   4.906  17.893  0.00  0.00    +0.000 A 
ATOM      5  C   UNL     1       5.451   5.635  16.957  0.00  0.00    +0.000 A 
ENDROOT
BRANCH   3   6
ATOM      6  C   UNL     1       3.149   2.856  17.702  0.00  0.00    +0.000 C 
ATOM      7  O   UNL     1       3.514   1.714  17.994  0.00  0.00    +0.000 OA
ATOM      8  N   UNL     1       1.810   3.235  17.918  0.00  0.00    +0.000 N 
ATOM      9  C   UNL     1       1.176   4.432  17.373  0.00  0.00    +0.000 C 
BRANCH   8  10
ATOM     10  C   UNL     1       1.059   2.510  18.940  0.00  0.00    +0.000 C 
BRANCH  10  11
ATOM     11  C   UNL     1       1.648   2.782  20.283  0.00  0.00    +0.000 A 
ATOM     12  N   UNL     1       2.150   1.790  21.030  0.00  0.00    +0.000 NA
ATOM     13  O   UNL     1       2.582   2.405  22.200  0.00  0.00    +0.000 OA
ATOM     14  N   UNL     1       2.345   3.774  22.166  0.00  0.00    +0.000 NA
ATOM     15  C   UNL     1       1.771   4.000  20.982  0.00  0.00    +0.000 A 
ATOM     16  C   UNL     1       1.366   5.364  20.585  0.00  0.00    +0.000 C 
ENDBRANCH  10  11
ENDBRANCH   8  10
ENDBRANCH   3   6
BRANCH   1  18
ATOM     17  C   UNL     1       6.383   3.838  13.708  0.00  0.00    +0.000 C 
ATOM     18  C   UNL     1       5.950   5.122  14.409  0.00  0.00    +0.000 C 
ENDBRANCH   1  18
BRANCH   5  19
ATOM     19  C   UNL     1       6.168   6.887  17.308  0.00  0.00    +0.000 C 
BRANCH  19  20
ATOM     20  N   UNL     1       7.588   6.672  17.616  0.00  0.00    +0.000 NA
BRANCH  20  21
ATOM     21  C   UNL     1       8.252   7.780  18.334  0.00  0.00    +0.000 C 
ATOM     22  C   UNL     1       8.060   9.200  17.802  0.00  0.00    +0.000 C 
ENDBRANCH  20  21
BRANCH  20  23
ATOM     23  C   UNL     1       7.770   5.391  18.322  0.00  0.00    +0.000 C 
ATOM     24  C   UNL     1       7.891   5.555  19.837  0.00  0.00    +0.000 C 
ENDBRANCH  20  23
ENDBRANCH  19  20
ENDBRANCH   5  19
TORSDOF 8
ENDMDL
MODEL 6
REMARK VINA RESULT:      -6.5      2.346      8.040
REMARK  Name = 
REMARK  13 active torsions:
REMARK  status: ('A' for Active; 'I' for Inactive)
REMARK    1  A    between atoms: C_1  and  C_2
REMARK    2  A    between atoms: C_2  and  C_3
REMARK    3  A    between atoms: C_5  and  C_6
REMARK    4  A    between atoms: N_8  and  C_9
REMARK    5  A    between atoms: N_8  and  C_10
REMARK    6  A    between atoms: C_10  and  C_11
REMARK    7  A    between atoms: C_15  and  C_16
REMARK    8  A    between atoms: C_18  and  C_19
REMARK    9  A    between atoms: C_19  and  N_20
REMARK   10  A    between atoms: N_20  and  C_21
REMARK   11  A    between atoms: N_20  and  C_23
REMARK   12  A    between atoms: C_21  and  C_22
REMARK   13  A    between atoms: C_23  and  C_24
REMARK                            x       y       z     vdW  Elec       q    Type
REMARK                         _______ _______ _______ _____ _____    ______ ____
ROOT
ATOM      1  C   UNL     1       2.870   5.088  19.420  0.00  0.00    +0.000 A 
ATOM      2  O   UNL     1       2.244   6.300  19.609  0.00  0.00    +0.000 OA
ATOM      3  C   UNL     1       2.596   7.123  18.574  0.00  0.00    +0.000 A 
ATOM      4  C   UNL     1       3.517   6.467  17.788  0.00  0.00    +0.000 A 
ATOM      5  C   UNL     1       3.631   5.143  18.260  0.00  0.00    +0.000 A 
ENDROOT
BRANCH   3   6
ATOM      6  C   UNL     1       2.073   8.475  18.491  0.00  0.00    +0.000 C 
ATOM      7  O   UNL     1       2.158   9.153  17.463  0.00  0.00    +0.000 OA
ATOM      8  N   UNL     1       1.368   8.980  19.601  0.00  0.00    +0.000 N 
ATOM      9  C   UNL     1       1.420   8.428  20.952  0.00  0.00    +0.000 C 
BRANCH   8  10
ATOM     10  C   UNL     1       0.336   9.981  19.347  0.00  0.00    +0.000 C 
BRANCH  10  11
ATOM     11  C   UNL     1       0.701  11.261  20.020  0.00  0.00    +0.000 A 
ATOM     12  N   UNL     1       1.594  12.097  19.475  0.00  0.00    +0.000 NA
ATOM     13  O   UNL     1       1.694  13.153  20.374  0.00  0.00    +0.000 OA
ATOM     14  N   UNL     1       0.858  12.962  21.467  0.00  0.00    +0.000 NA
ATOM     15  C   UNL     1       0.248  11.797  21.242  0.00  0.00    +0.000 A 
ATOM     16  C   UNL     1      -0.728  11.254  22.210  0.00  0.00    +0.000 C 
ENDBRANCH  10  11
ENDBRANCH   8  10
ENDBRANCH   3   6
BRANCH   1  18
ATOM     17  C   UNL     1       1.107   3.558  20.406  0.00  0.00    +0.000 C 
ATOM     18  C   UNL     1       2.564   4.010  20.401  0.00  0.00    +0.000 C 
ENDBRANCH   1  18
BRANCH   5  19
ATOM     19  C   UNL     1       4.464   4.119  17.581  0.00  0.00    +0.000 C 
BRANCH  19  20
ATOM     20  N   UNL     1       5.696   4.669  17.002  0.00  0.00    +0.000 NA
BRANCH  20  21
ATOM     21  C   UNL     1       6.852   4.730  17.921  0.00  0.00    +0.000 C 
ATOM     22  C   UNL     1       7.427   6.105  18.263  0.00  0.00    +0.000 C 
ENDBRANCH  20  21
BRANCH  20  23
ATOM     23  C   UNL     1       6.039   3.956  15.758  0.00  0.00    +0.000 C 
ATOM     24  C   UNL     1       6.812   4.824  14.766  0.00  0.00    +0.000 C 
ENDBRANCH  20  23
ENDBRANCH  19  20
ENDBRANCH   5  19
TORSDOF 8
ENDMDL
MODEL 7
REMARK VINA RESULT:      -6.5      3.099      8.681
REMARK  Name = 
REMARK  13 active torsions:
REMARK  status: ('A' for Active; 'I' for Inactive)
REMARK    1  A    between atoms: C_1  and  C_2
REMARK    2  A    between atoms: C_2  and  C_3
REMARK    3  A    between atoms: C_5  and  C_6
REMARK    4  A    between atoms: N_8  and  C_9
REMARK    5  A    between atoms: N_8  and  C_10
REMARK    6  A    between atoms: C_10  and  C_11
REMARK    7  A    between atoms: C_15  and  C_16
REMARK    8  A    between atoms: C_18  and  C_19
REMARK    9  A    between atoms: C_19  and  N_20
REMARK   10  A    between atoms: N_20  and  C_21
REMARK   11  A    between atoms: N_20  and  C_23
REMARK   12  A    between atoms: C_21  and  C_22
REMARK   13  A    between atoms: C_23  and  C_24
REMARK                            x       y       z     vdW  Elec       q    Type
REMARK                         _______ _______ _______ _____ _____    ______ ____
ROOT
ATOM      1  C   UNL     1       2.446   7.388  18.906  0.00  0.00    +0.000 A 
ATOM      2  O   UNL     1       1.976   8.556  19.462  0.00  0.00    +0.000 OA
ATOM      3  C   UNL     1       1.458   8.259  20.694  0.00  0.00    +0.000 A 
ATOM      4  C   UNL     1       1.512   6.895  20.873  0.00  0.00    +0.000 A 
ATOM      5  C   UNL     1       2.219   6.339  19.786  0.00  0.00    +0.000 A 
ENDROOT
BRANCH   3   6
ATOM      6  C   UNL     1       0.897   9.302  21.533  0.00  0.00    +0.000 C 
ATOM      7  O   UNL     1       1.249   9.467  22.705  0.00  0.00    +0.000 OA
ATOM      8  N   UNL     1      -0.011  10.205  20.947  0.00  0.00    +0.000 N 
ATOM      9  C   UNL     1      -0.722   9.986  19.691  0.00  0.00    +0.000 C 
BRANCH   8  10
ATOM     10  C   UNL     1      -0.080  11.552  21.507  0.00  0.00    +0.000 C 
BRANCH  10  11
ATOM     11  C   UNL     1      -1.412  11.763  22.146  0.00  0.00    +0.000 A 
ATOM     12  N   UNL     1      -1.689  11.245  23.349  0.00  0.00    +0.000 NA
ATOM     13  O   UNL     1      -3.002  11.623  23.609  0.00  0.00    +0.000 OA
ATOM     14  N   UNL     1      -3.525  12.374  22.564  0.00  0.00    +0.000 NA
ATOM     15  C   UNL     1      -2.540  12.459  21.668  0.00  0.00    +0.000 A 
ATOM     16  C   UNL     1      -2.732  13.192  20.399  0.00  0.00    +0.000 C 
ENDBRANCH  10  11
ENDBRANCH   8  10
ENDBRANCH   3   6
BRANCH   1  18
ATOM     17  C   UNL     1       4.534   6.915  17.550  0.00  0.00    +0.000 C 
ATOM     18  C   UNL     1       3.124   7.494  17.584  0.00  0.00    +0.000 C 
ENDBRANCH   1  18
BRANCH   5  19
ATOM     19  C   UNL     1       2.557   4.896  19.705  0.00  0.00    +0.000 C 
BRANCH  19  20
ATOM     20  N   UNL     1       1.624   4.131  18.868  0.00  0.00    +0.000 NA
BRANCH  20  21
ATOM     21  C   UNL     1       2.211   3.541  17.646  0.00  0.00    +0.000 C 
ATOM     22  C   UNL     1       3.717   3.281  17.625  0.00  0.00    +0.000 C 
ENDBRANCH  20  21
BRANCH  20  23
ATOM     23  C   UNL     1       0.931   3.111  19.675  0.00  0.00    +0.000 C 
ATOM     24  C   UNL     1       1.429   3.051  21.119  0.00  0.00    +0.000 C 
ENDBRANCH  20  23
ENDBRANCH  19  20
ENDBRANCH   5  19
TORSDOF 8
ENDMDL
MODEL 8
REMARK VINA RESULT:      -6.5      1.265      1.801
REMARK  Name = 
REMARK  13 active torsions:
REMARK  status: ('A' for Active; 'I' for Inactive)
REMARK    1  A    between atoms: C_1  and  C_2
REMARK    2  A    between atoms: C_2  and  C_3
REMARK    3  A    between atoms: C_5  and  C_6
REMARK    4  A    between atoms: N_8  and  C_9
REMARK    5  A    between atoms: N_8  and  C_10
REMARK    6  A    between atoms: C_10  and  C_11
REMARK    7  A    between atoms: C_15  and  C_16
REMARK    8  A    between atoms: C_18  and  C_19
REMARK    9  A    between atoms: C_19  and  N_20
REMARK   10  A    between atoms: N_20  and  C_21
REMARK   11  A    between atoms: N_20  and  C_23
REMARK   12  A    between atoms: C_21  and  C_22
REMARK   13  A    between atoms: C_23  and  C_24
REMARK                            x       y       z     vdW  Elec       q    Type
REMARK                         _______ _______ _______ _____ _____    ______ ____
ROOT
ATOM      1  C   UNL     1       0.787   8.393  20.653  0.00  0.00    +0.000 A 
ATOM      2  O   UNL     1       1.504   7.221  20.735  0.00  0.00    +0.000 OA
ATOM      3  C   UNL     1       2.300   7.135  19.624  0.00  0.00    +0.000 A 
ATOM      4  C   UNL     1       2.014   8.199  18.798  0.00  0.00    +0.000 A 
ATOM      5  C   UNL     1       1.123   9.054  19.479  0.00  0.00    +0.000 A 
ENDROOT
BRANCH   3   6
ATOM      6  C   UNL     1       3.191   6.004  19.436  0.00  0.00    +0.000 C 
ATOM      7  O   UNL     1       3.249   5.069  20.240  0.00  0.00    +0.000 OA
ATOM      8  N   UNL     1       3.939   5.943  18.244  0.00  0.00    +0.000 N 
ATOM      9  C   UNL     1       4.187   7.069  17.349  0.00  0.00    +0.000 C 
BRANCH   8  10
ATOM     10  C   UNL     1       4.303   4.621  17.743  0.00  0.00    +0.000 C 
BRANCH  10  11
ATOM     11  C   UNL     1       5.786   4.526  17.606  0.00  0.00    +0.000 A 
ATOM     12  N   UNL     1       6.580   4.535  18.684  0.00  0.00    +0.000 NA
ATOM     13  O   UNL     1       7.873   4.453  18.178  0.00  0.00    +0.000 OA
ATOM     14  N   UNL     1       7.867   4.392  16.790  0.00  0.00    +0.000 NA
ATOM     15  C   UNL     1       6.579   4.436  16.444  0.00  0.00    +0.000 A 
ATOM     16  C   UNL     1       6.175   4.396  15.023  0.00  0.00    +0.000 C 
ENDBRANCH  10  11
ENDBRANCH   8  10
ENDBRANCH   3   6
BRANCH   1  18
ATOM     17  C   UNL     1       0.579   9.547  22.900  0.00  0.00    +0.000 C 
ATOM     18  C   UNL     1      -0.096   8.726  21.806  0.00  0.00    +0.000 C 
ENDBRANCH   1  18
BRANCH   5  19
ATOM     19  C   UNL     1       0.682  10.358  18.924  0.00  0.00    +0.000 C 
BRANCH  19  20
ATOM     20  N   UNL     1       1.319  11.508  19.577  0.00  0.00    +0.000 NA
BRANCH  20  21
ATOM     21  C   UNL     1       2.118  12.376  18.686  0.00  0.00    +0.000 C 
ATOM     22  C   UNL     1       1.736  13.853  18.588  0.00  0.00    +0.000 C 
ENDBRANCH  20  21
BRANCH  20  23
ATOM     23  C   UNL     1       0.320  12.288  20.329  0.00  0.00    +0.000 C 
ATOM     24  C   UNL     1      -1.119  11.887  20.006  0.00  0.00    +0.000 C 
ENDBRANCH  20  23
ENDBRANCH  19  20
ENDBRANCH   5  19
TORSDOF 8
ENDMDL
MODEL 9
REMARK VINA RESULT:      -6.5      2.799      7.941
REMARK  Name = 
REMARK  13 active torsions:
REMARK  status: ('A' for Active; 'I' for Inactive)
REMARK    1  A    between atoms: C_1  and  C_2
REMARK    2  A    between atoms: C_2  and  C_3
REMARK    3  A    between atoms: C_5  and  C_6
REMARK    4  A    between atoms: N_8  and  C_9
REMARK    5  A    between atoms: N_8  and  C_10
REMARK    6  A    between atoms: C_10  and  C_11
REMARK    7  A    between atoms: C_15  and  C_16
REMARK    8  A    between atoms: C_18  and  C_19
REMARK    9  A    between atoms: C_19  and  N_20
REMARK   10  A    between atoms: N_20  and  C_21
REMARK   11  A    between atoms: N_20  and  C_23
REMARK   12  A    between atoms: C_21  and  C_22
REMARK   13  A    between atoms: C_23  and  C_24
REMARK                            x       y       z     vdW  Elec       q    Type
REMARK                         _______ _______ _______ _____ _____    ______ ____
ROOT
ATOM      1  C   UNL     1       4.328   6.312  17.426  0.00  0.00    +0.000 A 
ATOM      2  O   UNL     1       3.938   7.629  17.525  0.00  0.00    +0.000 OA
ATOM      3  C   UNL     1       2.656   7.656  18.003  0.00  0.00    +0.000 A 
ATOM      4  C   UNL     1       2.204   6.360  18.114  0.00  0.00    +0.000 A 
ATOM      5  C   UNL     1       3.284   5.495  17.838  0.00  0.00    +0.000 A 
ENDROOT
BRANCH   3   6
ATOM      6  C   UNL     1       1.975   8.918  18.230  0.00  0.00    +0.000 C 
ATOM      7  O   UNL     1       1.914   9.799  17.368  0.00  0.00    +0.000 OA
ATOM      8  N   UNL     1       1.289   9.089  19.448  0.00  0.00    +0.000 N 
ATOM      9  C   UNL     1       1.491   8.282  20.648  0.00  0.00    +0.000 C 
BRANCH   8  10
ATOM     10  C   UNL     1       0.133   9.981  19.452  0.00  0.00    +0.000 C 
BRANCH  10  11
ATOM     11  C   UNL     1       0.365  11.100  20.412  0.00  0.00    +0.000 A 
ATOM     12  N   UNL     1      -0.245  11.125  21.603  0.00  0.00    +0.000 NA
ATOM     13  O   UNL     1       0.188  12.302  22.204  0.00  0.00    +0.000 OA
ATOM     14  N   UNL     1       1.065  12.994  21.379  0.00  0.00    +0.000 NA
ATOM     15  C   UNL     1       1.172  12.248  20.277  0.00  0.00    +0.000 A 
ATOM     16  C   UNL     1       2.031  12.675  19.153  0.00  0.00    +0.000 C 
ENDBRANCH  10  11
ENDBRANCH   8  10
ENDBRANCH   3   6
BRANCH   1  18
ATOM     17  C   UNL     1       6.739   5.985  18.132  0.00  0.00    +0.000 C 
ATOM     18  C   UNL     1       5.728   6.053  16.992  0.00  0.00    +0.000 C 
ENDBRANCH   1  18
BRANCH   5  19
ATOM     19  C   UNL     1       3.182   4.020  17.966  0.00  0.00    +0.000 C 
BRANCH  19  20
ATOM     20  N   UNL     1       3.086   3.567  19.360  0.00  0.00    +0.000 NA
BRANCH  20  21
ATOM     21  C   UNL     1       1.714   3.311  19.847  0.00  0.00    +0.000 C 
ATOM     22  C   UNL     1       1.530   2.946  21.320  0.00  0.00    +0.000 C 
ENDBRANCH  20  21
BRANCH  20  23
ATOM     23  C   UNL     1       3.958   2.399  19.580  0.00  0.00    +0.000 C 
ATOM     24  C   UNL     1       3.749   1.294  18.545  0.00  0.00    +0.000 C 
ENDBRANCH  20  23
ENDBRANCH  19  20
ENDBRANCH   5  19
TORSDOF 8
ENDMDL
