MODEL 1
REMARK VINA RESULT:      -6.8      0.000      0.000
REMARK  Name = 
REMARK  9 active torsions:
REMARK  status: ('A' for Active; 'I' for Inactive)
REMARK    1  A    between atoms: C_1  and  C_2
REMARK    2  A    between atoms: N_6  and  C_7
REMARK    3  A    between atoms: C_7  and  C_8
REMARK    4  A    between atoms: C_8  and  N_9
REMARK    5  A    between atoms: C_10  and  C_12
REMARK    6  A    between atoms: N_14  and  C_15
REMARK    7  A    between atoms: C_15  and  C_16
REMARK    8  A    between atoms: C_15  and  C_17
REMARK    9  A    between atoms: C_15  and  C_18
REMARK                            x       y       z     vdW  Elec       q    Type
REMARK                         _______ _______ _______ _____ _____    ______ ____
ROOT
ATOM      1  N   UNL     1       5.365   4.208  16.457  0.00  0.00    +0.000 N 
ATOM      2  C   UNL     1       6.653   4.310  15.975  0.00  0.00    +0.000 C 
ATOM      3  O   UNL     1       7.673   4.303  16.649  0.00  0.00    +0.000 OA
ATOM      4  H   UNL     1       4.630   4.156  15.754  0.00  0.00    +0.000 HD
ENDROOT
BRANCH   2   5
ATOM      5  C   UNL     1       6.724   4.464  14.443  0.00  0.00    +0.000 C 
ATOM      6  O   UNL     1       7.242   5.468  13.971  0.00  0.00    +0.000 OA
ATOM      7  N   UNL     1       6.172   3.409  13.751  0.00  0.00    +0.000 N 
ATOM      8  H   UNL     1       5.789   2.661  14.324  0.00  0.00    +0.000 HD
BRANCH   7   9
ATOM      9  C   UNL     1       6.111   3.310  12.290  0.00  0.00    +0.000 C 
ATOM     10  C   UNL     1       6.373   1.864  11.837  0.00  0.00    +0.000 C 
ATOM     11  C   UNL     1       4.702   3.718  11.824  0.00  0.00    +0.000 C 
ATOM     12  C   UNL     1       7.129   4.261  11.641  0.00  0.00    +0.000 C 
ENDBRANCH   7   9
ENDBRANCH   2   5
BRANCH   1  13
ATOM     13  C   UNL     1       5.069   3.967  17.854  0.00  0.00    +0.000 C 
BRANCH  13  14
ATOM     14  C   UNL     1       3.767   3.195  18.063  0.00  0.00    +0.000 C 
BRANCH  14  20
ATOM     15  C   UNL     1       0.859   2.354  18.741  0.00  0.00    +0.000 C 
ATOM     16  C   UNL     1       1.606   3.479  19.358  0.00  0.00    +0.000 A 
ATOM     17  N   UNL     1       1.139   4.277  20.299  0.00  0.00    +0.000 NA
ATOM     18  C   UNL     1       2.148   5.152  20.591  0.00  0.00    +0.000 A 
ATOM     19  C   UNL     1       3.250   4.899  19.811  0.00  0.00    +0.000 A 
ATOM     20  N   UNL     1       2.894   3.834  19.027  0.00  0.00    +0.000 N 
ENDBRANCH  14  20
ENDBRANCH  13  14
ENDBRANCH   1  13
TORSDOF 5
ENDMDL
MODEL 2
REMARK VINA RESULT:      -6.7      3.523      4.884
REMARK  Name = 
REMARK  9 active torsions:
REMARK  status: ('A' for Active; 'I' for Inactive)
REMARK    1  A    between atoms: C_1  and  C_2
REMARK    2  A    between atoms: N_6  and  C_7
REMARK    3  A    between atoms: C_7  and  C_8
REMARK    4  A    between atoms: C_8  and  N_9
REMARK    5  A    between atoms: C_10  and  C_12
REMARK    6  A    between atoms: N_14  and  C_15
REMARK    7  A    between atoms: C_15  and  C_16
REMARK    8  A    between atoms: C_15  and  C_17
REMARK    9  A    between atoms: C_15  and  C_18
REMARK                            x       y       z     vdW  Elec       q    Type
REMARK                         _______ _______ _______ _____ _____    ______ ____
ROOT
ATOM      1  N   UNL     1       3.467   5.739  19.915  0.00  0.00    +0.000 N 
ATOM      2  C   UNL     1       3.331   6.001  18.567  0.00  0.00    +0.000 C 
ATOM      3  O   UNL     1       2.276   6.084  17.956  0.00  0.00    +0.000 OA
ATOM      4  H   UNL     1       4.417   5.778  20.281  0.00  0.00    +0.000 HD
ENDROOT
BRANCH   2   5
ATOM      5  C   UNL     1       4.678   6.172  17.837  0.00  0.00    +0.000 C 
ATOM      6  O   UNL     1       4.680   6.601  16.690  0.00  0.00    +0.000 OA
ATOM      7  N   UNL     1       5.771   5.807  18.591  0.00  0.00    +0.000 N 
ATOM      8  H   UNL     1       5.565   5.473  19.530  0.00  0.00    +0.000 HD
BRANCH   7   9
ATOM      9  C   UNL     1       7.161   5.872  18.132  0.00  0.00    +0.000 C 
ATOM     10  C   UNL     1       7.468   7.257  17.539  0.00  0.00    +0.000 C 
ATOM     11  C   UNL     1       8.092   5.641  19.336  0.00  0.00    +0.000 C 
ATOM     12  C   UNL     1       7.438   4.776  17.090  0.00  0.00    +0.000 C 
ENDBRANCH   7   9
ENDBRANCH   2   5
BRANCH   1  13
ATOM     13  C   UNL     1       2.334   5.633  20.809  0.00  0.00    +0.000 C 
BRANCH  13  14
ATOM     14  C   UNL     1       2.092   4.204  21.297  0.00  0.00    +0.000 C 
BRANCH  14  20
ATOM     15  C   UNL     1       4.284   2.340  20.138  0.00  0.00    +0.000 C 
ATOM     16  C   UNL     1       2.876   2.422  19.674  0.00  0.00    +0.000 A 
ATOM     17  N   UNL     1       2.352   1.696  18.705  0.00  0.00    +0.000 NA
ATOM     18  C   UNL     1       1.040   2.070  18.617  0.00  0.00    +0.000 A 
ATOM     19  C   UNL     1       0.752   3.049  19.536  0.00  0.00    +0.000 A 
ATOM     20  N   UNL     1       1.928   3.268  20.203  0.00  0.00    +0.000 N 
ENDBRANCH  14  20
ENDBRANCH  13  14
ENDBRANCH   1  13
TORSDOF 5
ENDMDL
MODEL 3
REMARK VINA RESULT:      -6.7      3.576      4.755
REMARK  Name = 
REMARK  9 active torsions:
REMARK  status: ('A' for Active; 'I' for Inactive)
REMARK    1  A    between atoms: C_1  and  C_2
REMARK    2  A    between atoms: N_6  and  C_7
REMARK    3  A    between atoms: C_7  and  C_8
REMARK    4  A    between atoms: C_8  and  N_9
REMARK    5  A    between atoms: C_10  and  C_12
REMARK    6  A    between atoms: N_14  and  C_15
REMARK    7  A    between atoms: C_15  and  C_16
REMARK    8  A    between atoms: C_15  and  C_17
REMARK    9  A    between atoms: C_15  and  C_18
REMARK                            x       y       z     vdW  Elec       q    Type
REMARK                         _______ _______ _______ _____ _____    ______ ____
ROOT
ATOM      1  N   UNL     1       3.359   5.536  19.926  0.00  0.00    +0.000 N 
ATOM      2  C   UNL     1       3.244   5.797  18.576  0.00  0.00    +0.000 C 
ATOM      3  O   UNL     1       2.208   5.781  17.929  0.00  0.00    +0.000 OA
ATOM      4  H   UNL     1       4.287   5.664  20.326  0.00  0.00    +0.000 HD
ENDROOT
BRANCH   2   5
ATOM      5  C   UNL     1       4.592   6.109  17.896  0.00  0.00    +0.000 C 
ATOM      6  O   UNL     1       4.591   6.698  16.822  0.00  0.00    +0.000 OA
ATOM      7  N   UNL     1       5.688   5.670  18.603  0.00  0.00    +0.000 N 
ATOM      8  H   UNL     1       5.484   5.199  19.481  0.00  0.00    +0.000 HD
BRANCH   7   9
ATOM      9  C   UNL     1       7.080   5.840  18.176  0.00  0.00    +0.000 C 
ATOM     10  C   UNL     1       8.032   5.715  19.377  0.00  0.00    +0.000 C 
ATOM     11  C   UNL     1       7.426   4.734  17.163  0.00  0.00    +0.000 C 
ATOM     12  C   UNL     1       7.272   7.201  17.488  0.00  0.00    +0.000 C 
ENDBRANCH   7   9
ENDBRANCH   2   5
BRANCH   1  13
ATOM     13  C   UNL     1       2.212   5.307  20.779  0.00  0.00    +0.000 C 
BRANCH  13  14
ATOM     14  C   UNL     1       2.097   3.857  21.246  0.00  0.00    +0.000 C 
BRANCH  14  20
ATOM     15  C   UNL     1       0.677   2.564  18.810  0.00  0.00    +0.000 C 
ATOM     16  C   UNL     1       2.089   2.344  19.212  0.00  0.00    +0.000 A 
ATOM     17  N   UNL     1       2.950   1.573  18.576  0.00  0.00    +0.000 NA
ATOM     18  C   UNL     1       4.127   1.670  19.263  0.00  0.00    +0.000 A 
ATOM     19  C   UNL     1       3.989   2.503  20.346  0.00  0.00    +0.000 A 
ATOM     20  N   UNL     1       2.688   2.925  20.307  0.00  0.00    +0.000 N 
ENDBRANCH  14  20
ENDBRANCH  13  14
ENDBRANCH   1  13
TORSDOF 5
ENDMDL
MODEL 4
REMARK VINA RESULT:      -6.7      3.567      4.649
REMARK  Name = 
REMARK  9 active torsions:
REMARK  status: ('A' for Active; 'I' for Inactive)
REMARK    1  A    between atoms: C_1  and  C_2
REMARK    2  A    between atoms: N_6  and  C_7
REMARK    3  A    between atoms: C_7  and  C_8
REMARK    4  A    between atoms: C_8  and  N_9
REMARK    5  A    between atoms: C_10  and  C_12
REMARK    6  A    between atoms: N_14  and  C_15
REMARK    7  A    between atoms: C_15  and  C_16
REMARK    8  A    between atoms: C_15  and  C_17
REMARK    9  A    between atoms: C_15  and  C_18
REMARK                            x       y       z     vdW  Elec       q    Type
REMARK                         _______ _______ _______ _____ _____    ______ ____
ROOT
ATOM      1  N   UNL     1       2.766   4.611  17.523  0.00  0.00    +0.000 N 
ATOM      2  C   UNL     1       3.266   5.854  17.851  0.00  0.00    +0.000 C 
ATOM      3  O   UNL     1       2.660   6.736  18.440  0.00  0.00    +0.000 OA
ATOM      4  H   UNL     1       3.428   3.964  17.096  0.00  0.00    +0.000 HD
ENDROOT
BRANCH   2   5
ATOM      5  C   UNL     1       4.717   6.075  17.380  0.00  0.00    +0.000 C 
ATOM      6  O   UNL     1       4.913   6.539  16.264  0.00  0.00    +0.000 OA
ATOM      7  N   UNL     1       5.666   5.710  18.309  0.00  0.00    +0.000 N 
ATOM      8  H   UNL     1       5.304   5.343  19.186  0.00  0.00    +0.000 HD
BRANCH   7   9
ATOM      9  C   UNL     1       7.114   5.819  18.109  0.00  0.00    +0.000 C 
ATOM     10  C   UNL     1       7.475   7.194  17.522  0.00  0.00    +0.000 C 
ATOM     11  C   UNL     1       7.814   5.672  19.471  0.00  0.00    +0.000 C 
ATOM     12  C   UNL     1       7.617   4.699  17.184  0.00  0.00    +0.000 C 
ENDBRANCH   7   9
ENDBRANCH   2   5
BRANCH   1  13
ATOM     13  C   UNL     1       1.457   4.157  17.944  0.00  0.00    +0.000 C 
BRANCH  13  14
ATOM     14  C   UNL     1       1.470   2.732  18.496  0.00  0.00    +0.000 C 
BRANCH  14  20
ATOM     15  C   UNL     1       1.378   3.064  21.579  0.00  0.00    +0.000 C 
ATOM     16  C   UNL     1       2.556   2.633  20.785  0.00  0.00    +0.000 A 
ATOM     17  N   UNL     1       3.734   2.315  21.285  0.00  0.00    +0.000 NA
ATOM     18  C   UNL     1       4.516   1.961  20.220  0.00  0.00    +0.000 A 
ATOM     19  C   UNL     1       3.814   2.075  19.045  0.00  0.00    +0.000 A 
ATOM     20  N   UNL     1       2.568   2.506  19.414  0.00  0.00    +0.000 N 
ENDBRANCH  14  20
ENDBRANCH  13  14
ENDBRANCH   1  13
TORSDOF 5
ENDMDL
MODEL 5
REMARK VINA RESULT:      -6.6      3.104      4.497
REMARK  Name = 
REMARK  9 active torsions:
REMARK  status: ('A' for Active; 'I' for Inactive)
REMARK    1  A    between atoms: C_1  and  C_2
REMARK    2  A    between atoms: N_6  and  C_7
REMARK    3  A    between atoms: C_7  and  C_8
REMARK    4  A    between atoms: C_8  and  N_9
REMARK    5  A    between atoms: C_10  and  C_12
REMARK    6  A    between atoms: N_14  and  C_15
REMARK    7  A    between atoms: C_15  and  C_16
REMARK    8  A    between atoms: C_15  and  C_17
REMARK    9  A    between atoms: C_15  and  C_18
REMARK                            x       y       z     vdW  Elec       q    Type
REMARK                         _______ _______ _______ _____ _____    ______ ____
ROOT
ATOM      1  N   UNL     1       3.292   5.948  19.819  0.00  0.00    +0.000 N 
ATOM      2  C   UNL     1       3.114   5.961  18.451  0.00  0.00    +0.000 C 
ATOM      3  O   UNL     1       2.078   5.691  17.861  0.00  0.00    +0.000 OA
ATOM      4  H   UNL     1       4.199   6.272  20.152  0.00  0.00    +0.000 HD
ENDROOT
BRANCH   2   5
ATOM      5  C   UNL     1       4.387   6.342  17.670  0.00  0.00    +0.000 C 
ATOM      6  O   UNL     1       4.364   7.327  16.944  0.00  0.00    +0.000 OA
ATOM      7  N   UNL     1       5.450   5.494  17.889  0.00  0.00    +0.000 N 
ATOM      8  H   UNL     1       5.273   4.727  18.533  0.00  0.00    +0.000 HD
BRANCH   7   9
ATOM      9  C   UNL     1       6.770   5.634  17.270  0.00  0.00    +0.000 C 
ATOM     10  C   UNL     1       7.746   4.591  17.838  0.00  0.00    +0.000 C 
ATOM     11  C   UNL     1       6.634   5.399  15.755  0.00  0.00    +0.000 C 
ATOM     12  C   UNL     1       7.323   7.052  17.490  0.00  0.00    +0.000 C 
ENDBRANCH   7   9
ENDBRANCH   2   5
BRANCH   1  13
ATOM     13  C   UNL     1       2.208   5.705  20.747  0.00  0.00    +0.000 C 
BRANCH  13  14
ATOM     14  C   UNL     1       2.185   4.271  21.274  0.00  0.00    +0.000 C 
BRANCH  14  20
ATOM     15  C   UNL     1       4.335   2.433  20.000  0.00  0.00    +0.000 C 
ATOM     16  C   UNL     1       2.894   2.464  19.644  0.00  0.00    +0.000 A 
ATOM     17  N   UNL     1       2.318   1.697  18.738  0.00  0.00    +0.000 NA
ATOM     18  C   UNL     1       0.993   2.033  18.742  0.00  0.00    +0.000 A 
ATOM     19  C   UNL     1       0.749   3.030  19.654  0.00  0.00    +0.000 A 
ATOM     20  N   UNL     1       1.965   3.300  20.222  0.00  0.00    +0.000 N 
ENDBRANCH  14  20
ENDBRANCH  13  14
ENDBRANCH   1  13
TORSDOF 5
ENDMDL
MODEL 6
REMARK VINA RESULT:      -6.5      0.851      1.437
REMARK  Name = 
REMARK  9 active torsions:
REMARK  status: ('A' for Active; 'I' for Inactive)
REMARK    1  A    between atoms: C_1  and  C_2
REMARK    2  A    between atoms: N_6  and  C_7
REMARK    3  A    between atoms: C_7  and  C_8
REMARK    4  A    between atoms: C_8  and  N_9
REMARK    5  A    between atoms: C_10  and  C_12
REMARK    6  A    between atoms: N_14  and  C_15
REMARK    7  A    between atoms: C_15  and  C_16
REMARK    8  A    between atoms: C_15  and  C_17
REMARK    9  A    between atoms: C_15  and  C_18
REMARK                            x       y       z     vdW  Elec       q    Type
REMARK                         _______ _______ _______ _____ _____    ______ ____
ROOT
ATOM      1  N   UNL     1       5.473   3.968  16.364  0.00  0.00    +0.000 N 
ATOM      2  C   UNL     1       6.751   4.317  15.982  0.00  0.00    +0.000 C 
ATOM      3  O   UNL     1       7.692   4.527  16.734  0.00  0.00    +0.000 OA
ATOM      4  H   UNL     1       4.825   3.757  15.606  0.00  0.00    +0.000 HD
ENDROOT
BRANCH   2   5
ATOM      5  C   UNL     1       6.919   4.454  14.456  0.00  0.00    +0.000 C 
ATOM      6  O   UNL     1       7.649   5.334  14.017  0.00  0.00    +0.000 OA
ATOM      7  N   UNL     1       6.198   3.532  13.731  0.00  0.00    +0.000 N 
ATOM      8  H   UNL     1       5.648   2.876  14.279  0.00  0.00    +0.000 HD
BRANCH   7   9
ATOM      9  C   UNL     1       6.184   3.447  12.268  0.00  0.00    +0.000 C 
ATOM     10  C   UNL     1       7.122   4.502  11.658  0.00  0.00    +0.000 C 
ATOM     11  C   UNL     1       6.681   2.052  11.847  0.00  0.00    +0.000 C 
ATOM     12  C   UNL     1       4.756   3.634  11.730  0.00  0.00    +0.000 C 
ENDBRANCH   7   9
ENDBRANCH   2   5
BRANCH   1  13
ATOM     13  C   UNL     1       5.113   3.698  17.740  0.00  0.00    +0.000 C 
BRANCH  13  14
ATOM     14  C   UNL     1       3.918   2.755  17.870  0.00  0.00    +0.000 C 
BRANCH  14  20
ATOM     15  C   UNL     1       1.372   4.519  17.704  0.00  0.00    +0.000 C 
ATOM     16  C   UNL     1       1.911   3.881  18.932  0.00  0.00    +0.000 A 
ATOM     17  N   UNL     1       1.369   3.965  20.131  0.00  0.00    +0.000 NA
ATOM     18  C   UNL     1       2.165   3.224  20.960  0.00  0.00    +0.000 A 
ATOM     19  C   UNL     1       3.220   2.685  20.265  0.00  0.00    +0.000 A 
ATOM     20  N   UNL     1       3.051   3.111  18.975  0.00  0.00    +0.000 N 
ENDBRANCH  14  20
ENDBRANCH  13  14
ENDBRANCH   1  13
TORSDOF 5
ENDMDL
MODEL 7
REMARK VINA RESULT:      -6.5      0.990      1.548
REMARK  Name = 
REMARK  9 active torsions:
REMARK  status: ('A' for Active; 'I' for Inactive)
REMARK    1  A    between atoms: C_1  and  C_2
REMARK    2  A    between atoms: N_6  and  C_7
REMARK    3  A    between atoms: C_7  and  C_8
REMARK    4  A    between atoms: C_8  and  N_9
REMARK    5  A    between atoms: C_10  and  C_12
REMARK    6  A    between atoms: N_14  and  C_15
REMARK    7  A    between atoms: C_15  and  C_16
REMARK    8  A    between atoms: C_15  and  C_17
REMARK    9  A    between atoms: C_15  and  C_18
REMARK                            x       y       z     vdW  Elec       q    Type
REMARK                         _______ _______ _______ _____ _____    ______ ____
ROOT
ATOM      1  N   UNL     1       5.222   3.927  16.820  0.00  0.00    +0.000 N 
ATOM      2  C   UNL     1       6.414   4.235  16.196  0.00  0.00    +0.000 C 
ATOM      3  O   UNL     1       7.508   4.302  16.736  0.00  0.00    +0.000 OA
ATOM      4  H   UNL     1       4.411   3.841  16.210  0.00  0.00    +0.000 HD
ENDROOT
BRANCH   2   5
ATOM      5  C   UNL     1       6.259   4.527  14.691  0.00  0.00    +0.000 C 
ATOM      6  O   UNL     1       6.101   5.685  14.325  0.00  0.00    +0.000 OA
ATOM      7  N   UNL     1       6.320   3.404  13.896  0.00  0.00    +0.000 N 
ATOM      8  H   UNL     1       6.460   2.525  14.389  0.00  0.00    +0.000 HD
BRANCH   7   9
ATOM      9  C   UNL     1       6.202   3.408  12.435  0.00  0.00    +0.000 C 
ATOM     10  C   UNL     1       4.767   3.766  12.012  0.00  0.00    +0.000 C 
ATOM     11  C   UNL     1       7.157   4.471  11.864  0.00  0.00    +0.000 C 
ATOM     12  C   UNL     1       6.599   2.041  11.857  0.00  0.00    +0.000 C 
ENDBRANCH   7   9
ENDBRANCH   2   5
BRANCH   1  13
ATOM     13  C   UNL     1       5.147   3.532  18.211  0.00  0.00    +0.000 C 
BRANCH  13  14
ATOM     14  C   UNL     1       4.250   4.448  19.043  0.00  0.00    +0.000 C 
BRANCH  14  20
ATOM     15  C   UNL     1       1.497   4.377  17.616  0.00  0.00    +0.000 C 
ATOM     16  C   UNL     1       1.828   3.714  18.902  0.00  0.00    +0.000 A 
ATOM     17  N   UNL     1       0.995   2.983  19.617  0.00  0.00    +0.000 NA
ATOM     18  C   UNL     1       1.703   2.551  20.703  0.00  0.00    +0.000 A 
ATOM     19  C   UNL     1       2.989   3.032  20.665  0.00  0.00    +0.000 A 
ATOM     20  N   UNL     1       3.058   3.773  19.516  0.00  0.00    +0.000 N 
ENDBRANCH  14  20
ENDBRANCH  13  14
ENDBRANCH   1  13
TORSDOF 5
ENDMDL
MODEL 8
REMARK VINA RESULT:      -6.5      3.498      6.968
REMARK  Name = 
REMARK  9 active torsions:
REMARK  status: ('A' for Active; 'I' for Inactive)
REMARK    1  A    between atoms: C_1  and  C_2
REMARK    2  A    between atoms: N_6  and  C_7
REMARK    3  A    between atoms: C_7  and  C_8
REMARK    4  A    between atoms: C_8  and  N_9
REMARK    5  A    between atoms: C_10  and  C_12
REMARK    6  A    between atoms: N_14  and  C_15
REMARK    7  A    between atoms: C_15  and  C_16
REMARK    8  A    between atoms: C_15  and  C_17
REMARK    9  A    between atoms: C_15  and  C_18
REMARK                            x       y       z     vdW  Elec       q    Type
REMARK                         _______ _______ _______ _____ _____    ______ ____
ROOT
ATOM      1  N   UNL     1       3.786   6.246  18.022  0.00  0.00    +0.000 N 
ATOM      2  C   UNL     1       2.783   6.571  18.912  0.00  0.00    +0.000 C 
ATOM      3  O   UNL     1       2.352   7.695  19.125  0.00  0.00    +0.000 OA
ATOM      4  H   UNL     1       3.976   5.251  17.911  0.00  0.00    +0.000 HD
ENDROOT
BRANCH   2   5
ATOM      5  C   UNL     1       2.226   5.356  19.679  0.00  0.00    +0.000 C 
ATOM      6  O   UNL     1       1.515   5.548  20.657  0.00  0.00    +0.000 OA
ATOM      7  N   UNL     1       2.608   4.142  19.153  0.00  0.00    +0.000 N 
ATOM      8  H   UNL     1       3.204   4.189  18.330  0.00  0.00    +0.000 HD
BRANCH   7   9
ATOM      9  C   UNL     1       2.215   2.838  19.693  0.00  0.00    +0.000 C 
ATOM     10  C   UNL     1       0.708   2.604  19.495  0.00  0.00    +0.000 C 
ATOM     11  C   UNL     1       2.982   1.738  18.938  0.00  0.00    +0.000 C 
ATOM     12  C   UNL     1       2.575   2.740  21.185  0.00  0.00    +0.000 C 
ENDBRANCH   7   9
ENDBRANCH   2   5
BRANCH   1  13
ATOM     13  C   UNL     1       4.390   7.217  17.134  0.00  0.00    +0.000 C 
BRANCH  13  14
ATOM     14  C   UNL     1       5.905   7.321  17.306  0.00  0.00    +0.000 C 
BRANCH  14  20
ATOM     15  C   UNL     1       7.881   5.746  19.106  0.00  0.00    +0.000 C 
ATOM     16  C   UNL     1       7.458   5.363  17.735  0.00  0.00    +0.000 A 
ATOM     17  N   UNL     1       7.855   4.283  17.091  0.00  0.00    +0.000 NA
ATOM     18  C   UNL     1       7.217   4.305  15.883  0.00  0.00    +0.000 A 
ATOM     19  C   UNL     1       6.424   5.421  15.773  0.00  0.00    +0.000 A 
ATOM     20  N   UNL     1       6.586   6.090  16.957  0.00  0.00    +0.000 N 
ENDBRANCH  14  20
ENDBRANCH  13  14
ENDBRANCH   1  13
TORSDOF 5
ENDMDL
MODEL 9
REMARK VINA RESULT:      -6.5      0.375      1.066
REMARK  Name = 
REMARK  9 active torsions:
REMARK  status: ('A' for Active; 'I' for Inactive)
REMARK    1  A    between atoms: C_1  and  C_2
REMARK    2  A    between atoms: N_6  and  C_7
REMARK    3  A    between atoms: C_7  and  C_8
REMARK    4  A    between atoms: C_8  and  N_9
REMARK    5  A    between atoms: C_10  and  C_12
REMARK    6  A    between atoms: N_14  and  C_15
REMARK    7  A    between atoms: C_15  and  C_16
REMARK    8  A    between atoms: C_15  and  C_17
REMARK    9  A    between atoms: C_15  and  C_18
REMARK                            x       y       z     vdW  Elec       q    Type
REMARK                         _______ _______ _______ _____ _____    ______ ____
ROOT
ATOM      1  N   UNL     1       5.203   4.183  16.770  0.00  0.00    +0.000 N 
ATOM      2  C   UNL     1       6.418   4.314  16.130  0.00  0.00    +0.000 C 
ATOM      3  O   UNL     1       7.517   4.258  16.661  0.00  0.00    +0.000 OA
ATOM      4  H   UNL     1       4.381   4.182  16.168  0.00  0.00    +0.000 HD
ENDROOT
BRANCH   2   5
ATOM      5  C   UNL     1       6.288   4.570  14.616  0.00  0.00    +0.000 C 
ATOM      6  O   UNL     1       6.180   5.723  14.217  0.00  0.00    +0.000 OA
ATOM      7  N   UNL     1       6.309   3.425  13.852  0.00  0.00    +0.000 N 
ATOM      8  H   UNL     1       6.409   2.555  14.369  0.00  0.00    +0.000 HD
BRANCH   7   9
ATOM      9  C   UNL     1       6.203   3.394  12.391  0.00  0.00    +0.000 C 
ATOM     10  C   UNL     1       4.772   3.742  11.947  0.00  0.00    +0.000 C 
ATOM     11  C   UNL     1       7.164   4.442  11.802  0.00  0.00    +0.000 C 
ATOM     12  C   UNL     1       6.604   2.012  11.849  0.00  0.00    +0.000 C 
ENDBRANCH   7   9
ENDBRANCH   2   5
BRANCH   1  13
ATOM     13  C   UNL     1       5.091   3.850  18.175  0.00  0.00    +0.000 C 
BRANCH  13  14
ATOM     14  C   UNL     1       3.861   2.998  18.488  0.00  0.00    +0.000 C 
BRANCH  14  20
ATOM     15  C   UNL     1       0.850   2.302  18.762  0.00  0.00    +0.000 C 
ATOM     16  C   UNL     1       1.550   3.420  19.443  0.00  0.00    +0.000 A 
ATOM     17  N   UNL     1       0.989   4.271  20.279  0.00  0.00    +0.000 NA
ATOM     18  C   UNL     1       1.983   5.116  20.686  0.00  0.00    +0.000 A 
ATOM     19  C   UNL     1       3.173   4.790  20.084  0.00  0.00    +0.000 A 
ATOM     20  N   UNL     1       2.888   3.710  19.292  0.00  0.00    +0.000 N 
ENDBRANCH  14  20
ENDBRANCH  13  14
ENDBRANCH   1  13
TORSDOF 5
ENDMDL
