MODEL 1
REMARK VINA RESULT:      -7.3      0.000      0.000
REMARK  Name = 
REMARK  5 active torsions:
REMARK  status: ('A' for Active; 'I' for Inactive)
REMARK    1  A    between atoms: C_1  and  C_2
REMARK    2  A    between atoms: C_2  and  C_3
REMARK    3  A    between atoms: C_2  and  O_4
REMARK    4  A    between atoms: O_4  and  C_5
REMARK    5  A    between atoms: C_9  and  N_10
REMARK                            x       y       z     vdW  Elec       q    Type
REMARK                         _______ _______ _______ _____ _____    ______ ____
ROOT
ATOM      1  C   UNL     1       6.176   5.271  16.087  0.00  0.00    +0.000 A 
ATOM      2  C   UNL     1       7.242   4.908  16.894  0.00  0.00    +0.000 A 
ATOM      3  N   UNL     1       7.114   4.535  18.184  0.00  0.00    +0.000 NA
ATOM      4  C   UNL     1       5.849   4.525  18.676  0.00  0.00    +0.000 A 
ATOM      5  C   UNL     1       4.683   4.850  17.970  0.00  0.00    +0.000 A 
ATOM      6  C   UNL     1       4.891   5.185  16.625  0.00  0.00    +0.000 A 
ENDROOT
BRANCH   5   7
ATOM      7  N   UNL     1       3.424   4.821  18.535  0.00  0.00    +0.000 N 
ATOM      8  C   UNL     1       3.014   5.645  19.673  0.00  0.00    +0.000 C 
ATOM      9  C   UNL     1       1.830   4.910  20.281  0.00  0.00    +0.000 C 
ATOM     10  C   UNL     1       2.209   3.886  21.339  0.00  0.00    +0.000 C 
ATOM     11  N   UNL     1       1.171   2.851  21.255  0.00  0.00    +0.000 NA
ATOM     12  C   UNL     1       0.657   2.857  19.874  0.00  0.00    +0.000 C 
ATOM     13  C   UNL     1       1.270   4.053  19.162  0.00  0.00    +0.000 C 
ATOM     14  C   UNL     1       2.499   3.706  18.315  0.00  0.00    +0.000 C 
ATOM     15  H   UNL     1       0.409   3.088  21.891  0.00  0.00    +0.000 HD
ENDBRANCH   5   7
BRANCH   1  16
ATOM     16  O   UNL     1       6.463   5.638  14.805  0.00  0.00    +0.000 OA
BRANCH  16  18
ATOM     17  C   UNL     1       6.056   3.784  13.353  0.00  0.00    +0.000 C 
ATOM     18  C   UNL     1       7.129   4.661  13.991  0.00  0.00    +0.000 C 
ATOM     19  C   UNL     1       7.935   5.394  12.924  0.00  0.00    +0.000 C 
ENDBRANCH  16  18
ENDBRANCH   1  16
TORSDOF 3
ENDMDL
MODEL 2
REMARK VINA RESULT:      -7.1      1.886      2.825
REMARK  Name = 
REMARK  5 active torsions:
REMARK  status: ('A' for Active; 'I' for Inactive)
REMARK    1  A    between atoms: C_1  and  C_2
REMARK    2  A    between atoms: C_2  and  C_3
REMARK    3  A    between atoms: C_2  and  O_4
REMARK    4  A    between atoms: O_4  and  C_5
REMARK    5  A    between atoms: C_9  and  N_10
REMARK                            x       y       z     vdW  Elec       q    Type
REMARK                         _______ _______ _______ _____ _____    ______ ____
ROOT
ATOM      1  C   UNL     1       6.667   5.813  16.361  0.00  0.00    +0.000 A 
ATOM      2  C   UNL     1       6.989   4.880  15.389  0.00  0.00    +0.000 A 
ATOM      3  N   UNL     1       6.191   3.848  15.045  0.00  0.00    +0.000 NA
ATOM      4  C   UNL     1       5.012   3.763  15.712  0.00  0.00    +0.000 A 
ATOM      5  C   UNL     1       4.553   4.644  16.700  0.00  0.00    +0.000 A 
ATOM      6  C   UNL     1       5.417   5.713  16.972  0.00  0.00    +0.000 A 
ENDROOT
BRANCH   5   7
ATOM      7  N   UNL     1       3.341   4.495  17.342  0.00  0.00    +0.000 N 
ATOM      8  C   UNL     1       2.847   5.394  18.387  0.00  0.00    +0.000 C 
ATOM      9  C   UNL     1       1.826   4.572  19.159  0.00  0.00    +0.000 C 
ATOM     10  C   UNL     1       2.413   3.779  20.316  0.00  0.00    +0.000 C 
ATOM     11  N   UNL     1       1.558   2.590  20.433  0.00  0.00    +0.000 NA
ATOM     12  C   UNL     1       0.994   2.323  19.098  0.00  0.00    +0.000 C 
ATOM     13  C   UNL     1       1.371   3.490  18.199  0.00  0.00    +0.000 C 
ATOM     14  C   UNL     1       2.605   3.228  17.329  0.00  0.00    +0.000 C 
ATOM     15  H   UNL     1       0.794   2.790  21.080  0.00  0.00    +0.000 HD
ENDBRANCH   5   7
BRANCH   1  16
ATOM     16  O   UNL     1       7.582   6.794  16.609  0.00  0.00    +0.000 OA
BRANCH  16  18
ATOM     17  C   UNL     1       8.151   6.531  18.915  0.00  0.00    +0.000 C 
ATOM     18  C   UNL     1       7.495   7.445  17.885  0.00  0.00    +0.000 C 
ATOM     19  C   UNL     1       8.232   8.778  17.796  0.00  0.00    +0.000 C 
ENDBRANCH  16  18
ENDBRANCH   1  16
TORSDOF 3
ENDMDL
MODEL 3
REMARK VINA RESULT:      -7.1      1.214      1.754
REMARK  Name = 
REMARK  5 active torsions:
REMARK  status: ('A' for Active; 'I' for Inactive)
REMARK    1  A    between atoms: C_1  and  C_2
REMARK    2  A    between atoms: C_2  and  C_3
REMARK    3  A    between atoms: C_2  and  O_4
REMARK    4  A    between atoms: O_4  and  C_5
REMARK    5  A    between atoms: C_9  and  N_10
REMARK                            x       y       z     vdW  Elec       q    Type
REMARK                         _______ _______ _______ _____ _____    ______ ____
ROOT
ATOM      1  C   UNL     1       6.062   5.350  16.121  0.00  0.00    +0.000 A 
ATOM      2  C   UNL     1       6.913   6.088  16.927  0.00  0.00    +0.000 A 
ATOM      3  N   UNL     1       6.928   6.010  18.274  0.00  0.00    +0.000 NA
ATOM      4  C   UNL     1       6.045   5.141  18.827  0.00  0.00    +0.000 A 
ATOM      5  C   UNL     1       5.143   4.321  18.134  0.00  0.00    +0.000 A 
ATOM      6  C   UNL     1       5.217   4.427  16.738  0.00  0.00    +0.000 A 
ENDROOT
BRANCH   5   7
ATOM      7  N   UNL     1       4.268   3.460  18.761  0.00  0.00    +0.000 N 
ATOM      8  C   UNL     1       3.547   2.381  18.083  0.00  0.00    +0.000 C 
ATOM      9  C   UNL     1       2.344   2.096  18.971  0.00  0.00    +0.000 C 
ATOM     10  C   UNL     1       1.118   2.932  18.644  0.00  0.00    +0.000 C 
ATOM     11  N   UNL     1       0.412   3.086  19.923  0.00  0.00    +0.000 NA
ATOM     12  C   UNL     1       1.420   2.996  20.994  0.00  0.00    +0.000 C 
ATOM     13  C   UNL     1       2.736   2.591  20.351  0.00  0.00    +0.000 C 
ATOM     14  C   UNL     1       3.676   3.768  20.066  0.00  0.00    +0.000 C 
ATOM     15  H   UNL     1      -0.254   2.320  20.032  0.00  0.00    +0.000 HD
ENDBRANCH   5   7
BRANCH   1  16
ATOM     16  O   UNL     1       6.154   5.547  14.774  0.00  0.00    +0.000 OA
BRANCH  16  18
ATOM     17  C   UNL     1       5.932   3.730  13.238  0.00  0.00    +0.000 C 
ATOM     18  C   UNL     1       6.916   4.582  14.035  0.00  0.00    +0.000 C 
ATOM     19  C   UNL     1       7.863   5.330  13.102  0.00  0.00    +0.000 C 
ENDBRANCH  16  18
ENDBRANCH   1  16
TORSDOF 3
ENDMDL
MODEL 4
REMARK VINA RESULT:      -7.1      2.021      3.222
REMARK  Name = 
REMARK  5 active torsions:
REMARK  status: ('A' for Active; 'I' for Inactive)
REMARK    1  A    between atoms: C_1  and  C_2
REMARK    2  A    between atoms: C_2  and  C_3
REMARK    3  A    between atoms: C_2  and  O_4
REMARK    4  A    between atoms: O_4  and  C_5
REMARK    5  A    between atoms: C_9  and  N_10
REMARK                            x       y       z     vdW  Elec       q    Type
REMARK                         _______ _______ _______ _____ _____    ______ ____
ROOT
ATOM      1  C   UNL     1       5.845   6.051  16.855  0.00  0.00    +0.000 A 
ATOM      2  C   UNL     1       6.158   5.490  15.628  0.00  0.00    +0.000 A 
ATOM      3  N   UNL     1       5.785   4.249  15.252  0.00  0.00    +0.000 NA
ATOM      4  C   UNL     1       5.059   3.548  16.159  0.00  0.00    +0.000 A 
ATOM      5  C   UNL     1       4.657   3.997  17.425  0.00  0.00    +0.000 A 
ATOM      6  C   UNL     1       5.044   5.310  17.725  0.00  0.00    +0.000 A 
ENDROOT
BRANCH   5   7
ATOM      7  N   UNL     1       3.919   3.228  18.301  0.00  0.00    +0.000 N 
ATOM      8  C   UNL     1       2.990   2.175  17.890  0.00  0.00    +0.000 C 
ATOM      9  C   UNL     1       2.035   2.016  19.064  0.00  0.00    +0.000 C 
ATOM     10  C   UNL     1       0.816   2.922  19.001  0.00  0.00    +0.000 C 
ATOM     11  N   UNL     1       0.464   3.182  20.404  0.00  0.00    +0.000 NA
ATOM     12  C   UNL     1       1.702   3.068  21.194  0.00  0.00    +0.000 C 
ATOM     13  C   UNL     1       2.789   2.542  20.270  0.00  0.00    +0.000 C 
ATOM     14  C   UNL     1       3.693   3.636  19.691  0.00  0.00    +0.000 C 
ATOM     15  H   UNL     1      -0.196   2.471  20.721  0.00  0.00    +0.000 HD
ENDBRANCH   5   7
BRANCH   1  16
ATOM     16  O   UNL     1       6.303   7.313  17.098  0.00  0.00    +0.000 OA
BRANCH  16  18
ATOM     17  C   UNL     1       7.947   8.900  17.795  0.00  0.00    +0.000 C 
ATOM     18  C   UNL     1       7.685   7.434  17.465  0.00  0.00    +0.000 C 
ATOM     19  C   UNL     1       7.937   6.551  18.683  0.00  0.00    +0.000 C 
ENDBRANCH  16  18
ENDBRANCH   1  16
TORSDOF 3
ENDMDL
MODEL 5
REMARK VINA RESULT:      -7.1      2.002      2.865
REMARK  Name = 
REMARK  5 active torsions:
REMARK  status: ('A' for Active; 'I' for Inactive)
REMARK    1  A    between atoms: C_1  and  C_2
REMARK    2  A    between atoms: C_2  and  C_3
REMARK    3  A    between atoms: C_2  and  O_4
REMARK    4  A    between atoms: O_4  and  C_5
REMARK    5  A    between atoms: C_9  and  N_10
REMARK                            x       y       z     vdW  Elec       q    Type
REMARK                         _______ _______ _______ _____ _____    ______ ____
ROOT
ATOM      1  C   UNL     1       6.282   4.249  13.672  0.00  0.00    +0.000 A 
ATOM      2  C   UNL     1       7.394   5.019  13.968  0.00  0.00    +0.000 A 
ATOM      3  N   UNL     1       7.637   5.553  15.183  0.00  0.00    +0.000 NA
ATOM      4  C   UNL     1       6.714   5.289  16.142  0.00  0.00    +0.000 A 
ATOM      5  C   UNL     1       5.557   4.513  15.987  0.00  0.00    +0.000 A 
ATOM      6  C   UNL     1       5.395   3.958  14.710  0.00  0.00    +0.000 A 
ENDROOT
BRANCH   5   7
ATOM      7  N   UNL     1       4.656   4.286  17.007  0.00  0.00    +0.000 N 
ATOM      8  C   UNL     1       5.036   3.953  18.381  0.00  0.00    +0.000 C 
ATOM      9  C   UNL     1       3.814   3.262  18.968  0.00  0.00    +0.000 C 
ATOM     10  C   UNL     1       3.790   1.756  18.758  0.00  0.00    +0.000 C 
ATOM     11  N   UNL     1       2.365   1.406  18.685  0.00  0.00    +0.000 NA
ATOM     12  C   UNL     1       1.647   2.592  18.184  0.00  0.00    +0.000 C 
ATOM     13  C   UNL     1       2.641   3.741  18.133  0.00  0.00    +0.000 C 
ATOM     14  C   UNL     1       3.248   3.975  16.746  0.00  0.00    +0.000 C 
ATOM     15  H   UNL     1       2.026   1.187  19.622  0.00  0.00    +0.000 HD
ENDBRANCH   5   7
BRANCH   1  16
ATOM     16  O   UNL     1       6.164   3.789  12.393  0.00  0.00    +0.000 OA
BRANCH  16  18
ATOM     17  C   UNL     1       4.078   3.322  11.326  0.00  0.00    +0.000 C 
ATOM     18  C   UNL     1       5.207   2.743  12.172  0.00  0.00    +0.000 C 
ATOM     19  C   UNL     1       5.905   1.602  11.439  0.00  0.00    +0.000 C 
ENDBRANCH  16  18
ENDBRANCH   1  16
TORSDOF 3
ENDMDL
MODEL 6
REMARK VINA RESULT:      -7.0      1.329      1.789
REMARK  Name = 
REMARK  5 active torsions:
REMARK  status: ('A' for Active; 'I' for Inactive)
REMARK    1  A    between atoms: C_1  and  C_2
REMARK    2  A    between atoms: C_2  and  C_3
REMARK    3  A    between atoms: C_2  and  O_4
REMARK    4  A    between atoms: O_4  and  C_5
REMARK    5  A    between atoms: C_9  and  N_10
REMARK                            x       y       z     vdW  Elec       q    Type
REMARK                         _______ _______ _______ _____ _____    ______ ____
ROOT
ATOM      1  C   UNL     1       5.707   4.493  15.434  0.00  0.00    +0.000 A 
ATOM      2  C   UNL     1       6.997   4.878  15.761  0.00  0.00    +0.000 A 
ATOM      3  N   UNL     1       7.466   4.933  17.024  0.00  0.00    +0.000 NA
ATOM      4  C   UNL     1       6.592   4.575  17.998  0.00  0.00    +0.000 A 
ATOM      5  C   UNL     1       5.270   4.149  17.810  0.00  0.00    +0.000 A 
ATOM      6  C   UNL     1       4.868   4.078  16.469  0.00  0.00    +0.000 A 
ENDROOT
BRANCH   5   7
ATOM      7  N   UNL     1       4.431   3.802  18.849  0.00  0.00    +0.000 N 
ATOM      8  C   UNL     1       4.075   2.425  19.194  0.00  0.00    +0.000 C 
ATOM      9  C   UNL     1       2.767   2.541  19.963  0.00  0.00    +0.000 C 
ATOM     10  C   UNL     1       1.525   2.494  19.087  0.00  0.00    +0.000 C 
ATOM     11  N   UNL     1       0.530   3.309  19.797  0.00  0.00    +0.000 NA
ATOM     12  C   UNL     1       1.268   4.303  20.596  0.00  0.00    +0.000 C 
ATOM     13  C   UNL     1       2.745   3.955  20.510  0.00  0.00    +0.000 C 
ATOM     14  C   UNL     1       3.514   4.767  19.462  0.00  0.00    +0.000 C 
ATOM     15  H   UNL     1      -0.005   2.711  20.427  0.00  0.00    +0.000 HD
ENDBRANCH   5   7
BRANCH   1  16
ATOM     16  O   UNL     1       5.371   4.501  14.112  0.00  0.00    +0.000 OA
BRANCH  16  18
ATOM     17  C   UNL     1       5.257   3.108  12.173  0.00  0.00    +0.000 C 
ATOM     18  C   UNL     1       6.176   3.693  13.240  0.00  0.00    +0.000 C 
ATOM     19  C   UNL     1       7.242   4.584  12.608  0.00  0.00    +0.000 C 
ENDBRANCH  16  18
ENDBRANCH   1  16
TORSDOF 3
ENDMDL
MODEL 7
REMARK VINA RESULT:      -7.0      1.603      2.298
REMARK  Name = 
REMARK  5 active torsions:
REMARK  status: ('A' for Active; 'I' for Inactive)
REMARK    1  A    between atoms: C_1  and  C_2
REMARK    2  A    between atoms: C_2  and  C_3
REMARK    3  A    between atoms: C_2  and  O_4
REMARK    4  A    between atoms: O_4  and  C_5
REMARK    5  A    between atoms: C_9  and  N_10
REMARK                            x       y       z     vdW  Elec       q    Type
REMARK                         _______ _______ _______ _____ _____    ______ ____
ROOT
ATOM      1  C   UNL     1       5.928   4.459  15.380  0.00  0.00    +0.000 A 
ATOM      2  C   UNL     1       5.639   5.812  15.437  0.00  0.00    +0.000 A 
ATOM      3  N   UNL     1       4.804   6.364  16.341  0.00  0.00    +0.000 NA
ATOM      4  C   UNL     1       4.242   5.507  17.230  0.00  0.00    +0.000 A 
ATOM      5  C   UNL     1       4.459   4.124  17.299  0.00  0.00    +0.000 A 
ATOM      6  C   UNL     1       5.370   3.631  16.356  0.00  0.00    +0.000 A 
ENDROOT
BRANCH   5   7
ATOM      7  N   UNL     1       3.850   3.308  18.230  0.00  0.00    +0.000 N 
ATOM      8  C   UNL     1       2.898   2.247  17.897  0.00  0.00    +0.000 C 
ATOM      9  C   UNL     1       2.098   2.025  19.173  0.00  0.00    +0.000 C 
ATOM     10  C   UNL     1       0.863   2.903  19.293  0.00  0.00    +0.000 C 
ATOM     11  N   UNL     1       0.682   3.107  20.737  0.00  0.00    +0.000 NA
ATOM     12  C   UNL     1       2.010   2.995  21.365  0.00  0.00    +0.000 C 
ATOM     13  C   UNL     1       2.985   2.528  20.296  0.00  0.00    +0.000 C 
ATOM     14  C   UNL     1       3.789   3.662  19.651  0.00  0.00    +0.000 C 
ATOM     15  H   UNL     1       0.080   2.369  21.106  0.00  0.00    +0.000 HD
ENDBRANCH   5   7
BRANCH   1  16
ATOM     16  O   UNL     1       6.782   4.045  14.400  0.00  0.00    +0.000 OA
BRANCH  16  18
ATOM     17  C   UNL     1       7.700   5.020  12.421  0.00  0.00    +0.000 C 
ATOM     18  C   UNL     1       6.449   4.423  13.056  0.00  0.00    +0.000 C 
ATOM     19  C   UNL     1       6.002   3.174  12.303  0.00  0.00    +0.000 C 
ENDBRANCH  16  18
ENDBRANCH   1  16
TORSDOF 3
ENDMDL
MODEL 8
REMARK VINA RESULT:      -6.9      1.883      2.854
REMARK  Name = 
REMARK  5 active torsions:
REMARK  status: ('A' for Active; 'I' for Inactive)
REMARK    1  A    between atoms: C_1  and  C_2
REMARK    2  A    between atoms: C_2  and  C_3
REMARK    3  A    between atoms: C_2  and  O_4
REMARK    4  A    between atoms: O_4  and  C_5
REMARK    5  A    between atoms: C_9  and  N_10
REMARK                            x       y       z     vdW  Elec       q    Type
REMARK                         _______ _______ _______ _____ _____    ______ ____
ROOT
ATOM      1  C   UNL     1       5.867   6.312  16.857  0.00  0.00    +0.000 A 
ATOM      2  C   UNL     1       6.360   5.431  15.909  0.00  0.00    +0.000 A 
ATOM      3  N   UNL     1       5.849   4.202  15.690  0.00  0.00    +0.000 NA
ATOM      4  C   UNL     1       4.789   3.854  16.461  0.00  0.00    +0.000 A 
ATOM      5  C   UNL     1       4.179   4.650  17.441  0.00  0.00    +0.000 A 
ATOM      6  C   UNL     1       4.738   5.927  17.581  0.00  0.00    +0.000 A 
ENDROOT
BRANCH   5   7
ATOM      7  N   UNL     1       3.102   4.230  18.193  0.00  0.00    +0.000 N 
ATOM      8  C   UNL     1       2.094   5.129  18.760  0.00  0.00    +0.000 C 
ATOM      9  C   UNL     1       1.482   4.351  19.915  0.00  0.00    +0.000 C 
ATOM     10  C   UNL     1       2.197   4.544  21.243  0.00  0.00    +0.000 C 
ATOM     11  N   UNL     1       1.999   3.282  21.967  0.00  0.00    +0.000 NA
ATOM     12  C   UNL     1       1.832   2.220  20.960  0.00  0.00    +0.000 C 
ATOM     13  C   UNL     1       1.740   2.890  19.598  0.00  0.00    +0.000 C 
ATOM     14  C   UNL     1       3.064   2.909  18.826  0.00  0.00    +0.000 C 
ATOM     15  H   UNL     1       1.146   3.346  22.524  0.00  0.00    +0.000 HD
ENDBRANCH   5   7
BRANCH   1  16
ATOM     16  O   UNL     1       6.497   7.517  16.974  0.00  0.00    +0.000 OA
BRANCH  16  18
ATOM     17  C   UNL     1       8.178   8.915  17.938  0.00  0.00    +0.000 C 
ATOM     18  C   UNL     1       7.831   7.495  17.502  0.00  0.00    +0.000 C 
ATOM     19  C   UNL     1       7.862   6.541  18.691  0.00  0.00    +0.000 C 
ENDBRANCH  16  18
ENDBRANCH   1  16
TORSDOF 3
ENDMDL
MODEL 9
REMARK VINA RESULT:      -6.9      1.889      3.099
REMARK  Name = 
REMARK  5 active torsions:
REMARK  status: ('A' for Active; 'I' for Inactive)
REMARK    1  A    between atoms: C_1  and  C_2
REMARK    2  A    between atoms: C_2  and  C_3
REMARK    3  A    between atoms: C_2  and  O_4
REMARK    4  A    between atoms: O_4  and  C_5
REMARK    5  A    between atoms: C_9  and  N_10
REMARK                            x       y       z     vdW  Elec       q    Type
REMARK                         _______ _______ _______ _____ _____    ______ ____
ROOT
ATOM      1  C   UNL     1       6.424   4.135  13.584  0.00  0.00    +0.000 A 
ATOM      2  C   UNL     1       7.442   5.030  13.867  0.00  0.00    +0.000 A 
ATOM      3  N   UNL     1       7.643   5.579  15.083  0.00  0.00    +0.000 NA
ATOM      4  C   UNL     1       6.777   5.198  16.055  0.00  0.00    +0.000 A 
ATOM      5  C   UNL     1       5.717   4.291  15.914  0.00  0.00    +0.000 A 
ATOM      6  C   UNL     1       5.599   3.732  14.634  0.00  0.00    +0.000 A 
ENDROOT
BRANCH   5   7
ATOM      7  N   UNL     1       4.870   3.950  16.947  0.00  0.00    +0.000 N 
ATOM      8  C   UNL     1       3.514   3.431  16.762  0.00  0.00    +0.000 C 
ATOM      9  C   UNL     1       2.797   3.735  18.070  0.00  0.00    +0.000 C 
ATOM     10  C   UNL     1       2.120   5.095  18.107  0.00  0.00    +0.000 C 
ATOM     11  N   UNL     1       2.160   5.500  19.519  0.00  0.00    +0.000 NA
ATOM     12  C   UNL     1       3.327   4.842  20.131  0.00  0.00    +0.000 C 
ATOM     13  C   UNL     1       3.895   3.871  19.108  0.00  0.00    +0.000 C 
ATOM     14  C   UNL     1       5.083   4.429  18.316  0.00  0.00    +0.000 C 
ATOM     15  H   UNL     1       1.313   5.170  19.985  0.00  0.00    +0.000 HD
ENDBRANCH   5   7
BRANCH   1  16
ATOM     16  O   UNL     1       6.339   3.675  12.302  0.00  0.00    +0.000 OA
BRANCH  16  18
ATOM     17  C   UNL     1       4.236   3.245  11.252  0.00  0.00    +0.000 C 
ATOM     18  C   UNL     1       5.380   2.636  12.056  0.00  0.00    +0.000 C 
ATOM     19  C   UNL     1       6.067   1.527  11.265  0.00  0.00    +0.000 C 
ENDBRANCH  16  18
ENDBRANCH   1  16
TORSDOF 3
ENDMDL
