MODEL 1
REMARK VINA RESULT:      -7.7      0.000      0.000
REMARK  Name = 
REMARK  11 active torsions:
REMARK  status: ('A' for Active; 'I' for Inactive)
REMARK    1  A    between atoms: C_1  and  C_2
REMARK    2  A    between atoms: C_2  and  C_3
REMARK    3  A    between atoms: C_2  and  C_4
REMARK    4  A    between atoms: C_4  and  N_5
REMARK    5  A    between atoms: C_4  and  C_6
REMARK    6  A    between atoms: C_6  and  N_7
REMARK    7  A    between atoms: N_7  and  C_8
REMARK    8  A    between atoms: C_8  and  C_9
REMARK    9  A    between atoms: C_9  and  C_10
REMARK   10  A    between atoms: C_16  and  C_18
REMARK   11  A    between atoms: C_19  and  C_20
REMARK                            x       y       z     vdW  Elec       q    Type
REMARK                         _______ _______ _______ _____ _____    ______ ____
ROOT
ATOM      1  N   UNL     1       5.397   4.551  16.154  0.00  0.00    +0.000 N 
ATOM      2  C   UNL     1       5.693   5.800  16.673  0.00  0.00    +0.000 C 
ATOM      3  O   UNL     1       6.729   6.364  16.352  0.00  0.00    +0.000 OA
ENDROOT
BRANCH   2   4
ATOM      4  C   UNL     1       4.801   6.490  17.656  0.00  0.00    +0.000 C 
ATOM      5  C   UNL     1       3.594   6.982  17.315  0.00  0.00    +0.000 C 
BRANCH   5   6
ATOM      6  C   UNL     1       2.714   7.722  18.262  0.00  0.00    +0.000 A 
ATOM      7  C   UNL     1       2.481   7.163  19.531  0.00  0.00    +0.000 A 
ATOM      8  C   UNL     1       1.627   7.796  20.440  0.00  0.00    +0.000 A 
ATOM      9  C   UNL     1       1.011   9.002  20.101  0.00  0.00    +0.000 A 
ATOM     10  C   UNL     1       1.250   9.580  18.854  0.00  0.00    +0.000 A 
ATOM     11  C   UNL     1       2.091   8.946  17.935  0.00  0.00    +0.000 A 
ENDBRANCH   5   6
ENDBRANCH   2   4
BRANCH   1  12
ATOM     12  C   UNL     1       6.333   3.933  15.189  0.00  0.00    +0.000 C 
BRANCH  12  13
ATOM     13  C   UNL     1       6.196   4.404  13.701  0.00  0.00    +0.000 C 
BRANCH  13  15
ATOM     14  C   UNL     1       7.218   3.201  11.650  0.00  0.00    +0.000 C 
ATOM     15  C   UNL     1       6.026   3.296  12.609  0.00  0.00    +0.000 C 
ATOM     16  C   UNL     1       4.704   3.403  11.837  0.00  0.00    +0.000 C 
ENDBRANCH  13  15
BRANCH  13  17
ATOM     17  N   UNL     1       7.370   5.219  13.371  0.00  0.00    +0.000 NA
ATOM     18  H   UNL     1       7.192   6.225  13.591  0.00  0.00    +0.000 HD
ATOM     19  H   UNL     1       8.182   4.914  13.955  0.00  0.00    +0.000 HD
ENDBRANCH  13  17
ENDBRANCH  12  13
ENDBRANCH   1  12
BRANCH   1  20
ATOM     20  C   UNL     1       4.210   3.836  16.679  0.00  0.00    +0.000 C 
BRANCH  20  21
ATOM     21  C   UNL     1       4.368   3.139  18.041  0.00  0.00    +0.000 C 
BRANCH  21  22
ATOM     22  C   UNL     1       3.207   3.417  18.966  0.00  0.00    +0.000 A 
ATOM     23  C   UNL     1       1.904   3.535  18.447  0.00  0.00    +0.000 A 
ATOM     24  C   UNL     1       0.823   3.776  19.298  0.00  0.00    +0.000 A 
ATOM     25  C   UNL     1       1.029   3.897  20.673  0.00  0.00    +0.000 A 
ATOM     26  C   UNL     1       2.318   3.779  21.201  0.00  0.00    +0.000 A 
ATOM     27  C   UNL     1       3.405   3.541  20.352  0.00  0.00    +0.000 A 
ENDBRANCH  21  22
ENDBRANCH  20  21
ENDBRANCH   1  20
TORSDOF 9
ENDMDL
MODEL 2
REMARK VINA RESULT:      -7.5      0.721      1.548
REMARK  Name = 
REMARK  11 active torsions:
REMARK  status: ('A' for Active; 'I' for Inactive)
REMARK    1  A    between atoms: C_1  and  C_2
REMARK    2  A    between atoms: C_2  and  C_3
REMARK    3  A    between atoms: C_2  and  C_4
REMARK    4  A    between atoms: C_4  and  N_5
REMARK    5  A    between atoms: C_4  and  C_6
REMARK    6  A    between atoms: C_6  and  N_7
REMARK    7  A    between atoms: N_7  and  C_8
REMARK    8  A    between atoms: C_8  and  C_9
REMARK    9  A    between atoms: C_9  and  C_10
REMARK   10  A    between atoms: C_16  and  C_18
REMARK   11  A    between atoms: C_19  and  C_20
REMARK                            x       y       z     vdW  Elec       q    Type
REMARK                         _______ _______ _______ _____ _____    ______ ____
ROOT
ATOM      1  N   UNL     1       4.819   4.720  16.234  0.00  0.00    +0.000 N 
ATOM      2  C   UNL     1       4.940   6.067  16.528  0.00  0.00    +0.000 C 
ATOM      3  O   UNL     1       5.961   6.669  16.229  0.00  0.00    +0.000 OA
ENDROOT
BRANCH   2   4
ATOM      4  C   UNL     1       3.868   6.830  17.241  0.00  0.00    +0.000 C 
ATOM      5  C   UNL     1       3.641   6.695  18.562  0.00  0.00    +0.000 C 
BRANCH   5   6
ATOM      6  C   UNL     1       2.544   7.401  19.281  0.00  0.00    +0.000 A 
ATOM      7  C   UNL     1       2.026   8.579  18.716  0.00  0.00    +0.000 A 
ATOM      8  C   UNL     1       1.027   9.303  19.373  0.00  0.00    +0.000 A 
ATOM      9  C   UNL     1       0.519   8.851  20.592  0.00  0.00    +0.000 A 
ATOM     10  C   UNL     1       1.007   7.671  21.156  0.00  0.00    +0.000 A 
ATOM     11  C   UNL     1       2.016   6.950  20.511  0.00  0.00    +0.000 A 
ENDBRANCH   5   6
ENDBRANCH   2   4
BRANCH   1  12
ATOM     12  C   UNL     1       5.927   4.036  15.530  0.00  0.00    +0.000 C 
BRANCH  12  13
ATOM     13  C   UNL     1       6.232   4.541  14.078  0.00  0.00    +0.000 C 
BRANCH  13  15
ATOM     14  C   UNL     1       7.321   3.636  11.911  0.00  0.00    +0.000 C 
ATOM     15  C   UNL     1       6.181   3.485  12.925  0.00  0.00    +0.000 C 
ATOM     16  C   UNL     1       4.820   3.425  12.217  0.00  0.00    +0.000 C 
ENDBRANCH  13  15
BRANCH  13  17
ATOM     17  N   UNL     1       7.556   5.172  14.085  0.00  0.00    +0.000 NA
ATOM     18  H   UNL     1       7.971   5.167  13.126  0.00  0.00    +0.000 HD
ATOM     19  H   UNL     1       7.465   6.172  14.377  0.00  0.00    +0.000 HD
ENDBRANCH  13  17
ENDBRANCH  12  13
ENDBRANCH   1  12
BRANCH   1  20
ATOM     20  C   UNL     1       3.633   3.993  16.744  0.00  0.00    +0.000 C 
BRANCH  20  21
ATOM     21  C   UNL     1       3.891   2.889  17.783  0.00  0.00    +0.000 C 
BRANCH  21  22
ATOM     22  C   UNL     1       2.976   3.000  18.979  0.00  0.00    +0.000 A 
ATOM     23  C   UNL     1       3.445   2.651  20.260  0.00  0.00    +0.000 A 
ATOM     24  C   UNL     1       2.609   2.764  21.373  0.00  0.00    +0.000 A 
ATOM     25  C   UNL     1       1.302   3.232  21.222  0.00  0.00    +0.000 A 
ATOM     26  C   UNL     1       0.827   3.584  19.956  0.00  0.00    +0.000 A 
ATOM     27  C   UNL     1       1.659   3.469  18.837  0.00  0.00    +0.000 A 
ENDBRANCH  21  22
ENDBRANCH  20  21
ENDBRANCH   1  20
TORSDOF 9
ENDMDL
MODEL 3
REMARK VINA RESULT:      -7.2      1.954      6.655
REMARK  Name = 
REMARK  11 active torsions:
REMARK  status: ('A' for Active; 'I' for Inactive)
REMARK    1  A    between atoms: C_1  and  C_2
REMARK    2  A    between atoms: C_2  and  C_3
REMARK    3  A    between atoms: C_2  and  C_4
REMARK    4  A    between atoms: C_4  and  N_5
REMARK    5  A    between atoms: C_4  and  C_6
REMARK    6  A    between atoms: C_6  and  N_7
REMARK    7  A    between atoms: N_7  and  C_8
REMARK    8  A    between atoms: C_8  and  C_9
REMARK    9  A    between atoms: C_9  and  C_10
REMARK   10  A    between atoms: C_16  and  C_18
REMARK   11  A    between atoms: C_19  and  C_20
REMARK                            x       y       z     vdW  Elec       q    Type
REMARK                         _______ _______ _______ _____ _____    ______ ____
ROOT
ATOM      1  N   UNL     1       3.808   4.778  18.811  0.00  0.00    +0.000 N 
ATOM      2  C   UNL     1       5.086   4.401  18.435  0.00  0.00    +0.000 C 
ATOM      3  O   UNL     1       5.812   3.822  19.231  0.00  0.00    +0.000 OA
ENDROOT
BRANCH   2   4
ATOM      4  C   UNL     1       5.643   4.704  17.080  0.00  0.00    +0.000 C 
ATOM      5  C   UNL     1       5.503   3.864  16.036  0.00  0.00    +0.000 C 
BRANCH   5   6
ATOM      6  C   UNL     1       6.097   4.119  14.694  0.00  0.00    +0.000 A 
ATOM      7  C   UNL     1       5.562   3.437  13.588  0.00  0.00    +0.000 A 
ATOM      8  C   UNL     1       6.113   3.608  12.314  0.00  0.00    +0.000 A 
ATOM      9  C   UNL     1       7.192   4.473  12.125  0.00  0.00    +0.000 A 
ATOM     10  C   UNL     1       7.720   5.175  13.210  0.00  0.00    +0.000 A 
ATOM     11  C   UNL     1       7.183   4.998  14.489  0.00  0.00    +0.000 A 
ENDBRANCH   5   6
ENDBRANCH   2   4
BRANCH   1  12
ATOM     12  C   UNL     1       3.331   4.443  20.172  0.00  0.00    +0.000 C 
BRANCH  12  13
ATOM     13  C   UNL     1       3.042   2.928  20.445  0.00  0.00    +0.000 C 
BRANCH  13  15
ATOM     14  C   UNL     1       2.488   1.824  18.170  0.00  0.00    +0.000 C 
ATOM     15  C   UNL     1       1.963   2.231  19.551  0.00  0.00    +0.000 C 
ATOM     16  C   UNL     1       0.662   3.038  19.430  0.00  0.00    +0.000 C 
ENDBRANCH  13  15
BRANCH  13  17
ATOM     17  N   UNL     1       2.656   2.784  21.853  0.00  0.00    +0.000 NA
ATOM     18  H   UNL     1       2.601   1.775  22.118  0.00  0.00    +0.000 HD
ATOM     19  H   UNL     1       3.384   3.225  22.461  0.00  0.00    +0.000 HD
ENDBRANCH  13  17
ENDBRANCH  12  13
ENDBRANCH   1  12
BRANCH   1  20
ATOM     20  C   UNL     1       3.014   5.605  17.872  0.00  0.00    +0.000 C 
BRANCH  20  21
ATOM     21  C   UNL     1       3.382   7.096  17.783  0.00  0.00    +0.000 C 
BRANCH  21  22
ATOM     22  C   UNL     1       2.385   7.977  18.496  0.00  0.00    +0.000 A 
ATOM     23  C   UNL     1       1.735   9.013  17.800  0.00  0.00    +0.000 A 
ATOM     24  C   UNL     1       0.801   9.824  18.449  0.00  0.00    +0.000 A 
ATOM     25  C   UNL     1       0.501   9.605  19.795  0.00  0.00    +0.000 A 
ATOM     26  C   UNL     1       1.138   8.577  20.496  0.00  0.00    +0.000 A 
ATOM     27  C   UNL     1       2.077   7.765  19.851  0.00  0.00    +0.000 A 
ENDBRANCH  21  22
ENDBRANCH  20  21
ENDBRANCH   1  20
TORSDOF 9
ENDMDL
MODEL 4
REMARK VINA RESULT:      -7.1      1.898      6.751
REMARK  Name = 
REMARK  11 active torsions:
REMARK  status: ('A' for Active; 'I' for Inactive)
REMARK    1  A    between atoms: C_1  and  C_2
REMARK    2  A    between atoms: C_2  and  C_3
REMARK    3  A    between atoms: C_2  and  C_4
REMARK    4  A    between atoms: C_4  and  N_5
REMARK    5  A    between atoms: C_4  and  C_6
REMARK    6  A    between atoms: C_6  and  N_7
REMARK    7  A    between atoms: N_7  and  C_8
REMARK    8  A    between atoms: C_8  and  C_9
REMARK    9  A    between atoms: C_9  and  C_10
REMARK   10  A    between atoms: C_16  and  C_18
REMARK   11  A    between atoms: C_19  and  C_20
REMARK                            x       y       z     vdW  Elec       q    Type
REMARK                         _______ _______ _______ _____ _____    ______ ____
ROOT
ATOM      1  N   UNL     1       3.891   5.077  18.613  0.00  0.00    +0.000 N 
ATOM      2  C   UNL     1       5.129   4.599  18.219  0.00  0.00    +0.000 C 
ATOM      3  O   UNL     1       5.827   3.983  19.013  0.00  0.00    +0.000 OA
ENDROOT
BRANCH   2   4
ATOM      4  C   UNL     1       5.679   4.835  16.848  0.00  0.00    +0.000 C 
ATOM      5  C   UNL     1       5.609   3.909  15.872  0.00  0.00    +0.000 C 
BRANCH   5   6
ATOM      6  C   UNL     1       6.199   4.100  14.518  0.00  0.00    +0.000 A 
ATOM      7  C   UNL     1       7.247   5.025  14.372  0.00  0.00    +0.000 A 
ATOM      8  C   UNL     1       7.805   5.274  13.114  0.00  0.00    +0.000 A 
ATOM      9  C   UNL     1       7.337   4.591  11.991  0.00  0.00    +0.000 A 
ATOM     10  C   UNL     1       6.312   3.653  12.123  0.00  0.00    +0.000 A 
ATOM     11  C   UNL     1       5.740   3.410  13.375  0.00  0.00    +0.000 A 
ENDBRANCH   5   6
ENDBRANCH   2   4
BRANCH   1  12
ATOM     12  C   UNL     1       3.420   4.804  19.989  0.00  0.00    +0.000 C 
BRANCH  12  13
ATOM     13  C   UNL     1       2.508   3.542  20.165  0.00  0.00    +0.000 C 
BRANCH  13  15
ATOM     14  C   UNL     1       0.707   2.229  18.848  0.00  0.00    +0.000 C 
ATOM     15  C   UNL     1       2.157   2.724  18.878  0.00  0.00    +0.000 C 
ATOM     16  C   UNL     1       3.137   1.574  18.605  0.00  0.00    +0.000 C 
ENDBRANCH  13  15
BRANCH  13  17
ATOM     17  N   UNL     1       1.261   3.967  20.811  0.00  0.00    +0.000 NA
ATOM     18  H   UNL     1       1.322   3.842  21.846  0.00  0.00    +0.000 HD
ATOM     19  H   UNL     1       1.104   4.985  20.631  0.00  0.00    +0.000 HD
ENDBRANCH  13  17
ENDBRANCH  12  13
ENDBRANCH   1  12
BRANCH   1  20
ATOM     20  C   UNL     1       3.141   5.944  17.673  0.00  0.00    +0.000 C 
BRANCH  20  21
ATOM     21  C   UNL     1       3.433   7.452  17.740  0.00  0.00    +0.000 C 
BRANCH  21  22
ATOM     22  C   UNL     1       2.338   8.218  18.443  0.00  0.00    +0.000 A 
ATOM     23  C   UNL     1       2.048   7.952  19.794  0.00  0.00    +0.000 A 
ATOM     24  C   UNL     1       1.046   8.667  20.456  0.00  0.00    +0.000 A 
ATOM     25  C   UNL     1       0.329   9.656  19.779  0.00  0.00    +0.000 A 
ATOM     26  C   UNL     1       0.610   9.930  18.438  0.00  0.00    +0.000 A 
ATOM     27  C   UNL     1       1.610   9.214  17.770  0.00  0.00    +0.000 A 
ENDBRANCH  21  22
ENDBRANCH  20  21
ENDBRANCH   1  20
TORSDOF 9
ENDMDL
MODEL 5
REMARK VINA RESULT:      -7.1      0.903      1.360
REMARK  Name = 
REMARK  11 active torsions:
REMARK  status: ('A' for Active; 'I' for Inactive)
REMARK    1  A    between atoms: C_1  and  C_2
REMARK    2  A    between atoms: C_2  and  C_3
REMARK    3  A    between atoms: C_2  and  C_4
REMARK    4  A    between atoms: C_4  and  N_5
REMARK    5  A    between atoms: C_4  and  C_6
REMARK    6  A    between atoms: C_6  and  N_7
REMARK    7  A    between atoms: N_7  and  C_8
REMARK    8  A    between atoms: C_8  and  C_9
REMARK    9  A    between atoms: C_9  and  C_10
REMARK   10  A    between atoms: C_16  and  C_18
REMARK   11  A    between atoms: C_19  and  C_20
REMARK                            x       y       z     vdW  Elec       q    Type
REMARK                         _______ _______ _______ _____ _____    ______ ____
ROOT
ATOM      1  N   UNL     1       5.878   5.039  16.886  0.00  0.00    +0.000 N 
ATOM      2  C   UNL     1       5.210   6.185  16.492  0.00  0.00    +0.000 C 
ATOM      3  O   UNL     1       5.270   6.557  15.329  0.00  0.00    +0.000 OA
ENDROOT
BRANCH   2   4
ATOM      4  C   UNL     1       4.427   7.024  17.451  0.00  0.00    +0.000 C 
ATOM      5  C   UNL     1       3.087   7.148  17.378  0.00  0.00    +0.000 C 
BRANCH   5   6
ATOM      6  C   UNL     1       2.294   8.022  18.286  0.00  0.00    +0.000 A 
ATOM      7  C   UNL     1       2.107   7.606  19.616  0.00  0.00    +0.000 A 
ATOM      8  C   UNL     1       1.333   8.369  20.496  0.00  0.00    +0.000 A 
ATOM      9  C   UNL     1       0.753   9.563  20.067  0.00  0.00    +0.000 A 
ATOM     10  C   UNL     1       0.949  10.001  18.756  0.00  0.00    +0.000 A 
ATOM     11  C   UNL     1       1.708   9.236  17.866  0.00  0.00    +0.000 A 
ENDBRANCH   5   6
ENDBRANCH   2   4
BRANCH   1  12
ATOM     12  C   UNL     1       6.634   4.264  15.877  0.00  0.00    +0.000 C 
BRANCH  12  13
ATOM     13  C   UNL     1       6.597   4.822  14.413  0.00  0.00    +0.000 C 
BRANCH  13  15
ATOM     14  C   UNL     1       7.169   4.070  12.004  0.00  0.00    +0.000 C 
ATOM     15  C   UNL     1       6.334   3.798  13.260  0.00  0.00    +0.000 C 
ATOM     16  C   UNL     1       4.847   3.647  12.911  0.00  0.00    +0.000 C 
ENDBRANCH  13  15
BRANCH  13  17
ATOM     17  N   UNL     1       7.866   5.511  14.156  0.00  0.00    +0.000 NA
ATOM     18  H   UNL     1       8.672   4.924  14.468  0.00  0.00    +0.000 HD
ATOM     19  H   UNL     1       7.977   5.668  13.128  0.00  0.00    +0.000 HD
ENDBRANCH  13  17
ENDBRANCH  12  13
ENDBRANCH   1  12
BRANCH   1  20
ATOM     20  C   UNL     1       5.904   4.701  18.329  0.00  0.00    +0.000 C 
BRANCH  20  21
ATOM     21  C   UNL     1       5.191   3.406  18.750  0.00  0.00    +0.000 C 
BRANCH  21  22
ATOM     22  C   UNL     1       3.718   3.617  19.004  0.00  0.00    +0.000 A 
ATOM     23  C   UNL     1       3.251   3.819  20.316  0.00  0.00    +0.000 A 
ATOM     24  C   UNL     1       1.891   4.030  20.558  0.00  0.00    +0.000 A 
ATOM     25  C   UNL     1       0.986   4.048  19.494  0.00  0.00    +0.000 A 
ATOM     26  C   UNL     1       1.439   3.851  18.187  0.00  0.00    +0.000 A 
ATOM     27  C   UNL     1       2.800   3.636  17.940  0.00  0.00    +0.000 A 
ENDBRANCH  21  22
ENDBRANCH  20  21
ENDBRANCH   1  20
TORSDOF 9
ENDMDL
MODEL 6
REMARK VINA RESULT:      -7.1      1.120      1.294
REMARK  Name = 
REMARK  11 active torsions:
REMARK  status: ('A' for Active; 'I' for Inactive)
REMARK    1  A    between atoms: C_1  and  C_2
REMARK    2  A    between atoms: C_2  and  C_3
REMARK    3  A    between atoms: C_2  and  C_4
REMARK    4  A    between atoms: C_4  and  N_5
REMARK    5  A    between atoms: C_4  and  C_6
REMARK    6  A    between atoms: C_6  and  N_7
REMARK    7  A    between atoms: N_7  and  C_8
REMARK    8  A    between atoms: C_8  and  C_9
REMARK    9  A    between atoms: C_9  and  C_10
REMARK   10  A    between atoms: C_16  and  C_18
REMARK   11  A    between atoms: C_19  and  C_20
REMARK                            x       y       z     vdW  Elec       q    Type
REMARK                         _______ _______ _______ _____ _____    ______ ____
ROOT
ATOM      1  N   UNL     1       6.001   5.414  16.672  0.00  0.00    +0.000 N 
ATOM      2  C   UNL     1       5.209   6.538  16.512  0.00  0.00    +0.000 C 
ATOM      3  O   UNL     1       5.236   7.160  15.459  0.00  0.00    +0.000 OA
ENDROOT
BRANCH   2   4
ATOM      4  C   UNL     1       4.326   7.057  17.602  0.00  0.00    +0.000 C 
ATOM      5  C   UNL     1       3.122   7.609  17.357  0.00  0.00    +0.000 C 
BRANCH   5   6
ATOM      6  C   UNL     1       2.252   8.183  18.421  0.00  0.00    +0.000 A 
ATOM      7  C   UNL     1       2.219   7.543  19.672  0.00  0.00    +0.000 A 
ATOM      8  C   UNL     1       1.385   8.016  20.690  0.00  0.00    +0.000 A 
ATOM      9  C   UNL     1       0.588   9.142  20.478  0.00  0.00    +0.000 A 
ATOM     10  C   UNL     1       0.626   9.801  19.249  0.00  0.00    +0.000 A 
ATOM     11  C   UNL     1       1.446   9.325  18.222  0.00  0.00    +0.000 A 
ENDBRANCH   5   6
ENDBRANCH   2   4
BRANCH   1  12
ATOM     12  C   UNL     1       6.850   4.967  15.546  0.00  0.00    +0.000 C 
BRANCH  12  13
ATOM     13  C   UNL     1       6.217   3.897  14.592  0.00  0.00    +0.000 C 
BRANCH  13  15
ATOM     14  C   UNL     1       7.500   5.067  12.672  0.00  0.00    +0.000 C 
ATOM     15  C   UNL     1       6.806   3.786  13.146  0.00  0.00    +0.000 C 
ATOM     16  C   UNL     1       5.783   3.297  12.111  0.00  0.00    +0.000 C 
ENDBRANCH  13  15
BRANCH  13  17
ATOM     17  N   UNL     1       4.778   4.165  14.498  0.00  0.00    +0.000 NA
ATOM     18  H   UNL     1       4.581   5.177  14.668  0.00  0.00    +0.000 HD
ATOM     19  H   UNL     1       4.443   3.943  13.532  0.00  0.00    +0.000 HD
ENDBRANCH  13  17
ENDBRANCH  12  13
ENDBRANCH   1  12
BRANCH   1  20
ATOM     20  C   UNL     1       6.052   4.775  18.009  0.00  0.00    +0.000 C 
BRANCH  20  21
ATOM     21  C   UNL     1       5.271   3.462  18.178  0.00  0.00    +0.000 C 
BRANCH  21  22
ATOM     22  C   UNL     1       3.845   3.694  18.614  0.00  0.00    +0.000 A 
ATOM     23  C   UNL     1       2.814   3.740  17.656  0.00  0.00    +0.000 A 
ATOM     24  C   UNL     1       1.489   3.940  18.053  0.00  0.00    +0.000 A 
ATOM     25  C   UNL     1       1.179   4.088  19.406  0.00  0.00    +0.000 A 
ATOM     26  C   UNL     1       2.194   4.041  20.366  0.00  0.00    +0.000 A 
ATOM     27  C   UNL     1       3.523   3.845  19.973  0.00  0.00    +0.000 A 
ENDBRANCH  21  22
ENDBRANCH  20  21
ENDBRANCH   1  20
TORSDOF 9
ENDMDL
MODEL 7
REMARK VINA RESULT:      -7.0      1.355      1.868
REMARK  Name = 
REMARK  11 active torsions:
REMARK  status: ('A' for Active; 'I' for Inactive)
REMARK    1  A    between atoms: C_1  and  C_2
REMARK    2  A    between atoms: C_2  and  C_3
REMARK    3  A    between atoms: C_2  and  C_4
REMARK    4  A    between atoms: C_4  and  N_5
REMARK    5  A    between atoms: C_4  and  C_6
REMARK    6  A    between atoms: C_6  and  N_7
REMARK    7  A    between atoms: N_7  and  C_8
REMARK    8  A    between atoms: C_8  and  C_9
REMARK    9  A    between atoms: C_9  and  C_10
REMARK   10  A    between atoms: C_16  and  C_18
REMARK   11  A    between atoms: C_19  and  C_20
REMARK                            x       y       z     vdW  Elec       q    Type
REMARK                         _______ _______ _______ _____ _____    ______ ____
ROOT
ATOM      1  N   UNL     1       5.548   5.443  17.675  0.00  0.00    +0.000 N 
ATOM      2  C   UNL     1       4.651   6.410  17.255  0.00  0.00    +0.000 C 
ATOM      3  O   UNL     1       4.748   6.888  16.134  0.00  0.00    +0.000 OA
ENDROOT
BRANCH   2   4
ATOM      4  C   UNL     1       3.563   6.930  18.140  0.00  0.00    +0.000 C 
ATOM      5  C   UNL     1       2.884   8.061  17.864  0.00  0.00    +0.000 C 
BRANCH   5   6
ATOM      6  C   UNL     1       1.837   8.627  18.759  0.00  0.00    +0.000 A 
ATOM      7  C   UNL     1       1.733   8.122  20.066  0.00  0.00    +0.000 A 
ATOM      8  C   UNL     1       0.739   8.589  20.931  0.00  0.00    +0.000 A 
ATOM      9  C   UNL     1      -0.151   9.578  20.509  0.00  0.00    +0.000 A 
ATOM     10  C   UNL     1      -0.046  10.106  19.222  0.00  0.00    +0.000 A 
ATOM     11  C   UNL     1       0.936   9.633  18.347  0.00  0.00    +0.000 A 
ENDBRANCH   5   6
ENDBRANCH   2   4
BRANCH   1  12
ATOM     12  C   UNL     1       6.598   4.983  16.739  0.00  0.00    +0.000 C 
BRANCH  12  13
ATOM     13  C   UNL     1       6.124   4.030  15.589  0.00  0.00    +0.000 C 
BRANCH  13  15
ATOM     14  C   UNL     1       5.916   3.499  13.065  0.00  0.00    +0.000 C 
ATOM     15  C   UNL     1       6.255   4.556  14.121  0.00  0.00    +0.000 C 
ATOM     16  C   UNL     1       7.613   5.209  13.830  0.00  0.00    +0.000 C 
ENDBRANCH  13  15
BRANCH  13  17
ATOM     17  N   UNL     1       4.724   3.672  15.842  0.00  0.00    +0.000 NA
ATOM     18  H   UNL     1       4.356   4.192  16.670  0.00  0.00    +0.000 HD
ATOM     19  H   UNL     1       4.139   3.947  15.020  0.00  0.00    +0.000 HD
ENDBRANCH  13  17
ENDBRANCH  12  13
ENDBRANCH   1  12
BRANCH   1  20
ATOM     20  C   UNL     1       5.490   4.996  19.086  0.00  0.00    +0.000 C 
BRANCH  20  21
ATOM     21  C   UNL     1       4.916   3.592  19.344  0.00  0.00    +0.000 C 
BRANCH  21  22
ATOM     22  C   UNL     1       3.415   3.606  19.504  0.00  0.00    +0.000 A 
ATOM     23  C   UNL     1       2.603   2.916  18.584  0.00  0.00    +0.000 A 
ATOM     24  C   UNL     1       1.213   2.911  18.732  0.00  0.00    +0.000 A 
ATOM     25  C   UNL     1       0.622   3.588  19.801  0.00  0.00    +0.000 A 
ATOM     26  C   UNL     1       1.418   4.274  20.722  0.00  0.00    +0.000 A 
ATOM     27  C   UNL     1       2.810   4.284  20.575  0.00  0.00    +0.000 A 
ENDBRANCH  21  22
ENDBRANCH  20  21
ENDBRANCH   1  20
TORSDOF 9
ENDMDL
MODEL 8
REMARK VINA RESULT:      -7.0      1.186      1.659
REMARK  Name = 
REMARK  11 active torsions:
REMARK  status: ('A' for Active; 'I' for Inactive)
REMARK    1  A    between atoms: C_1  and  C_2
REMARK    2  A    between atoms: C_2  and  C_3
REMARK    3  A    between atoms: C_2  and  C_4
REMARK    4  A    between atoms: C_4  and  N_5
REMARK    5  A    between atoms: C_4  and  C_6
REMARK    6  A    between atoms: C_6  and  N_7
REMARK    7  A    between atoms: N_7  and  C_8
REMARK    8  A    between atoms: C_8  and  C_9
REMARK    9  A    between atoms: C_9  and  C_10
REMARK   10  A    between atoms: C_16  and  C_18
REMARK   11  A    between atoms: C_19  and  C_20
REMARK                            x       y       z     vdW  Elec       q    Type
REMARK                         _______ _______ _______ _____ _____    ______ ____
ROOT
ATOM      1  N   UNL     1       4.836   4.655  16.099  0.00  0.00    +0.000 N 
ATOM      2  C   UNL     1       4.667   5.997  16.388  0.00  0.00    +0.000 C 
ATOM      3  O   UNL     1       5.105   6.847  15.625  0.00  0.00    +0.000 OA
ENDROOT
BRANCH   2   4
ATOM      4  C   UNL     1       3.988   6.468  17.635  0.00  0.00    +0.000 C 
ATOM      5  C   UNL     1       2.839   7.171  17.611  0.00  0.00    +0.000 C 
BRANCH   5   6
ATOM      6  C   UNL     1       2.175   7.698  18.836  0.00  0.00    +0.000 A 
ATOM      7  C   UNL     1       1.591   8.975  18.781  0.00  0.00    +0.000 A 
ATOM      8  C   UNL     1       0.994   9.533  19.916  0.00  0.00    +0.000 A 
ATOM      9  C   UNL     1       0.957   8.817  21.113  0.00  0.00    +0.000 A 
ATOM     10  C   UNL     1       1.513   7.538  21.178  0.00  0.00    +0.000 A 
ATOM     11  C   UNL     1       2.124   6.981  20.051  0.00  0.00    +0.000 A 
ENDBRANCH   5   6
ENDBRANCH   2   4
BRANCH   1  12
ATOM     12  C   UNL     1       5.523   4.270  14.845  0.00  0.00    +0.000 C 
BRANCH  12  13
ATOM     13  C   UNL     1       6.892   4.980  14.567  0.00  0.00    +0.000 C 
BRANCH  13  15
ATOM     14  C   UNL     1       8.269   5.836  12.550  0.00  0.00    +0.000 C 
ATOM     15  C   UNL     1       7.628   4.624  13.232  0.00  0.00    +0.000 C 
ATOM     16  C   UNL     1       6.750   3.838  12.247  0.00  0.00    +0.000 C 
ENDBRANCH  13  15
BRANCH  13  17
ATOM     17  N   UNL     1       7.789   4.697  15.693  0.00  0.00    +0.000 NA
ATOM     18  H   UNL     1       7.485   3.835  16.197  0.00  0.00    +0.000 HD
ATOM     19  H   UNL     1       8.756   4.521  15.334  0.00  0.00    +0.000 HD
ENDBRANCH  13  17
ENDBRANCH  12  13
ENDBRANCH   1  12
BRANCH   1  20
ATOM     20  C   UNL     1       4.425   3.659  17.117  0.00  0.00    +0.000 C 
BRANCH  20  21
ATOM     21  C   UNL     1       2.927   3.321  17.189  0.00  0.00    +0.000 C 
BRANCH  21  22
ATOM     22  C   UNL     1       2.413   3.289  18.608  0.00  0.00    +0.000 A 
ATOM     23  C   UNL     1       1.028   3.343  18.857  0.00  0.00    +0.000 A 
ATOM     24  C   UNL     1       0.543   3.298  20.167  0.00  0.00    +0.000 A 
ATOM     25  C   UNL     1       1.433   3.193  21.238  0.00  0.00    +0.000 A 
ATOM     26  C   UNL     1       2.809   3.137  21.003  0.00  0.00    +0.000 A 
ATOM     27  C   UNL     1       3.299   3.184  19.693  0.00  0.00    +0.000 A 
ENDBRANCH  21  22
ENDBRANCH  20  21
ENDBRANCH   1  20
TORSDOF 9
ENDMDL
MODEL 9
REMARK VINA RESULT:      -7.0      3.036      7.478
REMARK  Name = 
REMARK  11 active torsions:
REMARK  status: ('A' for Active; 'I' for Inactive)
REMARK    1  A    between atoms: C_1  and  C_2
REMARK    2  A    between atoms: C_2  and  C_3
REMARK    3  A    between atoms: C_2  and  C_4
REMARK    4  A    between atoms: C_4  and  N_5
REMARK    5  A    between atoms: C_4  and  C_6
REMARK    6  A    between atoms: C_6  and  N_7
REMARK    7  A    between atoms: N_7  and  C_8
REMARK    8  A    between atoms: C_8  and  C_9
REMARK    9  A    between atoms: C_9  and  C_10
REMARK   10  A    between atoms: C_16  and  C_18
REMARK   11  A    between atoms: C_19  and  C_20
REMARK                            x       y       z     vdW  Elec       q    Type
REMARK                         _______ _______ _______ _____ _____    ______ ____
ROOT
ATOM      1  N   UNL     1       1.670   8.592  19.442  0.00  0.00    +0.000 N 
ATOM      2  C   UNL     1       2.073   8.425  18.128  0.00  0.00    +0.000 C 
ATOM      3  O   UNL     1       1.652   9.176  17.260  0.00  0.00    +0.000 OA
ENDROOT
BRANCH   2   4
ATOM      4  C   UNL     1       2.995   7.325  17.708  0.00  0.00    +0.000 C 
ATOM      5  C   UNL     1       4.321   7.510  17.556  0.00  0.00    +0.000 C 
BRANCH   5   6
ATOM      6  C   UNL     1       5.249   6.445  17.085  0.00  0.00    +0.000 A 
ATOM      7  C   UNL     1       6.268   6.017  17.953  0.00  0.00    +0.000 A 
ATOM      8  C   UNL     1       7.192   5.051  17.542  0.00  0.00    +0.000 A 
ATOM      9  C   UNL     1       7.099   4.487  16.269  0.00  0.00    +0.000 A 
ATOM     10  C   UNL     1       6.079   4.886  15.404  0.00  0.00    +0.000 A 
ATOM     11  C   UNL     1       5.161   5.861  15.802  0.00  0.00    +0.000 A 
ENDBRANCH   5   6
ENDBRANCH   2   4
BRANCH   1  12
ATOM     12  C   UNL     1       0.753   9.705  19.776  0.00  0.00    +0.000 C 
BRANCH  12  13
ATOM     13  C   UNL     1       0.921  10.328  21.204  0.00  0.00    +0.000 C 
BRANCH  13  15
ATOM     14  C   UNL     1      -0.835  11.647  22.574  0.00  0.00    +0.000 C 
ATOM     15  C   UNL     1      -0.312  10.265  22.165  0.00  0.00    +0.000 C 
ATOM     16  C   UNL     1      -0.076   9.379  23.397  0.00  0.00    +0.000 C 
ENDBRANCH  13  15
BRANCH  13  17
ATOM     17  N   UNL     1       1.327  11.728  21.044  0.00  0.00    +0.000 NA
ATOM     18  H   UNL     1       0.904  12.138  20.182  0.00  0.00    +0.000 HD
ATOM     19  H   UNL     1       0.978  12.288  21.856  0.00  0.00    +0.000 HD
ENDBRANCH  13  17
ENDBRANCH  12  13
ENDBRANCH   1  12
BRANCH   1  20
ATOM     20  C   UNL     1       2.083   7.576  20.439  0.00  0.00    +0.000 C 
BRANCH  20  21
ATOM     21  C   UNL     1       1.095   6.430  20.709  0.00  0.00    +0.000 C 
BRANCH  21  22
ATOM     22  C   UNL     1       1.679   5.078  20.379  0.00  0.00    +0.000 A 
ATOM     23  C   UNL     1       3.050   4.956  20.084  0.00  0.00    +0.000 A 
ATOM     24  C   UNL     1       3.602   3.706  19.792  0.00  0.00    +0.000 A 
ATOM     25  C   UNL     1       2.795   2.567  19.798  0.00  0.00    +0.000 A 
ATOM     26  C   UNL     1       1.434   2.675  20.092  0.00  0.00    +0.000 A 
ATOM     27  C   UNL     1       0.875   3.925  20.381  0.00  0.00    +0.000 A 
ENDBRANCH  21  22
ENDBRANCH  20  21
ENDBRANCH   1  20
TORSDOF 9
ENDMDL
