MODEL 1
REMARK VINA RESULT:      -8.7      0.000      0.000
REMARK  Name = 
REMARK  7 active torsions:
REMARK  status: ('A' for Active; 'I' for Inactive)
REMARK    1  A    between atoms: C_1  and  O_2
REMARK    2  A    between atoms: O_2  and  C_3
REMARK    3  A    between atoms: C_6  and  C_7
REMARK    4  A    between atoms: C_8  and  C_9
REMARK    5  A    between atoms: C_9  and  C_11
REMARK    6  A    between atoms: C_18  and  C_19
REMARK    7  A    between atoms: C_19  and  N_20
REMARK                            x       y       z     vdW  Elec       q    Type
REMARK                         _______ _______ _______ _____ _____    ______ ____
ROOT
ATOM      1  C   UNL     1       2.235   3.227  18.852  0.00  0.00    +0.000 A 
ATOM      2  C   UNL     1       1.316   3.278  19.903  0.00  0.00    +0.000 A 
ATOM      3  C   UNL     1       1.055   4.474  20.559  0.00  0.00    +0.000 A 
ATOM      4  C   UNL     1       1.680   5.659  20.171  0.00  0.00    +0.000 A 
ATOM      5  C   UNL     1       2.587   5.618  19.092  0.00  0.00    +0.000 A 
ATOM      6  C   UNL     1       2.896   4.401  18.428  0.00  0.00    +0.000 A 
ENDROOT
BRANCH   1   8
ATOM      7  C   UNL     1       3.576   1.280  18.672  0.00  0.00    +0.000 C 
ATOM      8  O   UNL     1       2.499   2.068  18.164  0.00  0.00    +0.000 OA
ENDBRANCH   1   8
BRANCH   4   9
ATOM      9  C   UNL     1       1.319   6.838  20.975  0.00  0.00    +0.000 C 
ATOM     10  C   UNL     1       1.480   8.129  20.661  0.00  0.00    +0.000 C 
BRANCH  10  11
ATOM     11  C   UNL     1       1.115   9.153  21.684  0.00  0.00    +0.000 C 
ATOM     12  O   UNL     1       1.613   9.165  22.806  0.00  0.00    +0.000 OA
BRANCH  11  13
ATOM     13  C   UNL     1       0.098  10.162  21.287  0.00  0.00    +0.000 A 
ATOM     14  C   UNL     1      -0.314  10.217  19.951  0.00  0.00    +0.000 A 
ATOM     15  C   UNL     1      -1.247  11.177  19.553  0.00  0.00    +0.000 A 
ATOM     16  C   UNL     1      -1.779  12.067  20.487  0.00  0.00    +0.000 A 
ATOM     17  C   UNL     1      -1.397  11.987  21.825  0.00  0.00    +0.000 A 
ATOM     18  C   UNL     1      -0.468  11.029  22.228  0.00  0.00    +0.000 A 
ENDBRANCH  11  13
ENDBRANCH  10  11
ENDBRANCH   4   9
BRANCH   6  19
ATOM     19  C   UNL     1       3.801   4.357  17.202  0.00  0.00    +0.000 C 
BRANCH  19  20
ATOM     20  N   UNL     1       4.767   5.448  17.080  0.00  0.00    +0.000 N 
ATOM     21  N   UNL     1       4.747   6.198  15.952  0.00  0.00    +0.000 NA
ATOM     22  N   UNL     1       5.814   6.983  15.962  0.00  0.00    +0.000 NA
ATOM     23  C   UNL     1       6.524   6.723  17.099  0.00  0.00    +0.000 A 
ATOM     24  C   UNL     1       7.722   7.293  17.562  0.00  0.00    +0.000 A 
ATOM     25  C   UNL     1       8.253   6.850  18.781  0.00  0.00    +0.000 A 
ATOM     26  C   UNL     1       7.611   5.842  19.501  0.00  0.00    +0.000 A 
ATOM     27  C   UNL     1       6.419   5.246  19.042  0.00  0.00    +0.000 A 
ATOM     28  C   UNL     1       5.886   5.728  17.838  0.00  0.00    +0.000 A 
ENDBRANCH  19  20
ENDBRANCH   6  19
TORSDOF 6
ENDMDL
MODEL 2
REMARK VINA RESULT:      -8.7      2.742      4.909
REMARK  Name = 
REMARK  7 active torsions:
REMARK  status: ('A' for Active; 'I' for Inactive)
REMARK    1  A    between atoms: C_1  and  O_2
REMARK    2  A    between atoms: O_2  and  C_3
REMARK    3  A    between atoms: C_6  and  C_7
REMARK    4  A    between atoms: C_8  and  C_9
REMARK    5  A    between atoms: C_9  and  C_11
REMARK    6  A    between atoms: C_18  and  C_19
REMARK    7  A    between atoms: C_19  and  N_20
REMARK                            x       y       z     vdW  Elec       q    Type
REMARK                         _______ _______ _______ _____ _____    ______ ____
ROOT
ATOM      1  C   UNL     1       5.243   4.758  15.724  0.00  0.00    +0.000 A 
ATOM      2  C   UNL     1       5.362   6.076  15.277  0.00  0.00    +0.000 A 
ATOM      3  C   UNL     1       4.739   7.115  15.955  0.00  0.00    +0.000 A 
ATOM      4  C   UNL     1       4.000   6.877  17.114  0.00  0.00    +0.000 A 
ATOM      5  C   UNL     1       3.900   5.552  17.587  0.00  0.00    +0.000 A 
ATOM      6  C   UNL     1       4.500   4.469  16.891  0.00  0.00    +0.000 A 
ENDROOT
BRANCH   1   8
ATOM      7  C   UNL     1       6.464   4.015  13.834  0.00  0.00    +0.000 C 
ATOM      8  O   UNL     1       5.866   3.709  15.094  0.00  0.00    +0.000 OA
ENDBRANCH   1   8
BRANCH   4   9
ATOM      9  C   UNL     1       3.381   8.074  17.706  0.00  0.00    +0.000 C 
ATOM     10  C   UNL     1       2.077   8.329  17.871  0.00  0.00    +0.000 C 
BRANCH  10  11
ATOM     11  C   UNL     1       1.686   9.661  18.421  0.00  0.00    +0.000 C 
ATOM     12  O   UNL     1       1.935  10.711  17.836  0.00  0.00    +0.000 OA
BRANCH  11  13
ATOM     13  C   UNL     1       0.985   9.664  19.732  0.00  0.00    +0.000 A 
ATOM     14  C   UNL     1       1.134   8.560  20.580  0.00  0.00    +0.000 A 
ATOM     15  C   UNL     1       0.460   8.531  21.803  0.00  0.00    +0.000 A 
ATOM     16  C   UNL     1      -0.343   9.606  22.187  0.00  0.00    +0.000 A 
ATOM     17  C   UNL     1      -0.459  10.721  21.360  0.00  0.00    +0.000 A 
ATOM     18  C   UNL     1       0.212  10.756  20.138  0.00  0.00    +0.000 A 
ENDBRANCH  11  13
ENDBRANCH  10  11
ENDBRANCH   4   9
BRANCH   6  19
ATOM     19  C   UNL     1       4.479   3.047  17.440  0.00  0.00    +0.000 C 
BRANCH  19  20
ATOM     20  N   UNL     1       4.202   2.915  18.869  0.00  0.00    +0.000 N 
ATOM     21  N   UNL     1       5.177   2.420  19.667  0.00  0.00    +0.000 NA
ATOM     22  N   UNL     1       4.656   2.201  20.866  0.00  0.00    +0.000 NA
ATOM     23  C   UNL     1       3.336   2.550  20.825  0.00  0.00    +0.000 A 
ATOM     24  C   UNL     1       2.361   2.503  21.837  0.00  0.00    +0.000 A 
ATOM     25  C   UNL     1       1.060   2.928  21.541  0.00  0.00    +0.000 A 
ATOM     26  C   UNL     1       0.740   3.363  20.254  0.00  0.00    +0.000 A 
ATOM     27  C   UNL     1       1.700   3.399  19.222  0.00  0.00    +0.000 A 
ATOM     28  C   UNL     1       3.004   3.002  19.549  0.00  0.00    +0.000 A 
ENDBRANCH  19  20
ENDBRANCH   6  19
TORSDOF 6
ENDMDL
MODEL 3
REMARK VINA RESULT:      -8.5      3.493      8.794
REMARK  Name = 
REMARK  7 active torsions:
REMARK  status: ('A' for Active; 'I' for Inactive)
REMARK    1  A    between atoms: C_1  and  O_2
REMARK    2  A    between atoms: O_2  and  C_3
REMARK    3  A    between atoms: C_6  and  C_7
REMARK    4  A    between atoms: C_8  and  C_9
REMARK    5  A    between atoms: C_9  and  C_11
REMARK    6  A    between atoms: C_18  and  C_19
REMARK    7  A    between atoms: C_19  and  N_20
REMARK                            x       y       z     vdW  Elec       q    Type
REMARK                         _______ _______ _______ _____ _____    ______ ____
ROOT
ATOM      1  C   UNL     1       0.973   9.315  20.770  0.00  0.00    +0.000 A 
ATOM      2  C   UNL     1       1.245   8.007  21.181  0.00  0.00    +0.000 A 
ATOM      3  C   UNL     1       1.752   7.074  20.287  0.00  0.00    +0.000 A 
ATOM      4  C   UNL     1       2.029   7.419  18.965  0.00  0.00    +0.000 A 
ATOM      5  C   UNL     1       1.784   8.745  18.552  0.00  0.00    +0.000 A 
ATOM      6  C   UNL     1       1.233   9.708  19.438  0.00  0.00    +0.000 A 
ENDROOT
BRANCH   1   8
ATOM      7  C   UNL     1      -0.115   9.777  22.824  0.00  0.00    +0.000 C 
ATOM      8  O   UNL     1       0.495  10.271  21.631  0.00  0.00    +0.000 OA
ENDBRANCH   1   8
BRANCH   4   9
ATOM      9  C   UNL     1       2.540   6.317  18.134  0.00  0.00    +0.000 C 
ATOM     10  C   UNL     1       2.446   5.001  18.364  0.00  0.00    +0.000 C 
BRANCH  10  11
ATOM     11  C   UNL     1       3.125   4.071  17.413  0.00  0.00    +0.000 C 
ATOM     12  O   UNL     1       2.523   3.177  16.827  0.00  0.00    +0.000 OA
BRANCH  11  13
ATOM     13  C   UNL     1       4.585   4.268  17.215  0.00  0.00    +0.000 A 
ATOM     14  C   UNL     1       5.105   4.206  15.917  0.00  0.00    +0.000 A 
ATOM     15  C   UNL     1       6.479   4.360  15.713  0.00  0.00    +0.000 A 
ATOM     16  C   UNL     1       7.326   4.592  16.797  0.00  0.00    +0.000 A 
ATOM     17  C   UNL     1       6.803   4.693  18.085  0.00  0.00    +0.000 A 
ATOM     18  C   UNL     1       5.433   4.542  18.293  0.00  0.00    +0.000 A 
ENDBRANCH  11  13
ENDBRANCH  10  11
ENDBRANCH   4   9
BRANCH   6  19
ATOM     19  C   UNL     1       1.050  11.167  19.033  0.00  0.00    +0.000 C 
BRANCH  19  20
ATOM     20  N   UNL     1      -0.328  11.651  18.983  0.00  0.00    +0.000 N 
ATOM     21  N   UNL     1      -0.678  12.673  19.799  0.00  0.00    +0.000 NA
ATOM     22  N   UNL     1      -1.994  12.815  19.740  0.00  0.00    +0.000 NA
ATOM     23  C   UNL     1      -2.486  11.867  18.888  0.00  0.00    +0.000 A 
ATOM     24  C   UNL     1      -3.811  11.610  18.496  0.00  0.00    +0.000 A 
ATOM     25  C   UNL     1      -4.057  10.569  17.591  0.00  0.00    +0.000 A 
ATOM     26  C   UNL     1      -3.003   9.789  17.116  0.00  0.00    +0.000 A 
ATOM     27  C   UNL     1      -1.670  10.020  17.513  0.00  0.00    +0.000 A 
ATOM     28  C   UNL     1      -1.442  11.089  18.391  0.00  0.00    +0.000 A 
ENDBRANCH  19  20
ENDBRANCH   6  19
TORSDOF 6
ENDMDL
MODEL 4
REMARK VINA RESULT:      -8.4      4.007      7.269
REMARK  Name = 
REMARK  7 active torsions:
REMARK  status: ('A' for Active; 'I' for Inactive)
REMARK    1  A    between atoms: C_1  and  O_2
REMARK    2  A    between atoms: O_2  and  C_3
REMARK    3  A    between atoms: C_6  and  C_7
REMARK    4  A    between atoms: C_8  and  C_9
REMARK    5  A    between atoms: C_9  and  C_11
REMARK    6  A    between atoms: C_18  and  C_19
REMARK    7  A    between atoms: C_19  and  N_20
REMARK                            x       y       z     vdW  Elec       q    Type
REMARK                         _______ _______ _______ _____ _____    ______ ____
ROOT
ATOM      1  C   UNL     1       6.320   5.250  18.055  0.00  0.00    +0.000 A 
ATOM      2  C   UNL     1       7.592   5.492  18.580  0.00  0.00    +0.000 A 
ATOM      3  C   UNL     1       8.166   6.754  18.495  0.00  0.00    +0.000 A 
ATOM      4  C   UNL     1       7.481   7.819  17.911  0.00  0.00    +0.000 A 
ATOM      5  C   UNL     1       6.184   7.587  17.405  0.00  0.00    +0.000 A 
ATOM      6  C   UNL     1       5.591   6.297  17.448  0.00  0.00    +0.000 A 
ENDROOT
BRANCH   1   8
ATOM      7  C   UNL     1       5.399   3.582  19.465  0.00  0.00    +0.000 C 
ATOM      8  O   UNL     1       5.711   4.022  18.143  0.00  0.00    +0.000 OA
ENDBRANCH   1   8
BRANCH   4   9
ATOM      9  C   UNL     1       8.227   9.087  17.875  0.00  0.00    +0.000 C 
ATOM     10  C   UNL     1       9.036   9.592  18.814  0.00  0.00    +0.000 C 
BRANCH  10  11
ATOM     11  C   UNL     1       9.617  10.948  18.586  0.00  0.00    +0.000 C 
ATOM     12  O   UNL     1      10.266  11.224  17.582  0.00  0.00    +0.000 OA
BRANCH  11  13
ATOM     13  C   UNL     1       9.384  11.963  19.648  0.00  0.00    +0.000 A 
ATOM     14  C   UNL     1       8.878  13.216  19.287  0.00  0.00    +0.000 A 
ATOM     15  C   UNL     1       8.680  14.192  20.267  0.00  0.00    +0.000 A 
ATOM     16  C   UNL     1       8.969  13.911  21.603  0.00  0.00    +0.000 A 
ATOM     17  C   UNL     1       9.437  12.650  21.967  0.00  0.00    +0.000 A 
ATOM     18  C   UNL     1       9.634  11.673  20.993  0.00  0.00    +0.000 A 
ENDBRANCH  11  13
ENDBRANCH  10  11
ENDBRANCH   4   9
BRANCH   6  19
ATOM     19  C   UNL     1       4.157   6.053  16.991  0.00  0.00    +0.000 C 
BRANCH  19  20
ATOM     20  N   UNL     1       3.171   5.858  18.052  0.00  0.00    +0.000 N 
ATOM     21  N   UNL     1       3.092   6.788  19.033  0.00  0.00    +0.000 NA
ATOM     22  N   UNL     1       2.290   6.321  19.979  0.00  0.00    +0.000 NA
ATOM     23  C   UNL     1       1.864   5.079  19.600  0.00  0.00    +0.000 A 
ATOM     24  C   UNL     1       1.005   4.183  20.260  0.00  0.00    +0.000 A 
ATOM     25  C   UNL     1       0.715   2.955  19.651  0.00  0.00    +0.000 A 
ATOM     26  C   UNL     1       1.296   2.625  18.426  0.00  0.00    +0.000 A 
ATOM     27  C   UNL     1       2.174   3.504  17.759  0.00  0.00    +0.000 A 
ATOM     28  C   UNL     1       2.423   4.742  18.369  0.00  0.00    +0.000 A 
ENDBRANCH  19  20
ENDBRANCH   6  19
TORSDOF 6
ENDMDL
MODEL 5
REMARK VINA RESULT:      -8.4      2.687      3.495
REMARK  Name = 
REMARK  7 active torsions:
REMARK  status: ('A' for Active; 'I' for Inactive)
REMARK    1  A    between atoms: C_1  and  O_2
REMARK    2  A    between atoms: O_2  and  C_3
REMARK    3  A    between atoms: C_6  and  C_7
REMARK    4  A    between atoms: C_8  and  C_9
REMARK    5  A    between atoms: C_9  and  C_11
REMARK    6  A    between atoms: C_18  and  C_19
REMARK    7  A    between atoms: C_19  and  N_20
REMARK                            x       y       z     vdW  Elec       q    Type
REMARK                         _______ _______ _______ _____ _____    ______ ____
ROOT
ATOM      1  C   UNL     1       3.308   3.837  18.842  0.00  0.00    +0.000 A 
ATOM      2  C   UNL     1       2.516   4.619  19.686  0.00  0.00    +0.000 A 
ATOM      3  C   UNL     1       2.224   5.938  19.365  0.00  0.00    +0.000 A 
ATOM      4  C   UNL     1       2.688   6.510  18.181  0.00  0.00    +0.000 A 
ATOM      5  C   UNL     1       3.464   5.717  17.310  0.00  0.00    +0.000 A 
ATOM      6  C   UNL     1       3.805   4.376  17.634  0.00  0.00    +0.000 A 
ENDROOT
BRANCH   1   8
ATOM      7  C   UNL     1       4.480   2.300  20.213  0.00  0.00    +0.000 C 
ATOM      8  O   UNL     1       3.595   2.522  19.114  0.00  0.00    +0.000 OA
ENDBRANCH   1   8
BRANCH   4   9
ATOM      9  C   UNL     1       2.317   7.922  17.992  0.00  0.00    +0.000 C 
ATOM     10  C   UNL     1       1.799   8.765  18.894  0.00  0.00    +0.000 C 
BRANCH  10  11
ATOM     11  C   UNL     1       1.419  10.135  18.439  0.00  0.00    +0.000 C 
ATOM     12  O   UNL     1       2.253  10.971  18.106  0.00  0.00    +0.000 OA
BRANCH  11  13
ATOM     13  C   UNL     1      -0.033  10.454  18.419  0.00  0.00    +0.000 A 
ATOM     14  C   UNL     1      -0.522  11.433  19.291  0.00  0.00    +0.000 A 
ATOM     15  C   UNL     1      -1.888  11.726  19.308  0.00  0.00    +0.000 A 
ATOM     16  C   UNL     1      -2.758  11.058  18.446  0.00  0.00    +0.000 A 
ATOM     17  C   UNL     1      -2.265  10.111  17.550  0.00  0.00    +0.000 A 
ATOM     18  C   UNL     1      -0.903   9.816  17.528  0.00  0.00    +0.000 A 
ENDBRANCH  11  13
ENDBRANCH  10  11
ENDBRANCH   4   9
BRANCH   6  19
ATOM     19  C   UNL     1       4.562   3.479  16.662  0.00  0.00    +0.000 C 
BRANCH  19  20
ATOM     20  N   UNL     1       5.721   4.080  16.005  0.00  0.00    +0.000 N 
ATOM     21  N   UNL     1       6.476   4.955  16.711  0.00  0.00    +0.000 NA
ATOM     22  N   UNL     1       7.337   5.521  15.879  0.00  0.00    +0.000 NA
ATOM     23  C   UNL     1       7.121   5.010  14.631  0.00  0.00    +0.000 A 
ATOM     24  C   UNL     1       7.774   5.290  13.418  0.00  0.00    +0.000 A 
ATOM     25  C   UNL     1       7.363   4.617  12.259  0.00  0.00    +0.000 A 
ATOM     26  C   UNL     1       6.305   3.709  12.313  0.00  0.00    +0.000 A 
ATOM     27  C   UNL     1       5.626   3.430  13.517  0.00  0.00    +0.000 A 
ATOM     28  C   UNL     1       6.077   4.087  14.671  0.00  0.00    +0.000 A 
ENDBRANCH  19  20
ENDBRANCH   6  19
TORSDOF 6
ENDMDL
MODEL 6
REMARK VINA RESULT:      -8.4      2.784      4.888
REMARK  Name = 
REMARK  7 active torsions:
REMARK  status: ('A' for Active; 'I' for Inactive)
REMARK    1  A    between atoms: C_1  and  O_2
REMARK    2  A    between atoms: O_2  and  C_3
REMARK    3  A    between atoms: C_6  and  C_7
REMARK    4  A    between atoms: C_8  and  C_9
REMARK    5  A    between atoms: C_9  and  C_11
REMARK    6  A    between atoms: C_18  and  C_19
REMARK    7  A    between atoms: C_19  and  N_20
REMARK                            x       y       z     vdW  Elec       q    Type
REMARK                         _______ _______ _______ _____ _____    ______ ____
ROOT
ATOM      1  C   UNL     1       5.342   4.807  15.801  0.00  0.00    +0.000 A 
ATOM      2  C   UNL     1       5.599   6.147  15.500  0.00  0.00    +0.000 A 
ATOM      3  C   UNL     1       4.932   7.165  16.167  0.00  0.00    +0.000 A 
ATOM      4  C   UNL     1       4.008   6.882  17.173  0.00  0.00    +0.000 A 
ATOM      5  C   UNL     1       3.766   5.531  17.502  0.00  0.00    +0.000 A 
ATOM      6  C   UNL     1       4.411   4.472  16.809  0.00  0.00    +0.000 A 
ENDROOT
BRANCH   1   8
ATOM      7  C   UNL     1       6.244   3.950  13.783  0.00  0.00    +0.000 C 
ATOM      8  O   UNL     1       6.002   3.776  15.180  0.00  0.00    +0.000 OA
ENDBRANCH   1   8
BRANCH   4   9
ATOM      9  C   UNL     1       3.366   8.063  17.772  0.00  0.00    +0.000 C 
ATOM     10  C   UNL     1       2.059   8.347  17.832  0.00  0.00    +0.000 C 
BRANCH  10  11
ATOM     11  C   UNL     1       1.651   9.660  18.416  0.00  0.00    +0.000 C 
ATOM     12  O   UNL     1       1.860  10.725  17.844  0.00  0.00    +0.000 OA
BRANCH  11  13
ATOM     13  C   UNL     1       0.986   9.622  19.745  0.00  0.00    +0.000 A 
ATOM     14  C   UNL     1       0.030  10.598  20.050  0.00  0.00    +0.000 A 
ATOM     15  C   UNL     1      -0.585  10.596  21.304  0.00  0.00    +0.000 A 
ATOM     16  C   UNL     1      -0.261   9.616  22.242  0.00  0.00    +0.000 A 
ATOM     17  C   UNL     1       0.662   8.622  21.924  0.00  0.00    +0.000 A 
ATOM     18  C   UNL     1       1.278   8.618  20.673  0.00  0.00    +0.000 A 
ENDBRANCH  11  13
ENDBRANCH  10  11
ENDBRANCH   4   9
BRANCH   6  19
ATOM     19  C   UNL     1       4.230   3.014  17.216  0.00  0.00    +0.000 C 
BRANCH  19  20
ATOM     20  N   UNL     1       2.994   2.696  17.929  0.00  0.00    +0.000 N 
ATOM     21  N   UNL     1       1.854   2.571  17.210  0.00  0.00    +0.000 NA
ATOM     22  N   UNL     1       0.840   2.484  18.058  0.00  0.00    +0.000 NA
ATOM     23  C   UNL     1       1.340   2.566  19.327  0.00  0.00    +0.000 A 
ATOM     24  C   UNL     1       0.670   2.523  20.562  0.00  0.00    +0.000 A 
ATOM     25  C   UNL     1       1.421   2.624  21.741  0.00  0.00    +0.000 A 
ATOM     26  C   UNL     1       2.804   2.792  21.679  0.00  0.00    +0.000 A 
ATOM     27  C   UNL     1       3.491   2.856  20.449  0.00  0.00    +0.000 A 
ATOM     28  C   UNL     1       2.724   2.717  19.282  0.00  0.00    +0.000 A 
ENDBRANCH  19  20
ENDBRANCH   6  19
TORSDOF 6
ENDMDL
MODEL 7
REMARK VINA RESULT:      -8.3      2.379      3.006
REMARK  Name = 
REMARK  7 active torsions:
REMARK  status: ('A' for Active; 'I' for Inactive)
REMARK    1  A    between atoms: C_1  and  O_2
REMARK    2  A    between atoms: O_2  and  C_3
REMARK    3  A    between atoms: C_6  and  C_7
REMARK    4  A    between atoms: C_8  and  C_9
REMARK    5  A    between atoms: C_9  and  C_11
REMARK    6  A    between atoms: C_18  and  C_19
REMARK    7  A    between atoms: C_19  and  N_20
REMARK                            x       y       z     vdW  Elec       q    Type
REMARK                         _______ _______ _______ _____ _____    ______ ____
ROOT
ATOM      1  C   UNL     1       2.697   4.235  20.694  0.00  0.00    +0.000 A 
ATOM      2  C   UNL     1       1.679   5.117  21.065  0.00  0.00    +0.000 A 
ATOM      3  C   UNL     1       1.517   6.330  20.409  0.00  0.00    +0.000 A 
ATOM      4  C   UNL     1       2.347   6.691  19.348  0.00  0.00    +0.000 A 
ATOM      5  C   UNL     1       3.359   5.792  18.951  0.00  0.00    +0.000 A 
ATOM      6  C   UNL     1       3.565   4.561  19.628  0.00  0.00    +0.000 A 
ENDROOT
BRANCH   1   8
ATOM      7  C   UNL     1       1.671   2.337  21.676  0.00  0.00    +0.000 C 
ATOM      8  O   UNL     1       2.871   3.016  21.303  0.00  0.00    +0.000 OA
ENDBRANCH   1   8
BRANCH   4   9
ATOM      9  C   UNL     1       2.068   8.016  18.770  0.00  0.00    +0.000 C 
ATOM     10  C   UNL     1       1.525   9.080  19.375  0.00  0.00    +0.000 C 
BRANCH  10  11
ATOM     11  C   UNL     1       1.257  10.295  18.551  0.00  0.00    +0.000 C 
ATOM     12  O   UNL     1       2.152  10.916  17.986  0.00  0.00    +0.000 OA
BRANCH  11  13
ATOM     13  C   UNL     1      -0.160  10.738  18.454  0.00  0.00    +0.000 A 
ATOM     14  C   UNL     1      -1.047   9.998  17.665  0.00  0.00    +0.000 A 
ATOM     15  C   UNL     1      -2.374  10.415  17.539  0.00  0.00    +0.000 A 
ATOM     16  C   UNL     1      -2.818  11.553  18.212  0.00  0.00    +0.000 A 
ATOM     17  C   UNL     1      -1.944  12.268  19.028  0.00  0.00    +0.000 A 
ATOM     18  C   UNL     1      -0.619  11.856  19.159  0.00  0.00    +0.000 A 
ENDBRANCH  11  13
ENDBRANCH  10  11
ENDBRANCH   4   9
BRANCH   6  19
ATOM     19  C   UNL     1       4.592   3.540  19.152  0.00  0.00    +0.000 C 
BRANCH  19  20
ATOM     20  N   UNL     1       5.702   4.069  18.361  0.00  0.00    +0.000 N 
ATOM     21  N   UNL     1       6.704   4.708  19.010  0.00  0.00    +0.000 NA
ATOM     22  N   UNL     1       7.488   5.272  18.102  0.00  0.00    +0.000 NA
ATOM     23  C   UNL     1       6.974   4.997  16.867  0.00  0.00    +0.000 A 
ATOM     24  C   UNL     1       7.441   5.370  15.595  0.00  0.00    +0.000 A 
ATOM     25  C   UNL     1       6.727   4.952  14.464  0.00  0.00    +0.000 A 
ATOM     26  C   UNL     1       5.559   4.204  14.610  0.00  0.00    +0.000 A 
ATOM     27  C   UNL     1       5.065   3.837  15.879  0.00  0.00    +0.000 A 
ATOM     28  C   UNL     1       5.814   4.235  16.995  0.00  0.00    +0.000 A 
ENDBRANCH  19  20
ENDBRANCH   6  19
TORSDOF 6
ENDMDL
MODEL 8
REMARK VINA RESULT:      -8.3      2.490      3.147
REMARK  Name = 
REMARK  7 active torsions:
REMARK  status: ('A' for Active; 'I' for Inactive)
REMARK    1  A    between atoms: C_1  and  O_2
REMARK    2  A    between atoms: O_2  and  C_3
REMARK    3  A    between atoms: C_6  and  C_7
REMARK    4  A    between atoms: C_8  and  C_9
REMARK    5  A    between atoms: C_9  and  C_11
REMARK    6  A    between atoms: C_18  and  C_19
REMARK    7  A    between atoms: C_19  and  N_20
REMARK                            x       y       z     vdW  Elec       q    Type
REMARK                         _______ _______ _______ _____ _____    ______ ____
ROOT
ATOM      1  C   UNL     1       3.839   3.962  18.909  0.00  0.00    +0.000 A 
ATOM      2  C   UNL     1       3.327   4.572  20.057  0.00  0.00    +0.000 A 
ATOM      3  C   UNL     1       2.807   5.857  20.006  0.00  0.00    +0.000 A 
ATOM      4  C   UNL     1       2.754   6.566  18.806  0.00  0.00    +0.000 A 
ATOM      5  C   UNL     1       3.242   5.944  17.637  0.00  0.00    +0.000 A 
ATOM      6  C   UNL     1       3.811   4.643  17.671  0.00  0.00    +0.000 A 
ENDROOT
BRANCH   1   8
ATOM      7  C   UNL     1       3.365   1.642  19.014  0.00  0.00    +0.000 C 
ATOM      8  O   UNL     1       4.338   2.683  18.917  0.00  0.00    +0.000 OA
ENDBRANCH   1   8
BRANCH   4   9
ATOM      9  C   UNL     1       2.196   7.924  18.915  0.00  0.00    +0.000 C 
ATOM     10  C   UNL     1       1.517   8.454  19.939  0.00  0.00    +0.000 C 
BRANCH  10  11
ATOM     11  C   UNL     1       0.971   9.835  19.781  0.00  0.00    +0.000 C 
ATOM     12  O   UNL     1       1.234  10.536  18.809  0.00  0.00    +0.000 OA
BRANCH  11  13
ATOM     13  C   UNL     1       0.096  10.337  20.873  0.00  0.00    +0.000 A 
ATOM     14  C   UNL     1      -0.735  11.435  20.622  0.00  0.00    +0.000 A 
ATOM     15  C   UNL     1      -1.543  11.940  21.644  0.00  0.00    +0.000 A 
ATOM     16  C   UNL     1      -1.536  11.339  22.903  0.00  0.00    +0.000 A 
ATOM     17  C   UNL     1      -0.738  10.222  23.141  0.00  0.00    +0.000 A 
ATOM     18  C   UNL     1       0.069   9.714  22.124  0.00  0.00    +0.000 A 
ENDBRANCH  11  13
ENDBRANCH  10  11
ENDBRANCH   4   9
BRANCH   6  19
ATOM     19  C   UNL     1       4.256   3.924  16.403  0.00  0.00    +0.000 C 
BRANCH  19  20
ATOM     20  N   UNL     1       5.516   4.378  15.818  0.00  0.00    +0.000 N 
ATOM     21  N   UNL     1       6.293   5.219  16.541  0.00  0.00    +0.000 NA
ATOM     22  N   UNL     1       7.268   5.655  15.756  0.00  0.00    +0.000 NA
ATOM     23  C   UNL     1       7.103   5.095  14.522  0.00  0.00    +0.000 A 
ATOM     24  C   UNL     1       7.874   5.244  13.356  0.00  0.00    +0.000 A 
ATOM     25  C   UNL     1       7.493   4.547  12.201  0.00  0.00    +0.000 A 
ATOM     26  C   UNL     1       6.352   3.744  12.211  0.00  0.00    +0.000 A 
ATOM     27  C   UNL     1       5.557   3.598  13.366  0.00  0.00    +0.000 A 
ATOM     28  C   UNL     1       5.975   4.276  14.520  0.00  0.00    +0.000 A 
ENDBRANCH  19  20
ENDBRANCH   6  19
TORSDOF 6
ENDMDL
MODEL 9
REMARK VINA RESULT:      -8.3      2.524      4.795
REMARK  Name = 
REMARK  7 active torsions:
REMARK  status: ('A' for Active; 'I' for Inactive)
REMARK    1  A    between atoms: C_1  and  O_2
REMARK    2  A    between atoms: O_2  and  C_3
REMARK    3  A    between atoms: C_6  and  C_7
REMARK    4  A    between atoms: C_8  and  C_9
REMARK    5  A    between atoms: C_9  and  C_11
REMARK    6  A    between atoms: C_18  and  C_19
REMARK    7  A    between atoms: C_19  and  N_20
REMARK                            x       y       z     vdW  Elec       q    Type
REMARK                         _______ _______ _______ _____ _____    ______ ____
ROOT
ATOM      1  C   UNL     1       5.622   5.565  16.755  0.00  0.00    +0.000 A 
ATOM      2  C   UNL     1       5.721   6.949  16.591  0.00  0.00    +0.000 A 
ATOM      3  C   UNL     1       4.677   7.784  16.966  0.00  0.00    +0.000 A 
ATOM      4  C   UNL     1       3.514   7.270  17.539  0.00  0.00    +0.000 A 
ATOM      5  C   UNL     1       3.421   5.876  17.733  0.00  0.00    +0.000 A 
ATOM      6  C   UNL     1       4.461   4.999  17.326  0.00  0.00    +0.000 A 
ENDROOT
BRANCH   1   8
ATOM      7  C   UNL     1       6.881   4.551  15.021  0.00  0.00    +0.000 C 
ATOM      8  O   UNL     1       6.644   4.711  16.420  0.00  0.00    +0.000 OA
ENDBRANCH   1   8
BRANCH   4   9
ATOM      9  C   UNL     1       2.489   8.276  17.861  0.00  0.00    +0.000 C 
ATOM     10  C   UNL     1       1.900   8.501  19.042  0.00  0.00    +0.000 C 
BRANCH  10  11
ATOM     11  C   UNL     1       0.816   9.526  19.102  0.00  0.00    +0.000 C 
ATOM     12  O   UNL     1       0.408  10.110  18.102  0.00  0.00    +0.000 OA
BRANCH  11  13
ATOM     13  C   UNL     1       0.253   9.826  20.445  0.00  0.00    +0.000 A 
ATOM     14  C   UNL     1      -0.351  11.069  20.663  0.00  0.00    +0.000 A 
ATOM     15  C   UNL     1      -0.860  11.380  21.927  0.00  0.00    +0.000 A 
ATOM     16  C   UNL     1      -0.782  10.448  22.962  0.00  0.00    +0.000 A 
ATOM     17  C   UNL     1      -0.215   9.196  22.734  0.00  0.00    +0.000 A 
ATOM     18  C   UNL     1       0.293   8.880  21.474  0.00  0.00    +0.000 A 
ENDBRANCH  11  13
ENDBRANCH  10  11
ENDBRANCH   4   9
BRANCH   6  19
ATOM     19  C   UNL     1       4.413   3.503  17.614  0.00  0.00    +0.000 C 
BRANCH  19  20
ATOM     20  N   UNL     1       4.179   3.125  19.007  0.00  0.00    +0.000 N 
ATOM     21  N   UNL     1       5.176   2.501  19.678  0.00  0.00    +0.000 NA
ATOM     22  N   UNL     1       4.690   2.077  20.836  0.00  0.00    +0.000 NA
ATOM     23  C   UNL     1       3.370   2.425  20.896  0.00  0.00    +0.000 A 
ATOM     24  C   UNL     1       2.426   2.202  21.913  0.00  0.00    +0.000 A 
ATOM     25  C   UNL     1       1.118   2.670  21.734  0.00  0.00    +0.000 A 
ATOM     26  C   UNL     1       0.761   3.319  20.552  0.00  0.00    +0.000 A 
ATOM     27  C   UNL     1       1.690   3.536  19.513  0.00  0.00    +0.000 A 
ATOM     28  C   UNL     1       3.002   3.091  19.728  0.00  0.00    +0.000 A 
ENDBRANCH  19  20
ENDBRANCH   6  19
TORSDOF 6
ENDMDL
