MODEL 1
REMARK VINA RESULT:      -9.0      0.000      0.000
REMARK  Name = 
REMARK  8 active torsions:
REMARK  status: ('A' for Active; 'I' for Inactive)
REMARK    1  A    between atoms: C_1  and  N_2
REMARK    2  A    between atoms: C_6  and  C_7
REMARK    3  A    between atoms: C_7  and  O_8
REMARK    4  A    between atoms: C_7  and  C_9
REMARK    5  A    between atoms: C_7  and  C_18
REMARK    6  A    between atoms: C_12  and  N_13
REMARK    7  A    between atoms: C_22  and  N_23
REMARK    8  A    between atoms: C_27  and  C_28
REMARK                            x       y       z     vdW  Elec       q    Type
REMARK                         _______ _______ _______ _____ _____    ______ ____
ROOT
ATOM      1  C   UNL     1       0.484  10.074  19.354  0.00  0.00    +0.000 C 
ENDROOT
BRANCH   1   2
ATOM      2  C   UNL     1       1.378   8.969  18.767  0.00  0.00    +0.000 A 
ATOM      3  C   UNL     1       2.293   9.114  17.745  0.00  0.00    +0.000 A 
ATOM      4  C   UNL     1       3.137   7.994  17.751  0.00  0.00    +0.000 A 
ATOM      5  C   UNL     1       4.315   7.723  17.032  0.00  0.00    +0.000 A 
ATOM      6  C   UNL     1       4.947   6.504  17.226  0.00  0.00    +0.000 A 
ATOM      7  C   UNL     1       4.391   5.559  18.085  0.00  0.00    +0.000 A 
ATOM      8  C   UNL     1       3.193   5.777  18.842  0.00  0.00    +0.000 A 
ATOM      9  C   UNL     1       2.605   7.071  18.666  0.00  0.00    +0.000 A 
ATOM     10  O   UNL     1       1.509   7.683  19.297  0.00  0.00    +0.000 OA
BRANCH   8  11
ATOM     11  C   UNL     1       2.648   4.594  19.556  0.00  0.00    +0.000 A 
ATOM     12  C   UNL     1       1.622   3.807  18.973  0.00  0.00    +0.000 A 
ATOM     13  C   UNL     1       0.805   2.954  19.734  0.00  0.00    +0.000 A 
ATOM     14  C   UNL     1       1.042   2.817  21.098  0.00  0.00    +0.000 A 
ATOM     15  C   UNL     1       2.107   3.500  21.677  0.00  0.00    +0.000 A 
ATOM     16  C   UNL     1       2.900   4.369  20.914  0.00  0.00    +0.000 A 
ENDBRANCH   8  11
BRANCH   6  17
ATOM     17  N   UNL     1       6.175   6.194  16.486  0.00  0.00    +0.000 N 
ATOM     18  O   UNL     1       7.249   6.255  17.100  0.00  0.00    +0.000 OA
ATOM     19  O   UNL     1       6.067   5.886  15.289  0.00  0.00    +0.000 OA
ENDBRANCH   6  17
ENDBRANCH   1   2
BRANCH   1  25
ATOM     20  C   UNL     1       2.216  12.350  17.912  0.00  0.00    +0.000 C 
ATOM     21  N   UNL     1       1.882  12.270  19.311  0.00  0.00    +0.000 N 
ATOM     22  C   UNL     1       2.157  13.263  20.213  0.00  0.00    +0.000 A 
ATOM     23  N   UNL     1       1.719  12.970  21.411  0.00  0.00    +0.000 NA
ATOM     24  C   UNL     1       1.120  11.750  21.276  0.00  0.00    +0.000 A 
ATOM     25  C   UNL     1       1.170  11.285  19.961  0.00  0.00    +0.000 A 
ENDBRANCH   1  25
BRANCH   1  26
ATOM     26  C   UNL     1      -0.759  10.439  18.522  0.00  0.00    +0.000 A 
ATOM     27  C   UNL     1      -1.671  11.431  18.934  0.00  0.00    +0.000 A 
ATOM     28  C   UNL     1      -2.845  11.684  18.224  0.00  0.00    +0.000 A 
ATOM     29  C   UNL     1      -3.135  10.938  17.080  0.00  0.00    +0.000 A 
ATOM     30  C   UNL     1      -2.256   9.941  16.644  0.00  0.00    +0.000 A 
ATOM     31  C   UNL     1      -1.074   9.708  17.354  0.00  0.00    +0.000 A 
BRANCH  29  32
ATOM     32  N   UNL     1      -4.374  11.197  16.341  0.00  0.00    +0.000 N 
ATOM     33  O   UNL     1      -4.478  10.713  15.203  0.00  0.00    +0.000 OA
ATOM     34  O   UNL     1      -5.244  11.882  16.894  0.00  0.00    +0.000 OA
ENDBRANCH  29  32
ENDBRANCH   1  26
BRANCH   1  35
ATOM     35  O   UNL     1      -0.052   9.422  20.540  0.00  0.00    +0.000 OA
ATOM     36  H   UNL     1       0.598   8.760  20.822  0.00  0.00    +0.000 HD
ENDBRANCH   1  35
TORSDOF 7
ENDMDL
MODEL 2
REMARK VINA RESULT:      -8.9      0.236      1.096
REMARK  Name = 
REMARK  8 active torsions:
REMARK  status: ('A' for Active; 'I' for Inactive)
REMARK    1  A    between atoms: C_1  and  N_2
REMARK    2  A    between atoms: C_6  and  C_7
REMARK    3  A    between atoms: C_7  and  O_8
REMARK    4  A    between atoms: C_7  and  C_9
REMARK    5  A    between atoms: C_7  and  C_18
REMARK    6  A    between atoms: C_12  and  N_13
REMARK    7  A    between atoms: C_22  and  N_23
REMARK    8  A    between atoms: C_27  and  C_28
REMARK                            x       y       z     vdW  Elec       q    Type
REMARK                         _______ _______ _______ _____ _____    ______ ____
ROOT
ATOM      1  C   UNL     1       0.473  10.019  19.468  0.00  0.00    +0.000 C 
ENDROOT
BRANCH   1   2
ATOM      2  C   UNL     1       1.365   8.927  18.857  0.00  0.00    +0.000 A 
ATOM      3  C   UNL     1       2.268   9.088  17.827  0.00  0.00    +0.000 A 
ATOM      4  C   UNL     1       3.118   7.974  17.809  0.00  0.00    +0.000 A 
ATOM      5  C   UNL     1       4.290   7.717  17.074  0.00  0.00    +0.000 A 
ATOM      6  C   UNL     1       4.930   6.500  17.246  0.00  0.00    +0.000 A 
ATOM      7  C   UNL     1       4.390   5.542  18.099  0.00  0.00    +0.000 A 
ATOM      8  C   UNL     1       3.199   5.744  18.872  0.00  0.00    +0.000 A 
ATOM      9  C   UNL     1       2.602   7.036  18.719  0.00  0.00    +0.000 A 
ATOM     10  O   UNL     1       1.510   7.635  19.370  0.00  0.00    +0.000 OA
BRANCH   8  11
ATOM     11  C   UNL     1       2.669   4.550  19.578  0.00  0.00    +0.000 A 
ATOM     12  C   UNL     1       1.666   3.743  18.982  0.00  0.00    +0.000 A 
ATOM     13  C   UNL     1       0.857   2.873  19.732  0.00  0.00    +0.000 A 
ATOM     14  C   UNL     1       1.080   2.739  21.099  0.00  0.00    +0.000 A 
ATOM     15  C   UNL     1       2.124   3.442  21.691  0.00  0.00    +0.000 A 
ATOM     16  C   UNL     1       2.908   4.328  20.940  0.00  0.00    +0.000 A 
ENDBRANCH   8  11
BRANCH   6  17
ATOM     17  N   UNL     1       6.152   6.206  16.488  0.00  0.00    +0.000 N 
ATOM     18  O   UNL     1       6.125   5.248  15.702  0.00  0.00    +0.000 OA
ATOM     19  O   UNL     1       7.138   6.934  16.674  0.00  0.00    +0.000 OA
ENDBRANCH   6  17
ENDBRANCH   1   2
BRANCH   1  25
ATOM     20  C   UNL     1       2.053  12.294  17.859  0.00  0.00    +0.000 C 
ATOM     21  N   UNL     1       1.798  12.252  19.277  0.00  0.00    +0.000 N 
ATOM     22  C   UNL     1       2.091  13.282  20.130  0.00  0.00    +0.000 A 
ATOM     23  N   UNL     1       1.728  13.017  21.359  0.00  0.00    +0.000 NA
ATOM     24  C   UNL     1       1.160  11.777  21.297  0.00  0.00    +0.000 A 
ATOM     25  C   UNL     1       1.154  11.269  19.996  0.00  0.00    +0.000 A 
ENDBRANCH   1  25
BRANCH   1  26
ATOM     26  C   UNL     1      -0.830  10.319  18.705  0.00  0.00    +0.000 A 
ATOM     27  C   UNL     1      -1.132   9.712  17.470  0.00  0.00    +0.000 A 
ATOM     28  C   UNL     1      -2.266  10.066  16.739  0.00  0.00    +0.000 A 
ATOM     29  C   UNL     1      -3.127  11.048  17.231  0.00  0.00    +0.000 A 
ATOM     30  C   UNL     1      -2.856  11.677  18.451  0.00  0.00    +0.000 A 
ATOM     31  C   UNL     1      -1.725  11.302  19.183  0.00  0.00    +0.000 A 
BRANCH  29  32
ATOM     32  N   UNL     1      -4.312  11.427  16.458  0.00  0.00    +0.000 N 
ATOM     33  O   UNL     1      -5.118  12.210  16.985  0.00  0.00    +0.000 OA
ATOM     34  O   UNL     1      -4.441  10.947  15.324  0.00  0.00    +0.000 OA
ENDBRANCH  29  32
ENDBRANCH   1  26
BRANCH   1  35
ATOM     35  O   UNL     1       0.033   9.386  20.702  0.00  0.00    +0.000 OA
ATOM     36  H   UNL     1      -0.743   8.846  20.488  0.00  0.00    +0.000 HD
ENDBRANCH   1  35
TORSDOF 7
ENDMDL
MODEL 3
REMARK VINA RESULT:      -8.9      2.538      3.819
REMARK  Name = 
REMARK  8 active torsions:
REMARK  status: ('A' for Active; 'I' for Inactive)
REMARK    1  A    between atoms: C_1  and  N_2
REMARK    2  A    between atoms: C_6  and  C_7
REMARK    3  A    between atoms: C_7  and  O_8
REMARK    4  A    between atoms: C_7  and  C_9
REMARK    5  A    between atoms: C_7  and  C_18
REMARK    6  A    between atoms: C_12  and  N_13
REMARK    7  A    between atoms: C_22  and  N_23
REMARK    8  A    between atoms: C_27  and  C_28
REMARK                            x       y       z     vdW  Elec       q    Type
REMARK                         _______ _______ _______ _____ _____    ______ ____
ROOT
ATOM      1  C   UNL     1       0.362  10.626  19.857  0.00  0.00    +0.000 C 
ENDROOT
BRANCH   1   2
ATOM      2  C   UNL     1       1.102   9.474  19.160  0.00  0.00    +0.000 A 
ATOM      3  C   UNL     1       1.948   9.581  18.076  0.00  0.00    +0.000 A 
ATOM      4  C   UNL     1       2.682   8.391  17.972  0.00  0.00    +0.000 A 
ATOM      5  C   UNL     1       3.773   8.047  17.153  0.00  0.00    +0.000 A 
ATOM      6  C   UNL     1       4.301   6.769  17.250  0.00  0.00    +0.000 A 
ATOM      7  C   UNL     1       3.726   5.841  18.114  0.00  0.00    +0.000 A 
ATOM      8  C   UNL     1       2.613   6.131  18.970  0.00  0.00    +0.000 A 
ATOM      9  C   UNL     1       2.137   7.479  18.891  0.00  0.00    +0.000 A 
ATOM     10  O   UNL     1       1.153   8.158  19.629  0.00  0.00    +0.000 OA
BRANCH   8  11
ATOM     11  C   UNL     1       2.015   4.971  19.679  0.00  0.00    +0.000 A 
ATOM     12  C   UNL     1       2.283   4.748  21.054  0.00  0.00    +0.000 A 
ATOM     13  C   UNL     1       2.092   3.497  21.664  0.00  0.00    +0.000 A 
ATOM     14  C   UNL     1       1.561   2.448  20.921  0.00  0.00    +0.000 A 
ATOM     15  C   UNL     1       1.194   2.667  19.597  0.00  0.00    +0.000 A 
ATOM     16  C   UNL     1       1.414   3.912  18.990  0.00  0.00    +0.000 A 
ENDBRANCH   8  11
BRANCH   6  17
ATOM     17  N   UNL     1       5.436   6.384  16.404  0.00  0.00    +0.000 N 
ATOM     18  O   UNL     1       5.242   5.519  15.538  0.00  0.00    +0.000 OA
ATOM     19  O   UNL     1       6.523   6.948  16.602  0.00  0.00    +0.000 OA
ENDBRANCH   6  17
ENDBRANCH   1   2
BRANCH   1  25
ATOM     20  C   UNL     1      -1.861  12.068  21.657  0.00  0.00    +0.000 C 
ATOM     21  N   UNL     1      -0.884  11.102  22.094  0.00  0.00    +0.000 N 
ATOM     22  C   UNL     1      -0.867  10.556  23.349  0.00  0.00    +0.000 A 
ATOM     23  N   UNL     1       0.092   9.677  23.486  0.00  0.00    +0.000 NA
ATOM     24  C   UNL     1       0.706   9.636  22.268  0.00  0.00    +0.000 A 
ATOM     25  C   UNL     1       0.103  10.496  21.348  0.00  0.00    +0.000 A 
ENDBRANCH   1  25
BRANCH   1  26
ATOM     26  C   UNL     1       0.795  12.045  19.443  0.00  0.00    +0.000 A 
ATOM     27  C   UNL     1       1.963  12.648  19.947  0.00  0.00    +0.000 A 
ATOM     28  C   UNL     1       2.293  13.970  19.643  0.00  0.00    +0.000 A 
ATOM     29  C   UNL     1       1.448  14.722  18.825  0.00  0.00    +0.000 A 
ATOM     30  C   UNL     1       0.276  14.157  18.311  0.00  0.00    +0.000 A 
ATOM     31  C   UNL     1      -0.035  12.827  18.609  0.00  0.00    +0.000 A 
BRANCH  29  32
ATOM     32  N   UNL     1       1.788  16.113  18.515  0.00  0.00    +0.000 N 
ATOM     33  O   UNL     1       0.864  16.873  18.187  0.00  0.00    +0.000 OA
ATOM     34  O   UNL     1       2.977  16.449  18.599  0.00  0.00    +0.000 OA
ENDBRANCH  29  32
ENDBRANCH   1  26
BRANCH   1  35
ATOM     35  O   UNL     1      -0.982  10.484  19.318  0.00  0.00    +0.000 OA
ATOM     36  H   UNL     1      -0.892  10.269  18.376  0.00  0.00    +0.000 HD
ENDBRANCH   1  35
TORSDOF 7
ENDMDL
MODEL 4
REMARK VINA RESULT:      -8.9      0.718      1.108
REMARK  Name = 
REMARK  8 active torsions:
REMARK  status: ('A' for Active; 'I' for Inactive)
REMARK    1  A    between atoms: C_1  and  N_2
REMARK    2  A    between atoms: C_6  and  C_7
REMARK    3  A    between atoms: C_7  and  O_8
REMARK    4  A    between atoms: C_7  and  C_9
REMARK    5  A    between atoms: C_7  and  C_18
REMARK    6  A    between atoms: C_12  and  N_13
REMARK    7  A    between atoms: C_22  and  N_23
REMARK    8  A    between atoms: C_27  and  C_28
REMARK                            x       y       z     vdW  Elec       q    Type
REMARK                         _______ _______ _______ _____ _____    ______ ____
ROOT
ATOM      1  C   UNL     1       0.454  10.514  19.685  0.00  0.00    +0.000 C 
ENDROOT
BRANCH   1   2
ATOM      2  C   UNL     1       1.209   9.351  19.022  0.00  0.00    +0.000 A 
ATOM      3  C   UNL     1       2.077   9.441  17.953  0.00  0.00    +0.000 A 
ATOM      4  C   UNL     1       2.813   8.250  17.883  0.00  0.00    +0.000 A 
ATOM      5  C   UNL     1       3.921   7.894  17.092  0.00  0.00    +0.000 A 
ATOM      6  C   UNL     1       4.447   6.618  17.221  0.00  0.00    +0.000 A 
ATOM      7  C   UNL     1       3.855   5.703  18.087  0.00  0.00    +0.000 A 
ATOM      8  C   UNL     1       2.725   6.006  18.916  0.00  0.00    +0.000 A 
ATOM      9  C   UNL     1       2.250   7.352  18.805  0.00  0.00    +0.000 A 
ATOM     10  O   UNL     1       1.251   8.043  19.512  0.00  0.00    +0.000 OA
BRANCH   8  11
ATOM     11  C   UNL     1       2.113   4.858  19.631  0.00  0.00    +0.000 A 
ATOM     12  C   UNL     1       2.281   4.706  21.032  0.00  0.00    +0.000 A 
ATOM     13  C   UNL     1       2.085   3.476  21.683  0.00  0.00    +0.000 A 
ATOM     14  C   UNL     1       1.649   2.376  20.952  0.00  0.00    +0.000 A 
ATOM     15  C   UNL     1       1.379   2.524  19.595  0.00  0.00    +0.000 A 
ATOM     16  C   UNL     1       1.602   3.747  18.949  0.00  0.00    +0.000 A 
ENDBRANCH   8  11
BRANCH   6  17
ATOM     17  N   UNL     1       5.599   6.220  16.404  0.00  0.00    +0.000 N 
ATOM     18  O   UNL     1       6.590   5.762  16.990  0.00  0.00    +0.000 OA
ATOM     19  O   UNL     1       5.514   6.362  15.175  0.00  0.00    +0.000 OA
ENDBRANCH   6  17
ENDBRANCH   1   2
BRANCH   1  25
ATOM     20  C   UNL     1       1.822  12.711  17.798  0.00  0.00    +0.000 C 
ATOM     21  N   UNL     1       1.807  12.694  19.238  0.00  0.00    +0.000 N 
ATOM     22  C   UNL     1       2.274  13.721  20.013  0.00  0.00    +0.000 A 
ATOM     23  N   UNL     1       2.113  13.483  21.290  0.00  0.00    +0.000 NA
ATOM     24  C   UNL     1       1.499  12.265  21.344  0.00  0.00    +0.000 A 
ATOM     25  C   UNL     1       1.257  11.743  20.071  0.00  0.00    +0.000 A 
ENDBRANCH   1  25
BRANCH   1  26
ATOM     26  C   UNL     1      -0.915  10.857  19.070  0.00  0.00    +0.000 A 
ATOM     27  C   UNL     1      -1.791  11.786  19.666  0.00  0.00    +0.000 A 
ATOM     28  C   UNL     1      -3.070  12.015  19.156  0.00  0.00    +0.000 A 
ATOM     29  C   UNL     1      -3.503  11.308  18.033  0.00  0.00    +0.000 A 
ATOM     30  C   UNL     1      -2.663  10.373  17.419  0.00  0.00    +0.000 A 
ATOM     31  C   UNL     1      -1.377  10.164  17.929  0.00  0.00    +0.000 A 
BRANCH  29  32
ATOM     32  N   UNL     1      -4.850  11.540  17.504  0.00  0.00    +0.000 N 
ATOM     33  O   UNL     1      -4.947  12.100  16.401  0.00  0.00    +0.000 OA
ATOM     34  O   UNL     1      -5.812  11.164  18.188  0.00  0.00    +0.000 OA
ENDBRANCH  29  32
ENDBRANCH   1  26
BRANCH   1  35
ATOM     35  O   UNL     1       0.137   9.954  20.990  0.00  0.00    +0.000 OA
ATOM     36  H   UNL     1       0.970   9.652  21.384  0.00  0.00    +0.000 HD
ENDBRANCH   1  35
TORSDOF 7
ENDMDL
MODEL 5
REMARK VINA RESULT:      -8.9      0.852      1.748
REMARK  Name = 
REMARK  8 active torsions:
REMARK  status: ('A' for Active; 'I' for Inactive)
REMARK    1  A    between atoms: C_1  and  N_2
REMARK    2  A    between atoms: C_6  and  C_7
REMARK    3  A    between atoms: C_7  and  O_8
REMARK    4  A    between atoms: C_7  and  C_9
REMARK    5  A    between atoms: C_7  and  C_18
REMARK    6  A    between atoms: C_12  and  N_13
REMARK    7  A    between atoms: C_22  and  N_23
REMARK    8  A    between atoms: C_27  and  C_28
REMARK                            x       y       z     vdW  Elec       q    Type
REMARK                         _______ _______ _______ _____ _____    ______ ____
ROOT
ATOM      1  C   UNL     1       0.694  10.612  19.232  0.00  0.00    +0.000 C 
ENDROOT
BRANCH   1   2
ATOM      2  C   UNL     1       1.406   9.346  18.732  0.00  0.00    +0.000 A 
ATOM      3  C   UNL     1       2.301   9.268  17.685  0.00  0.00    +0.000 A 
ATOM      4  C   UNL     1       2.980   8.045  17.777  0.00  0.00    +0.000 A 
ATOM      5  C   UNL     1       4.087   7.548  17.065  0.00  0.00    +0.000 A 
ATOM      6  C   UNL     1       4.548   6.273  17.358  0.00  0.00    +0.000 A 
ATOM      7  C   UNL     1       3.892   5.496  18.309  0.00  0.00    +0.000 A 
ATOM      8  C   UNL     1       2.760   5.947  19.064  0.00  0.00    +0.000 A 
ATOM      9  C   UNL     1       2.353   7.291  18.782  0.00  0.00    +0.000 A 
ATOM     10  O   UNL     1       1.373   8.105  19.374  0.00  0.00    +0.000 OA
BRANCH   8  11
ATOM     11  C   UNL     1       2.077   4.921  19.893  0.00  0.00    +0.000 A 
ATOM     12  C   UNL     1       2.528   4.634  21.207  0.00  0.00    +0.000 A 
ATOM     13  C   UNL     1       2.203   3.439  21.869  0.00  0.00    +0.000 A 
ATOM     14  C   UNL     1       1.356   2.524  21.253  0.00  0.00    +0.000 A 
ATOM     15  C   UNL     1       0.817   2.826  20.007  0.00  0.00    +0.000 A 
ATOM     16  C   UNL     1       1.169   4.009  19.342  0.00  0.00    +0.000 A 
ENDBRANCH   8  11
BRANCH   6  17
ATOM     17  N   UNL     1       5.698   5.729  16.627  0.00  0.00    +0.000 N 
ATOM     18  O   UNL     1       6.277   4.748  17.114  0.00  0.00    +0.000 OA
ATOM     19  O   UNL     1       6.020   6.279  15.564  0.00  0.00    +0.000 OA
ENDBRANCH   6  17
ENDBRANCH   1   2
BRANCH   1  25
ATOM     20  C   UNL     1       0.787  13.044  21.315  0.00  0.00    +0.000 C 
ATOM     21  N   UNL     1       1.500  12.944  20.066  0.00  0.00    +0.000 N 
ATOM     22  C   UNL     1       2.446  13.846  19.660  0.00  0.00    +0.000 A 
ATOM     23  N   UNL     1       2.976  13.513  18.510  0.00  0.00    +0.000 NA
ATOM     24  C   UNL     1       2.365  12.341  18.169  0.00  0.00    +0.000 A 
ATOM     25  C   UNL     1       1.449  11.927  19.138  0.00  0.00    +0.000 A 
ENDBRANCH   1  25
BRANCH   1  26
ATOM     26  C   UNL     1      -0.790  10.741  18.842  0.00  0.00    +0.000 A 
ATOM     27  C   UNL     1      -1.346  10.025  17.764  0.00  0.00    +0.000 A 
ATOM     28  C   UNL     1      -2.666  10.224  17.357  0.00  0.00    +0.000 A 
ATOM     29  C   UNL     1      -3.461  11.157  18.024  0.00  0.00    +0.000 A 
ATOM     30  C   UNL     1      -2.941  11.891  19.095  0.00  0.00    +0.000 A 
ATOM     31  C   UNL     1      -1.622  11.671  19.504  0.00  0.00    +0.000 A 
BRANCH  29  32
ATOM     32  N   UNL     1      -4.843  11.374  17.589  0.00  0.00    +0.000 N 
ATOM     33  O   UNL     1      -5.039  12.190  16.675  0.00  0.00    +0.000 OA
ATOM     34  O   UNL     1      -5.736  10.730  18.157  0.00  0.00    +0.000 OA
ENDBRANCH  29  32
ENDBRANCH   1  26
BRANCH   1  35
ATOM     35  O   UNL     1       0.674  10.393  20.670  0.00  0.00    +0.000 OA
ATOM     36  H   UNL     1       1.002   9.494  20.828  0.00  0.00    +0.000 HD
ENDBRANCH   1  35
TORSDOF 7
ENDMDL
MODEL 6
REMARK VINA RESULT:      -8.7      2.522      4.281
REMARK  Name = 
REMARK  8 active torsions:
REMARK  status: ('A' for Active; 'I' for Inactive)
REMARK    1  A    between atoms: C_1  and  N_2
REMARK    2  A    between atoms: C_6  and  C_7
REMARK    3  A    between atoms: C_7  and  O_8
REMARK    4  A    between atoms: C_7  and  C_9
REMARK    5  A    between atoms: C_7  and  C_18
REMARK    6  A    between atoms: C_12  and  N_13
REMARK    7  A    between atoms: C_22  and  N_23
REMARK    8  A    between atoms: C_27  and  C_28
REMARK                            x       y       z     vdW  Elec       q    Type
REMARK                         _______ _______ _______ _____ _____    ______ ____
ROOT
ATOM      1  C   UNL     1       0.748  10.714  19.880  0.00  0.00    +0.000 C 
ENDROOT
BRANCH   1   2
ATOM      2  C   UNL     1       1.352   9.484  19.185  0.00  0.00    +0.000 A 
ATOM      3  C   UNL     1       2.119   9.485  18.039  0.00  0.00    +0.000 A 
ATOM      4  C   UNL     1       2.759   8.241  17.938  0.00  0.00    +0.000 A 
ATOM      5  C   UNL     1       3.759   7.786  17.059  0.00  0.00    +0.000 A 
ATOM      6  C   UNL     1       4.203   6.478  17.177  0.00  0.00    +0.000 A 
ATOM      7  C   UNL     1       3.632   5.630  18.122  0.00  0.00    +0.000 A 
ATOM      8  C   UNL     1       2.610   6.035  19.042  0.00  0.00    +0.000 A 
ATOM      9  C   UNL     1       2.223   7.410  18.935  0.00  0.00    +0.000 A 
ATOM     10  O   UNL     1       1.347   8.188  19.709  0.00  0.00    +0.000 OA
BRANCH   8  11
ATOM     11  C   UNL     1       1.988   4.952  19.845  0.00  0.00    +0.000 A 
ATOM     12  C   UNL     1       2.420   4.697  21.172  0.00  0.00    +0.000 A 
ATOM     13  C   UNL     1       2.174   3.475  21.821  0.00  0.00    +0.000 A 
ATOM     14  C   UNL     1       1.425   2.497  21.176  0.00  0.00    +0.000 A 
ATOM     15  C   UNL     1       0.902   2.760  19.914  0.00  0.00    +0.000 A 
ATOM     16  C   UNL     1       1.176   3.971  19.264  0.00  0.00    +0.000 A 
ENDBRANCH   8  11
BRANCH   6  17
ATOM     17  N   UNL     1       5.242   5.978  16.270  0.00  0.00    +0.000 N 
ATOM     18  O   UNL     1       5.726   4.862  16.508  0.00  0.00    +0.000 OA
ATOM     19  O   UNL     1       5.574   6.698  15.316  0.00  0.00    +0.000 OA
ENDBRANCH   6  17
ENDBRANCH   1   2
BRANCH   1  25
ATOM     20  C   UNL     1      -1.706  12.107  21.397  0.00  0.00    +0.000 C 
ATOM     21  N   UNL     1      -0.783  11.144  21.942  0.00  0.00    +0.000 N 
ATOM     22  C   UNL     1      -0.923  10.578  23.181  0.00  0.00    +0.000 A 
ATOM     23  N   UNL     1       0.020   9.705  23.429  0.00  0.00    +0.000 NA
ATOM     24  C   UNL     1       0.788   9.689  22.300  0.00  0.00    +0.000 A 
ATOM     25  C   UNL     1       0.299  10.558  21.323  0.00  0.00    +0.000 A 
ENDBRANCH   1  25
BRANCH   1  26
ATOM     26  C   UNL     1       1.465  12.050  19.613  0.00  0.00    +0.000 A 
ATOM     27  C   UNL     1       1.650  12.553  18.310  0.00  0.00    +0.000 A 
ATOM     28  C   UNL     1       2.389  13.714  18.073  0.00  0.00    +0.000 A 
ATOM     29  C   UNL     1       2.967  14.396  19.145  0.00  0.00    +0.000 A 
ATOM     30  C   UNL     1       2.809  13.922  20.451  0.00  0.00    +0.000 A 
ATOM     31  C   UNL     1       2.053  12.768  20.678  0.00  0.00    +0.000 A 
BRANCH  29  32
ATOM     32  N   UNL     1       3.751  15.608  18.894  0.00  0.00    +0.000 N 
ATOM     33  O   UNL     1       4.986  15.525  18.988  0.00  0.00    +0.000 OA
ATOM     34  O   UNL     1       3.138  16.643  18.602  0.00  0.00    +0.000 OA
ENDBRANCH  29  32
ENDBRANCH   1  26
BRANCH   1  35
ATOM     35  O   UNL     1      -0.529  10.844  19.194  0.00  0.00    +0.000 OA
ATOM     36  H   UNL     1      -1.148  10.233  19.621  0.00  0.00    +0.000 HD
ENDBRANCH   1  35
TORSDOF 7
ENDMDL
MODEL 7
REMARK VINA RESULT:      -8.7      2.163      3.793
REMARK  Name = 
REMARK  8 active torsions:
REMARK  status: ('A' for Active; 'I' for Inactive)
REMARK    1  A    between atoms: C_1  and  N_2
REMARK    2  A    between atoms: C_6  and  C_7
REMARK    3  A    between atoms: C_7  and  O_8
REMARK    4  A    between atoms: C_7  and  C_9
REMARK    5  A    between atoms: C_7  and  C_18
REMARK    6  A    between atoms: C_12  and  N_13
REMARK    7  A    between atoms: C_22  and  N_23
REMARK    8  A    between atoms: C_27  and  C_28
REMARK                            x       y       z     vdW  Elec       q    Type
REMARK                         _______ _______ _______ _____ _____    ______ ____
ROOT
ATOM      1  C   UNL     1       0.510  10.430  19.991  0.00  0.00    +0.000 C 
ENDROOT
BRANCH   1   2
ATOM      2  C   UNL     1       1.202   9.062  20.104  0.00  0.00    +0.000 A 
ATOM      3  C   UNL     1       0.976   8.107  21.074  0.00  0.00    +0.000 A 
ATOM      4  C   UNL     1       1.522   6.894  20.631  0.00  0.00    +0.000 A 
ATOM      5  C   UNL     1       1.429   5.593  21.158  0.00  0.00    +0.000 A 
ATOM      6  C   UNL     1       2.097   4.565  20.511  0.00  0.00    +0.000 A 
ATOM      7  C   UNL     1       2.876   4.835  19.389  0.00  0.00    +0.000 A 
ATOM      8  C   UNL     1       3.011   6.139  18.808  0.00  0.00    +0.000 A 
ATOM      9  C   UNL     1       2.255   7.164  19.463  0.00  0.00    +0.000 A 
ATOM     10  O   UNL     1       2.052   8.516  19.139  0.00  0.00    +0.000 OA
BRANCH   8  11
ATOM     11  C   UNL     1       4.028   6.274  17.734  0.00  0.00    +0.000 A 
ATOM     12  C   UNL     1       4.179   5.263  16.751  0.00  0.00    +0.000 A 
ATOM     13  C   UNL     1       5.347   5.133  15.980  0.00  0.00    +0.000 A 
ATOM     14  C   UNL     1       6.372   6.061  16.129  0.00  0.00    +0.000 A 
ATOM     15  C   UNL     1       6.207   7.122  17.014  0.00  0.00    +0.000 A 
ATOM     16  C   UNL     1       5.050   7.228  17.798  0.00  0.00    +0.000 A 
ENDBRANCH   8  11
BRANCH   6  17
ATOM     17  N   UNL     1       2.020   3.199  21.042  0.00  0.00    +0.000 N 
ATOM     18  O   UNL     1       1.573   2.316  20.298  0.00  0.00    +0.000 OA
ATOM     19  O   UNL     1       2.411   3.007  22.204  0.00  0.00    +0.000 OA
ENDBRANCH   6  17
ENDBRANCH   1   2
BRANCH   1  25
ATOM     20  C   UNL     1       2.448  11.426  17.643  0.00  0.00    +0.000 C 
ATOM     21  N   UNL     1       2.194  12.088  18.898  0.00  0.00    +0.000 N 
ATOM     22  C   UNL     1       2.660  13.339  19.202  0.00  0.00    +0.000 A 
ATOM     23  N   UNL     1       2.262  13.734  20.384  0.00  0.00    +0.000 NA
ATOM     24  C   UNL     1       1.492  12.710  20.855  0.00  0.00    +0.000 A 
ATOM     25  C   UNL     1       1.395  11.663  19.937  0.00  0.00    +0.000 A 
ENDBRANCH   1  25
BRANCH   1  26
ATOM     26  C   UNL     1      -0.679  10.498  19.015  0.00  0.00    +0.000 A 
ATOM     27  C   UNL     1      -0.741   9.701  17.855  0.00  0.00    +0.000 A 
ATOM     28  C   UNL     1      -1.774   9.842  16.926  0.00  0.00    +0.000 A 
ATOM     29  C   UNL     1      -2.769  10.797  17.140  0.00  0.00    +0.000 A 
ATOM     30  C   UNL     1      -2.736  11.610  18.278  0.00  0.00    +0.000 A 
ATOM     31  C   UNL     1      -1.707  11.448  19.210  0.00  0.00    +0.000 A 
BRANCH  29  32
ATOM     32  N   UNL     1      -3.847  10.952  16.159  0.00  0.00    +0.000 N 
ATOM     33  O   UNL     1      -4.911  11.459  16.547  0.00  0.00    +0.000 OA
ATOM     34  O   UNL     1      -3.633  10.570  15.001  0.00  0.00    +0.000 OA
ENDBRANCH  29  32
ENDBRANCH   1  26
BRANCH   1  35
ATOM     35  O   UNL     1      -0.093  10.566  21.309  0.00  0.00    +0.000 OA
ATOM     36  H   UNL     1       0.530  11.064  21.860  0.00  0.00    +0.000 HD
ENDBRANCH   1  35
TORSDOF 7
ENDMDL
MODEL 8
REMARK VINA RESULT:      -8.7      0.645      1.399
REMARK  Name = 
REMARK  8 active torsions:
REMARK  status: ('A' for Active; 'I' for Inactive)
REMARK    1  A    between atoms: C_1  and  N_2
REMARK    2  A    between atoms: C_6  and  C_7
REMARK    3  A    between atoms: C_7  and  O_8
REMARK    4  A    between atoms: C_7  and  C_9
REMARK    5  A    between atoms: C_7  and  C_18
REMARK    6  A    between atoms: C_12  and  N_13
REMARK    7  A    between atoms: C_22  and  N_23
REMARK    8  A    between atoms: C_27  and  C_28
REMARK                            x       y       z     vdW  Elec       q    Type
REMARK                         _______ _______ _______ _____ _____    ______ ____
ROOT
ATOM      1  C   UNL     1       0.524  10.340  19.631  0.00  0.00    +0.000 C 
ENDROOT
BRANCH   1   2
ATOM      2  C   UNL     1       1.300   9.177  18.994  0.00  0.00    +0.000 A 
ATOM      3  C   UNL     1       2.190   9.263  17.943  0.00  0.00    +0.000 A 
ATOM      4  C   UNL     1       2.935   8.076  17.900  0.00  0.00    +0.000 A 
ATOM      5  C   UNL     1       4.061   7.721  17.135  0.00  0.00    +0.000 A 
ATOM      6  C   UNL     1       4.593   6.449  17.287  0.00  0.00    +0.000 A 
ATOM      7  C   UNL     1       3.989   5.538  18.148  0.00  0.00    +0.000 A 
ATOM      8  C   UNL     1       2.840   5.841  18.950  0.00  0.00    +0.000 A 
ATOM      9  C   UNL     1       2.358   7.183  18.818  0.00  0.00    +0.000 A 
ATOM     10  O   UNL     1       1.340   7.873  19.497  0.00  0.00    +0.000 OA
BRANCH   8  11
ATOM     11  C   UNL     1       2.220   4.695  19.663  0.00  0.00    +0.000 A 
ATOM     12  C   UNL     1       2.288   4.601  21.077  0.00  0.00    +0.000 A 
ATOM     13  C   UNL     1       2.091   3.388  21.760  0.00  0.00    +0.000 A 
ATOM     14  C   UNL     1       1.753   2.246  21.042  0.00  0.00    +0.000 A 
ATOM     15  C   UNL     1       1.580   2.333  19.664  0.00  0.00    +0.000 A 
ATOM     16  C   UNL     1       1.805   3.541  18.989  0.00  0.00    +0.000 A 
ENDBRANCH   8  11
BRANCH   6  17
ATOM     17  N   UNL     1       5.765   6.052  16.498  0.00  0.00    +0.000 N 
ATOM     18  O   UNL     1       6.673   6.883  16.357  0.00  0.00    +0.000 OA
ATOM     19  O   UNL     1       5.781   4.907  16.022  0.00  0.00    +0.000 OA
ENDBRANCH   6  17
ENDBRANCH   1   2
BRANCH   1  25
ATOM     20  C   UNL     1       1.874  12.520  17.710  0.00  0.00    +0.000 C 
ATOM     21  N   UNL     1       1.848  12.531  19.151  0.00  0.00    +0.000 N 
ATOM     22  C   UNL     1       2.295  13.580  19.909  0.00  0.00    +0.000 A 
ATOM     23  N   UNL     1       2.128  13.364  21.189  0.00  0.00    +0.000 NA
ATOM     24  C   UNL     1       1.531  12.139  21.263  0.00  0.00    +0.000 A 
ATOM     25  C   UNL     1       1.306  11.589  19.999  0.00  0.00    +0.000 A 
ENDBRANCH   1  25
BRANCH   1  26
ATOM     26  C   UNL     1      -0.846  10.651  19.002  0.00  0.00    +0.000 A 
ATOM     27  C   UNL     1      -1.271  10.054  17.799  0.00  0.00    +0.000 A 
ATOM     28  C   UNL     1      -2.470  10.418  17.185  0.00  0.00    +0.000 A 
ATOM     29  C   UNL     1      -3.273  11.400  17.767  0.00  0.00    +0.000 A 
ATOM     30  C   UNL     1      -2.881  12.020  18.958  0.00  0.00    +0.000 A 
ATOM     31  C   UNL     1      -1.685  11.635  19.572  0.00  0.00    +0.000 A 
BRANCH  29  32
ATOM     32  N   UNL     1      -4.527  11.790  17.117  0.00  0.00    +0.000 N 
ATOM     33  O   UNL     1      -5.401  12.319  17.821  0.00  0.00    +0.000 OA
ATOM     34  O   UNL     1      -4.642  11.570  15.904  0.00  0.00    +0.000 OA
ENDBRANCH  29  32
ENDBRANCH   1  26
BRANCH   1  35
ATOM     35  O   UNL     1       0.207   9.801  20.945  0.00  0.00    +0.000 OA
ATOM     36  H   UNL     1       0.791  10.239  21.583  0.00  0.00    +0.000 HD
ENDBRANCH   1  35
TORSDOF 7
ENDMDL
MODEL 9
REMARK VINA RESULT:      -8.5      2.170      3.907
REMARK  Name = 
REMARK  8 active torsions:
REMARK  status: ('A' for Active; 'I' for Inactive)
REMARK    1  A    between atoms: C_1  and  N_2
REMARK    2  A    between atoms: C_6  and  C_7
REMARK    3  A    between atoms: C_7  and  O_8
REMARK    4  A    between atoms: C_7  and  C_9
REMARK    5  A    between atoms: C_7  and  C_18
REMARK    6  A    between atoms: C_12  and  N_13
REMARK    7  A    between atoms: C_22  and  N_23
REMARK    8  A    between atoms: C_27  and  C_28
REMARK                            x       y       z     vdW  Elec       q    Type
REMARK                         _______ _______ _______ _____ _____    ______ ____
ROOT
ATOM      1  C   UNL     1       0.651  10.627  19.550  0.00  0.00    +0.000 C 
ENDROOT
BRANCH   1   2
ATOM      2  C   UNL     1       1.277   9.242  19.777  0.00  0.00    +0.000 A 
ATOM      3  C   UNL     1       1.031   8.396  20.839  0.00  0.00    +0.000 A 
ATOM      4  C   UNL     1       1.504   7.120  20.502  0.00  0.00    +0.000 A 
ATOM      5  C   UNL     1       1.361   5.881  21.153  0.00  0.00    +0.000 A 
ATOM      6  C   UNL     1       1.959   4.763  20.593  0.00  0.00    +0.000 A 
ATOM      7  C   UNL     1       2.718   4.885  19.433  0.00  0.00    +0.000 A 
ATOM      8  C   UNL     1       2.902   6.119  18.727  0.00  0.00    +0.000 A 
ATOM      9  C   UNL     1       2.216   7.239  19.298  0.00  0.00    +0.000 A 
ATOM     10  O   UNL     1       2.072   8.563  18.850  0.00  0.00    +0.000 OA
BRANCH   8  11
ATOM     11  C   UNL     1       3.894   6.098  17.622  0.00  0.00    +0.000 A 
ATOM     12  C   UNL     1       4.088   4.927  16.845  0.00  0.00    +0.000 A 
ATOM     13  C   UNL     1       5.249   4.713  16.084  0.00  0.00    +0.000 A 
ATOM     14  C   UNL     1       6.223   5.705  16.029  0.00  0.00    +0.000 A 
ATOM     15  C   UNL     1       6.012   6.906  16.699  0.00  0.00    +0.000 A 
ATOM     16  C   UNL     1       4.862   7.099  17.477  0.00  0.00    +0.000 A 
ENDBRANCH   8  11
BRANCH   6  17
ATOM     17  N   UNL     1       1.829   3.459  21.254  0.00  0.00    +0.000 N 
ATOM     18  O   UNL     1       1.123   2.602  20.704  0.00  0.00    +0.000 OA
ATOM     19  O   UNL     1       2.434   3.290  22.323  0.00  0.00    +0.000 OA
ENDBRANCH   6  17
ENDBRANCH   1   2
BRANCH   1  25
ATOM     20  C   UNL     1       1.166  13.452  20.970  0.00  0.00    +0.000 C 
ATOM     21  N   UNL     1       1.806  12.950  19.780  0.00  0.00    +0.000 N 
ATOM     22  C   UNL     1       2.850  13.580  19.158  0.00  0.00    +0.000 A 
ATOM     23  N   UNL     1       3.280  12.906  18.122  0.00  0.00    +0.000 NA
ATOM     24  C   UNL     1       2.500  11.786  18.084  0.00  0.00    +0.000 A 
ATOM     25  C   UNL     1       1.576  11.756  19.131  0.00  0.00    +0.000 A 
ENDBRANCH   1  25
BRANCH   1  26
ATOM     26  C   UNL     1      -0.692  10.637  18.798  0.00  0.00    +0.000 A 
ATOM     27  C   UNL     1      -0.918   9.837  17.660  0.00  0.00    +0.000 A 
ATOM     28  C   UNL     1      -2.102   9.928  16.927  0.00  0.00    +0.000 A 
ATOM     29  C   UNL     1      -3.089  10.834  17.318  0.00  0.00    +0.000 A 
ATOM     30  C   UNL     1      -2.897  11.649  18.438  0.00  0.00    +0.000 A 
ATOM     31  C   UNL     1      -1.713  11.537  19.175  0.00  0.00    +0.000 A 
BRANCH  29  32
ATOM     32  N   UNL     1      -4.328  10.936  16.541  0.00  0.00    +0.000 N 
ATOM     33  O   UNL     1      -5.354  11.296  17.138  0.00  0.00    +0.000 OA
ATOM     34  O   UNL     1      -4.278  10.660  15.335  0.00  0.00    +0.000 OA
ENDBRANCH  29  32
ENDBRANCH   1  26
BRANCH   1  35
ATOM     35  O   UNL     1       0.309  11.023  20.908  0.00  0.00    +0.000 OA
ATOM     36  H   UNL     1       1.020  11.602  21.226  0.00  0.00    +0.000 HD
ENDBRANCH   1  35
TORSDOF 7
ENDMDL
