MODEL 1
REMARK VINA RESULT:      -7.0      0.000      0.000
REMARK  Name = 
REMARK  3 active torsions:
REMARK  status: ('A' for Active; 'I' for Inactive)
REMARK    1  A    between atoms: C_2  and  C_4
REMARK    2  A    between atoms: C_4  and  C_5
REMARK    3  A    between atoms: C_5  and  N_6
REMARK                            x       y       z     vdW  Elec       q    Type
REMARK                         _______ _______ _______ _____ _____    ______ ____
ROOT
ATOM      1  N   UNL     1       5.899   6.198  17.941  0.00  0.00    +0.000 NA
ATOM      2  C   UNL     1       4.466   6.434  17.639  0.00  0.00    +0.000 C 
ATOM      3  C   UNL     1       3.522   5.207  17.469  0.00  0.00    +0.000 C 
ATOM      4  N   UNL     1       3.823   4.104  18.394  0.00  0.00    +0.000 N 
ATOM      5  C   UNL     1       2.915   3.722  19.374  0.00  0.00    +0.000 A 
ATOM      6  C   UNL     1       1.554   3.600  19.091  0.00  0.00    +0.000 A 
ATOM      7  C   UNL     1       0.668   3.139  20.069  0.00  0.00    +0.000 A 
ATOM      8  C   UNL     1       1.156   2.801  21.320  0.00  0.00    +0.000 A 
ATOM      9  C   UNL     1       2.512   2.937  21.533  0.00  0.00    +0.000 A 
ATOM     10  N   UNL     1       3.381   3.385  20.599  0.00  0.00    +0.000 NA
ATOM     11  C   UNL     1       5.239   3.861  18.677  0.00  0.00    +0.000 C 
ATOM     12  C   UNL     1       5.960   5.179  19.026  0.00  0.00    +0.000 C 
ENDROOT
BRANCH   1  13
ATOM     13  C   UNL     1       6.710   5.757  16.785  0.00  0.00    +0.000 C 
BRANCH  13  14
ATOM     14  C   UNL     1       5.976   5.532  15.459  0.00  0.00    +0.000 C 
BRANCH  14  16
ATOM     15  N   UNL     1       6.377   3.659  13.952  0.00  0.00    +0.000 N 
ATOM     16  C   UNL     1       6.794   4.887  14.365  0.00  0.00    +0.000 C 
ATOM     17  O   UNL     1       7.825   5.385  13.920  0.00  0.00    +0.000 OA
ATOM     18  H   UNL     1       6.865   3.235  13.174  0.00  0.00    +0.000 HD
ATOM     19  H   UNL     1       5.412   3.385  14.132  0.00  0.00    +0.000 HD
ENDBRANCH  14  16
ENDBRANCH  13  14
ENDBRANCH   1  13
TORSDOF 3
ENDMDL
MODEL 2
REMARK VINA RESULT:      -7.0      2.939      6.331
REMARK  Name = 
REMARK  3 active torsions:
REMARK  status: ('A' for Active; 'I' for Inactive)
REMARK    1  A    between atoms: C_2  and  C_4
REMARK    2  A    between atoms: C_4  and  C_5
REMARK    3  A    between atoms: C_5  and  N_6
REMARK                            x       y       z     vdW  Elec       q    Type
REMARK                         _______ _______ _______ _____ _____    ______ ____
ROOT
ATOM      1  N   UNL     1       1.329   2.633  18.090  0.00  0.00    +0.000 NA
ATOM      2  C   UNL     1       1.322   4.051  17.654  0.00  0.00    +0.000 C 
ATOM      3  C   UNL     1       2.591   4.921  17.901  0.00  0.00    +0.000 C 
ATOM      4  N   UNL     1       3.851   4.185  17.715  0.00  0.00    +0.000 N 
ATOM      5  C   UNL     1       4.732   4.521  16.696  0.00  0.00    +0.000 A 
ATOM      6  C   UNL     1       5.044   5.853  16.418  0.00  0.00    +0.000 A 
ATOM      7  C   UNL     1       5.993   6.167  15.442  0.00  0.00    +0.000 A 
ATOM      8  C   UNL     1       6.624   5.143  14.756  0.00  0.00    +0.000 A 
ATOM      9  C   UNL     1       6.277   3.849  15.083  0.00  0.00    +0.000 A 
ATOM     10  N   UNL     1       5.359   3.529  16.022  0.00  0.00    +0.000 NA
ATOM     11  C   UNL     1       3.861   2.791  18.162  0.00  0.00    +0.000 C 
ATOM     12  C   UNL     1       2.619   2.040  17.640  0.00  0.00    +0.000 C 
ENDROOT
BRANCH   1  13
ATOM     13  C   UNL     1       1.160   2.434  19.546  0.00  0.00    +0.000 C 
BRANCH  13  14
ATOM     14  C   UNL     1       0.919   3.683  20.402  0.00  0.00    +0.000 C 
BRANCH  14  16
ATOM     15  N   UNL     1       2.549   5.246  21.317  0.00  0.00    +0.000 N 
ATOM     16  C   UNL     1       2.004   4.002  21.404  0.00  0.00    +0.000 C 
ATOM     17  O   UNL     1       2.441   3.176  22.200  0.00  0.00    +0.000 OA
ATOM     18  H   UNL     1       3.228   5.511  22.020  0.00  0.00    +0.000 HD
ATOM     19  H   UNL     1       2.019   5.980  20.849  0.00  0.00    +0.000 HD
ENDBRANCH  14  16
ENDBRANCH  13  14
ENDBRANCH   1  13
TORSDOF 3
ENDMDL
MODEL 3
REMARK VINA RESULT:      -6.9      1.040      1.059
REMARK  Name = 
REMARK  3 active torsions:
REMARK  status: ('A' for Active; 'I' for Inactive)
REMARK    1  A    between atoms: C_2  and  C_4
REMARK    2  A    between atoms: C_4  and  C_5
REMARK    3  A    between atoms: C_5  and  N_6
REMARK                            x       y       z     vdW  Elec       q    Type
REMARK                         _______ _______ _______ _____ _____    ______ ____
ROOT
ATOM      1  N   UNL     1       5.478   6.110  17.452  0.00  0.00    +0.000 NA
ATOM      2  C   UNL     1       4.116   6.594  17.785  0.00  0.00    +0.000 C 
ATOM      3  C   UNL     1       2.930   5.585  17.753  0.00  0.00    +0.000 C 
ATOM      4  N   UNL     1       3.287   4.246  18.245  0.00  0.00    +0.000 N 
ATOM      5  C   UNL     1       2.716   3.732  19.402  0.00  0.00    +0.000 A 
ATOM      6  C   UNL     1       1.349   3.859  19.653  0.00  0.00    +0.000 A 
ATOM      7  C   UNL     1       0.780   3.267  20.783  0.00  0.00    +0.000 A 
ATOM      8  C   UNL     1       1.586   2.549  21.650  0.00  0.00    +0.000 A 
ATOM      9  C   UNL     1       2.927   2.454  21.342  0.00  0.00    +0.000 A 
ATOM     10  N   UNL     1       3.493   3.024  20.254  0.00  0.00    +0.000 NA
ATOM     11  C   UNL     1       4.626   3.763  17.900  0.00  0.00    +0.000 C 
ATOM     12  C   UNL     1       5.689   4.839  18.198  0.00  0.00    +0.000 C 
ENDROOT
BRANCH   1  13
ATOM     13  C   UNL     1       5.722   5.898  16.009  0.00  0.00    +0.000 C 
BRANCH  13  14
ATOM     14  C   UNL     1       6.952   5.070  15.619  0.00  0.00    +0.000 C 
BRANCH  14  16
ATOM     15  N   UNL     1       8.017   5.605  13.494  0.00  0.00    +0.000 N 
ATOM     16  C   UNL     1       7.119   4.812  14.141  0.00  0.00    +0.000 C 
ATOM     17  O   UNL     1       6.436   3.999  13.524  0.00  0.00    +0.000 OA
ATOM     18  H   UNL     1       8.200   5.407  12.518  0.00  0.00    +0.000 HD
ATOM     19  H   UNL     1       8.738   6.073  14.041  0.00  0.00    +0.000 HD
ENDBRANCH  14  16
ENDBRANCH  13  14
ENDBRANCH   1  13
TORSDOF 3
ENDMDL
MODEL 4
REMARK VINA RESULT:      -6.9      2.798      6.217
REMARK  Name = 
REMARK  3 active torsions:
REMARK  status: ('A' for Active; 'I' for Inactive)
REMARK    1  A    between atoms: C_2  and  C_4
REMARK    2  A    between atoms: C_4  and  C_5
REMARK    3  A    between atoms: C_5  and  N_6
REMARK                            x       y       z     vdW  Elec       q    Type
REMARK                         _______ _______ _______ _____ _____    ______ ____
ROOT
ATOM      1  N   UNL     1       1.547   2.831  17.816  0.00  0.00    +0.000 NA
ATOM      2  C   UNL     1       1.546   4.300  17.613  0.00  0.00    +0.000 C 
ATOM      3  C   UNL     1       2.625   5.160  18.335  0.00  0.00    +0.000 C 
ATOM      4  N   UNL     1       3.943   4.509  18.405  0.00  0.00    +0.000 N 
ATOM      5  C   UNL     1       5.040   5.040  17.738  0.00  0.00    +0.000 A 
ATOM      6  C   UNL     1       5.308   6.409  17.762  0.00  0.00    +0.000 A 
ATOM      7  C   UNL     1       6.459   6.914  17.152  0.00  0.00    +0.000 A 
ATOM      8  C   UNL     1       7.334   6.041  16.528  0.00  0.00    +0.000 A 
ATOM      9  C   UNL     1       7.015   4.699  16.546  0.00  0.00    +0.000 A 
ATOM     10  N   UNL     1       5.904   4.196  17.128  0.00  0.00    +0.000 NA
ATOM     11  C   UNL     1       3.942   3.062  18.623  0.00  0.00    +0.000 C 
ATOM     12  C   UNL     1       2.954   2.365  17.666  0.00  0.00    +0.000 C 
ENDROOT
BRANCH   1  13
ATOM     13  C   UNL     1       1.003   2.387  19.118  0.00  0.00    +0.000 C 
BRANCH  13  14
ATOM     14  C   UNL     1       0.730   3.468  20.170  0.00  0.00    +0.000 C 
BRANCH  14  16
ATOM     15  N   UNL     1       1.590   2.376  22.171  0.00  0.00    +0.000 N 
ATOM     16  C   UNL     1       1.661   3.466  21.359  0.00  0.00    +0.000 C 
ATOM     17  O   UNL     1       2.385   4.417  21.642  0.00  0.00    +0.000 OA
ATOM     18  H   UNL     1       2.251   2.316  22.936  0.00  0.00    +0.000 HD
ATOM     19  H   UNL     1       1.197   1.513  21.797  0.00  0.00    +0.000 HD
ENDBRANCH  14  16
ENDBRANCH  13  14
ENDBRANCH   1  13
TORSDOF 3
ENDMDL
MODEL 5
REMARK VINA RESULT:      -6.9      3.290      6.200
REMARK  Name = 
REMARK  3 active torsions:
REMARK  status: ('A' for Active; 'I' for Inactive)
REMARK    1  A    between atoms: C_2  and  C_4
REMARK    2  A    between atoms: C_4  and  C_5
REMARK    3  A    between atoms: C_5  and  N_6
REMARK                            x       y       z     vdW  Elec       q    Type
REMARK                         _______ _______ _______ _____ _____    ______ ____
ROOT
ATOM      1  N   UNL     1       3.373   2.336  18.102  0.00  0.00    +0.000 NA
ATOM      2  C   UNL     1       3.757   3.131  16.910  0.00  0.00    +0.000 C 
ATOM      3  C   UNL     1       3.945   4.670  17.060  0.00  0.00    +0.000 C 
ATOM      4  N   UNL     1       4.564   5.062  18.335  0.00  0.00    +0.000 N 
ATOM      5  C   UNL     1       5.819   5.659  18.369  0.00  0.00    +0.000 A 
ATOM      6  C   UNL     1       6.164   6.669  17.470  0.00  0.00    +0.000 A 
ATOM      7  C   UNL     1       7.401   7.311  17.570  0.00  0.00    +0.000 A 
ATOM      8  C   UNL     1       8.279   6.937  18.574  0.00  0.00    +0.000 A 
ATOM      9  C   UNL     1       7.874   5.938  19.434  0.00  0.00    +0.000 A 
ATOM     10  N   UNL     1       6.683   5.305  19.348  0.00  0.00    +0.000 NA
ATOM     11  C   UNL     1       4.171   4.288  19.514  0.00  0.00    +0.000 C 
ATOM     12  C   UNL     1       4.248   2.775  19.225  0.00  0.00    +0.000 C 
ENDROOT
BRANCH   1  13
ATOM     13  C   UNL     1       1.951   2.454  18.491  0.00  0.00    +0.000 C 
BRANCH  13  14
ATOM     14  C   UNL     1       1.534   1.822  19.823  0.00  0.00    +0.000 C 
BRANCH  14  16
ATOM     15  N   UNL     1       0.644   3.966  20.565  0.00  0.00    +0.000 N 
ATOM     16  C   UNL     1       1.232   2.796  20.938  0.00  0.00    +0.000 C 
ATOM     17  O   UNL     1       1.565   2.601  22.103  0.00  0.00    +0.000 OA
ATOM     18  H   UNL     1       0.368   4.607  21.298  0.00  0.00    +0.000 HD
ATOM     19  H   UNL     1       0.153   4.003  19.673  0.00  0.00    +0.000 HD
ENDBRANCH  14  16
ENDBRANCH  13  14
ENDBRANCH   1  13
TORSDOF 3
ENDMDL
MODEL 6
REMARK VINA RESULT:      -6.7      2.997      6.082
REMARK  Name = 
REMARK  3 active torsions:
REMARK  status: ('A' for Active; 'I' for Inactive)
REMARK    1  A    between atoms: C_2  and  C_4
REMARK    2  A    between atoms: C_4  and  C_5
REMARK    3  A    between atoms: C_5  and  N_6
REMARK                            x       y       z     vdW  Elec       q    Type
REMARK                         _______ _______ _______ _____ _____    ______ ____
ROOT
ATOM      1  N   UNL     1       2.613   1.968  18.046  0.00  0.00    +0.000 NA
ATOM      2  C   UNL     1       2.404   3.199  17.246  0.00  0.00    +0.000 C 
ATOM      3  C   UNL     1       2.863   4.566  17.835  0.00  0.00    +0.000 C 
ATOM      4  N   UNL     1       4.120   4.484  18.595  0.00  0.00    +0.000 N 
ATOM      5  C   UNL     1       5.265   5.136  18.157  0.00  0.00    +0.000 A 
ATOM      6  C   UNL     1       5.213   6.446  17.678  0.00  0.00    +0.000 A 
ATOM      7  C   UNL     1       6.387   7.113  17.317  0.00  0.00    +0.000 A 
ATOM      8  C   UNL     1       7.602   6.462  17.443  0.00  0.00    +0.000 A 
ATOM      9  C   UNL     1       7.586   5.171  17.929  0.00  0.00    +0.000 A 
ATOM     10  N   UNL     1       6.459   4.511  18.280  0.00  0.00    +0.000 NA
ATOM     11  C   UNL     1       4.316   3.275  19.398  0.00  0.00    +0.000 C 
ATOM     12  C   UNL     1       4.007   2.012  18.569  0.00  0.00    +0.000 C 
ENDROOT
BRANCH   1  13
ATOM     13  C   UNL     1       1.658   1.786  19.161  0.00  0.00    +0.000 C 
BRANCH  13  14
ATOM     14  C   UNL     1       0.807   2.996  19.560  0.00  0.00    +0.000 C 
BRANCH  14  16
ATOM     15  N   UNL     1       1.522   2.919  21.888  0.00  0.00    +0.000 N 
ATOM     16  C   UNL     1       1.244   3.712  20.817  0.00  0.00    +0.000 C 
ATOM     17  O   UNL     1       1.272   4.935  20.913  0.00  0.00    +0.000 OA
ATOM     18  H   UNL     1       1.883   3.367  22.721  0.00  0.00    +0.000 HD
ATOM     19  H   UNL     1       1.743   1.938  21.726  0.00  0.00    +0.000 HD
ENDBRANCH  14  16
ENDBRANCH  13  14
ENDBRANCH   1  13
TORSDOF 3
ENDMDL
MODEL 7
REMARK VINA RESULT:      -6.7      1.089      1.190
REMARK  Name = 
REMARK  3 active torsions:
REMARK  status: ('A' for Active; 'I' for Inactive)
REMARK    1  A    between atoms: C_2  and  C_4
REMARK    2  A    between atoms: C_4  and  C_5
REMARK    3  A    between atoms: C_5  and  N_6
REMARK                            x       y       z     vdW  Elec       q    Type
REMARK                         _______ _______ _______ _____ _____    ______ ____
ROOT
ATOM      1  N   UNL     1       5.841   5.673  16.800  0.00  0.00    +0.000 NA
ATOM      2  C   UNL     1       4.757   6.477  17.415  0.00  0.00    +0.000 C 
ATOM      3  C   UNL     1       3.347   5.836  17.582  0.00  0.00    +0.000 C 
ATOM      4  N   UNL     1       3.391   4.411  17.943  0.00  0.00    +0.000 N 
ATOM      5  C   UNL     1       2.915   3.969  19.171  0.00  0.00    +0.000 A 
ATOM      6  C   UNL     1       1.710   4.440  19.692  0.00  0.00    +0.000 A 
ATOM      7  C   UNL     1       1.209   3.925  20.891  0.00  0.00    +0.000 A 
ATOM      8  C   UNL     1       1.919   2.937  21.553  0.00  0.00    +0.000 A 
ATOM      9  C   UNL     1       3.099   2.509  20.981  0.00  0.00    +0.000 A 
ATOM     10  N   UNL     1       3.598   3.001  19.825  0.00  0.00    +0.000 NA
ATOM     11  C   UNL     1       4.451   3.615  17.322  0.00  0.00    +0.000 C 
ATOM     12  C   UNL     1       5.813   4.329  17.442  0.00  0.00    +0.000 C 
ENDROOT
BRANCH   1  13
ATOM     13  C   UNL     1       5.750   5.535  15.330  0.00  0.00    +0.000 C 
BRANCH  13  14
ATOM     14  C   UNL     1       6.619   4.458  14.672  0.00  0.00    +0.000 C 
BRANCH  14  16
ATOM     15  N   UNL     1       7.081   4.255  12.288  0.00  0.00    +0.000 N 
ATOM     16  C   UNL     1       7.385   4.900  13.447  0.00  0.00    +0.000 C 
ATOM     17  O   UNL     1       8.290   5.729  13.489  0.00  0.00    +0.000 OA
ATOM     18  H   UNL     1       7.528   4.579  11.439  0.00  0.00    +0.000 HD
ATOM     19  H   UNL     1       6.183   3.778  12.215  0.00  0.00    +0.000 HD
ENDBRANCH  14  16
ENDBRANCH  13  14
ENDBRANCH   1  13
TORSDOF 3
ENDMDL
MODEL 8
REMARK VINA RESULT:      -6.6      2.965      6.486
REMARK  Name = 
REMARK  3 active torsions:
REMARK  status: ('A' for Active; 'I' for Inactive)
REMARK    1  A    between atoms: C_2  and  C_4
REMARK    2  A    between atoms: C_4  and  C_5
REMARK    3  A    between atoms: C_5  and  N_6
REMARK                            x       y       z     vdW  Elec       q    Type
REMARK                         _______ _______ _______ _____ _____    ______ ____
ROOT
ATOM      1  N   UNL     1       4.113   4.425  19.528  0.00  0.00    +0.000 NA
ATOM      2  C   UNL     1       3.959   3.313  18.559  0.00  0.00    +0.000 C 
ATOM      3  C   UNL     1       3.690   3.650  17.062  0.00  0.00    +0.000 C 
ATOM      4  N   UNL     1       4.422   4.834  16.588  0.00  0.00    +0.000 N 
ATOM      5  C   UNL     1       5.405   4.724  15.612  0.00  0.00    +0.000 A 
ATOM      6  C   UNL     1       5.213   3.935  14.477  0.00  0.00    +0.000 A 
ATOM      7  C   UNL     1       6.180   3.900  13.469  0.00  0.00    +0.000 A 
ATOM      8  C   UNL     1       7.329   4.661  13.607  0.00  0.00    +0.000 A 
ATOM      9  C   UNL     1       7.455   5.425  14.748  0.00  0.00    +0.000 A 
ATOM     10  N   UNL     1       6.530   5.466  15.733  0.00  0.00    +0.000 NA
ATOM     11  C   UNL     1       4.559   5.938  17.539  0.00  0.00    +0.000 C 
ATOM     12  C   UNL     1       5.034   5.421  18.913  0.00  0.00    +0.000 C 
ENDROOT
BRANCH   1  13
ATOM     13  C   UNL     1       2.848   5.081  19.922  0.00  0.00    +0.000 C 
BRANCH  13  14
ATOM     14  C   UNL     1       2.204   4.630  21.238  0.00  0.00    +0.000 C 
BRANCH  14  16
ATOM     15  N   UNL     1       0.543   3.109  20.310  0.00  0.00    +0.000 N 
ATOM     16  C   UNL     1       1.553   3.268  21.209  0.00  0.00    +0.000 C 
ATOM     17  O   UNL     1       1.843   2.372  21.997  0.00  0.00    +0.000 OA
ATOM     18  H   UNL     1       0.135   2.186  20.221  0.00  0.00    +0.000 HD
ATOM     19  H   UNL     1       0.491   3.744  19.516  0.00  0.00    +0.000 HD
ENDBRANCH  14  16
ENDBRANCH  13  14
ENDBRANCH   1  13
TORSDOF 3
ENDMDL
MODEL 9
REMARK VINA RESULT:      -6.6      1.669      1.912
REMARK  Name = 
REMARK  3 active torsions:
REMARK  status: ('A' for Active; 'I' for Inactive)
REMARK    1  A    between atoms: C_2  and  C_4
REMARK    2  A    between atoms: C_4  and  C_5
REMARK    3  A    between atoms: C_5  and  N_6
REMARK                            x       y       z     vdW  Elec       q    Type
REMARK                         _______ _______ _______ _____ _____    ______ ____
ROOT
ATOM      1  N   UNL     1       6.249   5.299  16.324  0.00  0.00    +0.000 NA
ATOM      2  C   UNL     1       5.632   6.379  17.133  0.00  0.00    +0.000 C 
ATOM      3  C   UNL     1       4.107   6.310  17.441  0.00  0.00    +0.000 C 
ATOM      4  N   UNL     1       3.621   4.945  17.692  0.00  0.00    +0.000 N 
ATOM      5  C   UNL     1       3.129   4.578  18.938  0.00  0.00    +0.000 A 
ATOM      6  C   UNL     1       2.262   5.410  19.647  0.00  0.00    +0.000 A 
ATOM      7  C   UNL     1       1.716   4.989  20.863  0.00  0.00    +0.000 A 
ATOM      8  C   UNL     1       2.041   3.735  21.353  0.00  0.00    +0.000 A 
ATOM      9  C   UNL     1       2.897   2.959  20.601  0.00  0.00    +0.000 A 
ATOM     10  N   UNL     1       3.436   3.353  19.426  0.00  0.00    +0.000 NA
ATOM     11  C   UNL     1       4.219   3.883  16.881  0.00  0.00    +0.000 C 
ATOM     12  C   UNL     1       5.756   4.003  16.868  0.00  0.00    +0.000 C 
ENDROOT
BRANCH   1  13
ATOM     13  C   UNL     1       5.972   5.379  14.873  0.00  0.00    +0.000 C 
BRANCH  13  14
ATOM     14  C   UNL     1       6.801   4.480  13.950  0.00  0.00    +0.000 C 
BRANCH  14  16
ATOM     15  N   UNL     1       6.733   2.845  12.144  0.00  0.00    +0.000 N 
ATOM     16  C   UNL     1       6.008   3.656  12.963  0.00  0.00    +0.000 C 
ATOM     17  O   UNL     1       4.791   3.758  12.833  0.00  0.00    +0.000 OA
ATOM     18  H   UNL     1       6.224   2.231  11.521  0.00  0.00    +0.000 HD
ATOM     19  H   UNL     1       7.676   2.581  12.428  0.00  0.00    +0.000 HD
ENDBRANCH  14  16
ENDBRANCH  13  14
ENDBRANCH   1  13
TORSDOF 3
ENDMDL
