MODEL 1
REMARK VINA RESULT:      -8.2      0.000      0.000
REMARK  Name = 
REMARK  2 active torsions:
REMARK  status: ('A' for Active; 'I' for Inactive)
REMARK    1  A    between atoms: C_3  and  N_4
REMARK    2  A    between atoms: N_4  and  C_5
REMARK                            x       y       z     vdW  Elec       q    Type
REMARK                         _______ _______ _______ _____ _____    ______ ____
ROOT
ATOM      1  O   UNL     1       4.587   7.483  16.884  0.00  0.00    +0.000 OA
ATOM      2  C   UNL     1       4.506   6.351  17.349  0.00  0.00    +0.000 C 
ATOM      3  C   UNL     1       5.373   5.220  16.823  0.00  0.00    +0.000 C 
ATOM      4  C   UNL     1       5.223   3.963  17.285  0.00  0.00    +0.000 C 
ATOM      5  C   UNL     1       4.274   3.642  18.359  0.00  0.00    +0.000 C 
ATOM      6  N   UNL     1       4.055   2.484  18.896  0.00  0.00    +0.000 NA
ATOM      7  S   UNL     1       2.899   2.627  20.075  0.00  0.00    +0.000 S 
ATOM      8  O   UNL     1       1.673   1.985  19.652  0.00  0.00    +0.000 OA
ATOM      9  O   UNL     1       3.488   2.431  21.379  0.00  0.00    +0.000 OA
ATOM     10  C   UNL     1       2.661   4.342  19.879  0.00  0.00    +0.000 A 
ATOM     11  C   UNL     1       1.810   5.218  20.512  0.00  0.00    +0.000 A 
ATOM     12  C   UNL     1       1.853   6.558  20.090  0.00  0.00    +0.000 A 
ATOM     13  C   UNL     1       2.730   6.975  19.058  0.00  0.00    +0.000 A 
ATOM     14  C   UNL     1       3.570   6.046  18.441  0.00  0.00    +0.000 A 
ATOM     15  C   UNL     1       3.506   4.751  18.878  0.00  0.00    +0.000 A 
ENDROOT
BRANCH   3  16
ATOM     16  N   UNL     1       6.273   5.593  15.830  0.00  0.00    +0.000 N 
ATOM     17  H   UNL     1       7.200   5.787  16.225  0.00  0.00    +0.000 HD
BRANCH  16  18
ATOM     18  C   UNL     1       6.404   4.952  14.573  0.00  0.00    +0.000 A 
ATOM     19  C   UNL     1       5.469   4.034  14.075  0.00  0.00    +0.000 A 
ATOM     20  C   UNL     1       5.620   3.469  12.807  0.00  0.00    +0.000 A 
ATOM     21  C   UNL     1       6.710   3.814  12.017  0.00  0.00    +0.000 A 
ATOM     22  C   UNL     1       7.655   4.714  12.498  0.00  0.00    +0.000 A 
ATOM     23  C   UNL     1       7.504   5.279  13.768  0.00  0.00    +0.000 A 
ENDBRANCH  16  18
ENDBRANCH   3  16
TORSDOF 2
ENDMDL
MODEL 2
REMARK VINA RESULT:      -8.1      1.109      1.641
REMARK  Name = 
REMARK  2 active torsions:
REMARK  status: ('A' for Active; 'I' for Inactive)
REMARK    1  A    between atoms: C_3  and  N_4
REMARK    2  A    between atoms: N_4  and  C_5
REMARK                            x       y       z     vdW  Elec       q    Type
REMARK                         _______ _______ _______ _____ _____    ______ ____
ROOT
ATOM      1  O   UNL     1       5.607   7.134  15.989  0.00  0.00    +0.000 OA
ATOM      2  C   UNL     1       5.156   6.302  16.770  0.00  0.00    +0.000 C 
ATOM      3  C   UNL     1       5.769   4.917  16.886  0.00  0.00    +0.000 C 
ATOM      4  C   UNL     1       5.221   3.984  17.688  0.00  0.00    +0.000 C 
ATOM      5  C   UNL     1       4.057   4.280  18.534  0.00  0.00    +0.000 C 
ATOM      6  N   UNL     1       3.456   3.478  19.354  0.00  0.00    +0.000 NA
ATOM      7  S   UNL     1       2.201   4.271  20.090  0.00  0.00    +0.000 S 
ATOM      8  O   UNL     1       0.936   3.754  19.614  0.00  0.00    +0.000 OA
ATOM      9  O   UNL     1       2.495   4.484  21.488  0.00  0.00    +0.000 OA
ATOM     10  C   UNL     1       2.458   5.792  19.280  0.00  0.00    +0.000 A 
ATOM     11  C   UNL     1       1.776   6.985  19.351  0.00  0.00    +0.000 A 
ATOM     12  C   UNL     1       2.238   8.028  18.530  0.00  0.00    +0.000 A 
ATOM     13  C   UNL     1       3.351   7.848  17.673  0.00  0.00    +0.000 A 
ATOM     14  C   UNL     1       4.006   6.616  17.631  0.00  0.00    +0.000 A 
ATOM     15  C   UNL     1       3.533   5.623  18.445  0.00  0.00    +0.000 A 
ENDROOT
BRANCH   3  16
ATOM     16  N   UNL     1       6.887   4.710  16.083  0.00  0.00    +0.000 N 
ATOM     17  H   UNL     1       7.515   4.013  16.498  0.00  0.00    +0.000 HD
BRANCH  16  18
ATOM     18  C   UNL     1       6.855   4.560  14.674  0.00  0.00    +0.000 A 
ATOM     19  C   UNL     1       7.732   5.227  13.808  0.00  0.00    +0.000 A 
ATOM     20  C   UNL     1       7.691   5.005  12.430  0.00  0.00    +0.000 A 
ATOM     21  C   UNL     1       6.770   4.111  11.896  0.00  0.00    +0.000 A 
ATOM     22  C   UNL     1       5.883   3.448  12.738  0.00  0.00    +0.000 A 
ATOM     23  C   UNL     1       5.924   3.671  14.118  0.00  0.00    +0.000 A 
ENDBRANCH  16  18
ENDBRANCH   3  16
TORSDOF 2
ENDMDL
MODEL 3
REMARK VINA RESULT:      -8.1      1.108      1.288
REMARK  Name = 
REMARK  2 active torsions:
REMARK  status: ('A' for Active; 'I' for Inactive)
REMARK    1  A    between atoms: C_3  and  N_4
REMARK    2  A    between atoms: N_4  and  C_5
REMARK                            x       y       z     vdW  Elec       q    Type
REMARK                         _______ _______ _______ _____ _____    ______ ____
ROOT
ATOM      1  O   UNL     1       5.585   7.151  15.971  0.00  0.00    +0.000 OA
ATOM      2  C   UNL     1       5.135   6.316  16.749  0.00  0.00    +0.000 C 
ATOM      3  C   UNL     1       5.742   4.928  16.851  0.00  0.00    +0.000 C 
ATOM      4  C   UNL     1       5.194   3.991  17.651  0.00  0.00    +0.000 C 
ATOM      5  C   UNL     1       4.038   4.287  18.508  0.00  0.00    +0.000 C 
ATOM      6  N   UNL     1       3.439   3.483  19.326  0.00  0.00    +0.000 NA
ATOM      7  S   UNL     1       2.193   4.277  20.076  0.00  0.00    +0.000 S 
ATOM      8  O   UNL     1       0.923   3.770  19.606  0.00  0.00    +0.000 OA
ATOM      9  O   UNL     1       2.499   4.479  21.473  0.00  0.00    +0.000 OA
ATOM     10  C   UNL     1       2.452   5.802  19.275  0.00  0.00    +0.000 A 
ATOM     11  C   UNL     1       1.776   6.998  19.359  0.00  0.00    +0.000 A 
ATOM     12  C   UNL     1       2.238   8.045  18.542  0.00  0.00    +0.000 A 
ATOM     13  C   UNL     1       3.344   7.865  17.675  0.00  0.00    +0.000 A 
ATOM     14  C   UNL     1       3.993   6.630  17.621  0.00  0.00    +0.000 A 
ATOM     15  C   UNL     1       3.521   5.634  18.431  0.00  0.00    +0.000 A 
ENDROOT
BRANCH   3  16
ATOM     16  N   UNL     1       6.852   4.720  16.039  0.00  0.00    +0.000 N 
ATOM     17  H   UNL     1       7.525   4.087  16.487  0.00  0.00    +0.000 HD
BRANCH  16  18
ATOM     18  C   UNL     1       6.801   4.468  14.645  0.00  0.00    +0.000 A 
ATOM     19  C   UNL     1       5.862   3.613  14.051  0.00  0.00    +0.000 A 
ATOM     20  C   UNL     1       5.823   3.439  12.666  0.00  0.00    +0.000 A 
ATOM     21  C   UNL     1       6.723   4.118  11.853  0.00  0.00    +0.000 A 
ATOM     22  C   UNL     1       7.670   4.962  12.425  0.00  0.00    +0.000 A 
ATOM     23  C   UNL     1       7.710   5.135  13.812  0.00  0.00    +0.000 A 
ENDBRANCH  16  18
ENDBRANCH   3  16
TORSDOF 2
ENDMDL
MODEL 4
REMARK VINA RESULT:      -8.1      5.546      7.826
REMARK  Name = 
REMARK  2 active torsions:
REMARK  status: ('A' for Active; 'I' for Inactive)
REMARK    1  A    between atoms: C_3  and  N_4
REMARK    2  A    between atoms: N_4  and  C_5
REMARK                            x       y       z     vdW  Elec       q    Type
REMARK                         _______ _______ _______ _____ _____    ______ ____
ROOT
ATOM      1  O   UNL     1       1.323   8.782  18.054  0.00  0.00    +0.000 OA
ATOM      2  C   UNL     1       1.049   9.142  19.194  0.00  0.00    +0.000 C 
ATOM      3  C   UNL     1       1.608   8.416  20.405  0.00  0.00    +0.000 C 
ATOM      4  C   UNL     1       1.241   8.769  21.653  0.00  0.00    +0.000 C 
ATOM      5  C   UNL     1       0.345   9.907  21.902  0.00  0.00    +0.000 C 
ATOM      6  N   UNL     1      -0.063  10.351  23.047  0.00  0.00    +0.000 NA
ATOM      7  S   UNL     1      -1.053  11.660  22.817  0.00  0.00    +0.000 S 
ATOM      8  O   UNL     1      -2.419  11.317  23.148  0.00  0.00    +0.000 OA
ATOM      9  O   UNL     1      -0.403  12.865  23.278  0.00  0.00    +0.000 OA
ATOM     10  C   UNL     1      -0.942  11.657  21.078  0.00  0.00    +0.000 A 
ATOM     11  C   UNL     1      -1.529  12.464  20.130  0.00  0.00    +0.000 A 
ATOM     12  C   UNL     1      -1.245  12.169  18.785  0.00  0.00    +0.000 A 
ATOM     13  C   UNL     1      -0.396  11.091  18.434  0.00  0.00    +0.000 A 
ATOM     14  C   UNL     1       0.171  10.298  19.433  0.00  0.00    +0.000 A 
ATOM     15  C   UNL     1      -0.123  10.613  20.731  0.00  0.00    +0.000 A 
ENDROOT
BRANCH   3  16
ATOM     16  N   UNL     1       2.474   7.370  20.105  0.00  0.00    +0.000 N 
ATOM     17  H   UNL     1       3.277   7.359  20.743  0.00  0.00    +0.000 HD
BRANCH  16  18
ATOM     18  C   UNL     1       2.070   6.044  19.808  0.00  0.00    +0.000 A 
ATOM     19  C   UNL     1       1.475   5.191  20.748  0.00  0.00    +0.000 A 
ATOM     20  C   UNL     1       1.049   3.910  20.390  0.00  0.00    +0.000 A 
ATOM     21  C   UNL     1       1.213   3.462  19.084  0.00  0.00    +0.000 A 
ATOM     22  C   UNL     1       1.812   4.289  18.140  0.00  0.00    +0.000 A 
ATOM     23  C   UNL     1       2.239   5.571  18.499  0.00  0.00    +0.000 A 
ENDBRANCH  16  18
ENDBRANCH   3  16
TORSDOF 2
ENDMDL
MODEL 5
REMARK VINA RESULT:      -8.1      0.133      1.032
REMARK  Name = 
REMARK  2 active torsions:
REMARK  status: ('A' for Active; 'I' for Inactive)
REMARK    1  A    between atoms: C_3  and  N_4
REMARK    2  A    between atoms: N_4  and  C_5
REMARK                            x       y       z     vdW  Elec       q    Type
REMARK                         _______ _______ _______ _____ _____    ______ ____
ROOT
ATOM      1  O   UNL     1       4.782   7.435  16.877  0.00  0.00    +0.000 OA
ATOM      2  C   UNL     1       4.664   6.312  17.356  0.00  0.00    +0.000 C 
ATOM      3  C   UNL     1       5.523   5.156  16.875  0.00  0.00    +0.000 C 
ATOM      4  C   UNL     1       5.334   3.909  17.351  0.00  0.00    +0.000 C 
ATOM      5  C   UNL     1       4.345   3.625  18.399  0.00  0.00    +0.000 C 
ATOM      6  N   UNL     1       4.086   2.480  18.947  0.00  0.00    +0.000 NA
ATOM      7  S   UNL     1       2.897   2.664  20.087  0.00  0.00    +0.000 S 
ATOM      8  O   UNL     1       1.672   2.041  19.635  0.00  0.00    +0.000 OA
ATOM      9  O   UNL     1       3.442   2.477  21.411  0.00  0.00    +0.000 OA
ATOM     10  C   UNL     1       2.701   4.380  19.857  0.00  0.00    +0.000 A 
ATOM     11  C   UNL     1       1.849   5.284  20.451  0.00  0.00    +0.000 A 
ATOM     12  C   UNL     1       1.932   6.616  20.009  0.00  0.00    +0.000 A 
ATOM     13  C   UNL     1       2.849   6.998  18.999  0.00  0.00    +0.000 A 
ATOM     14  C   UNL     1       3.688   6.043  18.423  0.00  0.00    +0.000 A 
ATOM     15  C   UNL     1       3.585   4.757  18.877  0.00  0.00    +0.000 A 
ENDROOT
BRANCH   3  16
ATOM     16  N   UNL     1       6.461   5.496  15.905  0.00  0.00    +0.000 N 
ATOM     17  H   UNL     1       7.406   5.536  16.303  0.00  0.00    +0.000 HD
BRANCH  16  18
ATOM     18  C   UNL     1       6.506   4.953  14.596  0.00  0.00    +0.000 A 
ATOM     19  C   UNL     1       7.553   5.197  13.697  0.00  0.00    +0.000 A 
ATOM     20  C   UNL     1       7.573   4.596  12.436  0.00  0.00    +0.000 A 
ATOM     21  C   UNL     1       6.545   3.742  12.055  0.00  0.00    +0.000 A 
ATOM     22  C   UNL     1       5.490   3.497  12.930  0.00  0.00    +0.000 A 
ATOM     23  C   UNL     1       5.471   4.099  14.192  0.00  0.00    +0.000 A 
ENDBRANCH  16  18
ENDBRANCH   3  16
TORSDOF 2
ENDMDL
MODEL 6
REMARK VINA RESULT:      -8.0      5.561      7.875
REMARK  Name = 
REMARK  2 active torsions:
REMARK  status: ('A' for Active; 'I' for Inactive)
REMARK    1  A    between atoms: C_3  and  N_4
REMARK    2  A    between atoms: N_4  and  C_5
REMARK                            x       y       z     vdW  Elec       q    Type
REMARK                         _______ _______ _______ _____ _____    ______ ____
ROOT
ATOM      1  O   UNL     1       1.344   8.824  18.059  0.00  0.00    +0.000 OA
ATOM      2  C   UNL     1       1.057   9.174  19.199  0.00  0.00    +0.000 C 
ATOM      3  C   UNL     1       1.589   8.427  20.409  0.00  0.00    +0.000 C 
ATOM      4  C   UNL     1       1.207   8.770  21.656  0.00  0.00    +0.000 C 
ATOM      5  C   UNL     1       0.324   9.917  21.904  0.00  0.00    +0.000 C 
ATOM      6  N   UNL     1      -0.095  10.354  23.049  0.00  0.00    +0.000 NA
ATOM      7  S   UNL     1      -1.064  11.678  22.820  0.00  0.00    +0.000 S 
ATOM      8  O   UNL     1      -2.440  11.349  23.127  0.00  0.00    +0.000 OA
ATOM      9  O   UNL     1      -0.406  12.869  23.304  0.00  0.00    +0.000 OA
ATOM     10  C   UNL     1      -0.928  11.694  21.083  0.00  0.00    +0.000 A 
ATOM     11  C   UNL     1      -1.491  12.519  20.136  0.00  0.00    +0.000 A 
ATOM     12  C   UNL     1      -1.190  12.237  18.792  0.00  0.00    +0.000 A 
ATOM     13  C   UNL     1      -0.350  11.151  18.441  0.00  0.00    +0.000 A 
ATOM     14  C   UNL     1       0.191  10.339  19.438  0.00  0.00    +0.000 A 
ATOM     15  C   UNL     1      -0.118  10.643  20.736  0.00  0.00    +0.000 A 
ENDROOT
BRANCH   3  16
ATOM     16  N   UNL     1       2.445   7.373  20.109  0.00  0.00    +0.000 N 
ATOM     17  H   UNL     1       3.218   7.321  20.782  0.00  0.00    +0.000 HD
BRANCH  16  18
ATOM     18  C   UNL     1       2.027   6.068  19.746  0.00  0.00    +0.000 A 
ATOM     19  C   UNL     1       2.179   5.541  18.456  0.00  0.00    +0.000 A 
ATOM     20  C   UNL     1       1.795   4.231  18.164  0.00  0.00    +0.000 A 
ATOM     21  C   UNL     1       1.251   3.426  19.159  0.00  0.00    +0.000 A 
ATOM     22  C   UNL     1       1.081   3.935  20.443  0.00  0.00    +0.000 A 
ATOM     23  C   UNL     1       1.465   5.247  20.734  0.00  0.00    +0.000 A 
ENDBRANCH  16  18
ENDBRANCH   3  16
TORSDOF 2
ENDMDL
MODEL 7
REMARK VINA RESULT:      -7.9      1.048      1.525
REMARK  Name = 
REMARK  2 active torsions:
REMARK  status: ('A' for Active; 'I' for Inactive)
REMARK    1  A    between atoms: C_3  and  N_4
REMARK    2  A    between atoms: N_4  and  C_5
REMARK                            x       y       z     vdW  Elec       q    Type
REMARK                         _______ _______ _______ _____ _____    ______ ____
ROOT
ATOM      1  O   UNL     1       5.278   6.791  17.389  0.00  0.00    +0.000 OA
ATOM      2  C   UNL     1       4.873   5.824  18.027  0.00  0.00    +0.000 C 
ATOM      3  C   UNL     1       5.552   4.470  17.921  0.00  0.00    +0.000 C 
ATOM      4  C   UNL     1       5.055   3.395  18.565  0.00  0.00    +0.000 C 
ATOM      5  C   UNL     1       3.886   3.497  19.448  0.00  0.00    +0.000 C 
ATOM      6  N   UNL     1       3.331   2.546  20.130  0.00  0.00    +0.000 NA
ATOM      7  S   UNL     1       2.045   3.151  20.983  0.00  0.00    +0.000 S 
ATOM      8  O   UNL     1       0.803   2.655  20.431  0.00  0.00    +0.000 OA
ATOM      9  O   UNL     1       2.340   3.153  22.397  0.00  0.00    +0.000 OA
ATOM     10  C   UNL     1       2.222   4.792  20.425  0.00  0.00    +0.000 A 
ATOM     11  C   UNL     1       1.485   5.924  20.686  0.00  0.00    +0.000 A 
ATOM     12  C   UNL     1       1.890   7.105  20.041  0.00  0.00    +0.000 A 
ATOM     13  C   UNL     1       3.004   7.118  19.165  0.00  0.00    +0.000 A 
ATOM     14  C   UNL     1       3.716   5.942  18.928  0.00  0.00    +0.000 A 
ATOM     15  C   UNL     1       3.298   4.810  19.574  0.00  0.00    +0.000 A 
ENDROOT
BRANCH   3  16
ATOM     16  N   UNL     1       6.672   4.447  17.095  0.00  0.00    +0.000 N 
ATOM     17  H   UNL     1       7.368   3.774  17.435  0.00  0.00    +0.000 HD
BRANCH  16  18
ATOM     18  C   UNL     1       6.633   4.433  15.678  0.00  0.00    +0.000 A 
ATOM     19  C   UNL     1       7.580   5.084  14.876  0.00  0.00    +0.000 A 
ATOM     20  C   UNL     1       7.524   4.997  13.483  0.00  0.00    +0.000 A 
ATOM     21  C   UNL     1       6.518   4.258  12.871  0.00  0.00    +0.000 A 
ATOM     22  C   UNL     1       5.561   3.616  13.651  0.00  0.00    +0.000 A 
ATOM     23  C   UNL     1       5.617   3.703  15.045  0.00  0.00    +0.000 A 
ENDBRANCH  16  18
ENDBRANCH   3  16
TORSDOF 2
ENDMDL
MODEL 8
REMARK VINA RESULT:      -7.8      3.031      7.184
REMARK  Name = 
REMARK  2 active torsions:
REMARK  status: ('A' for Active; 'I' for Inactive)
REMARK    1  A    between atoms: C_3  and  N_4
REMARK    2  A    between atoms: N_4  and  C_5
REMARK                            x       y       z     vdW  Elec       q    Type
REMARK                         _______ _______ _______ _____ _____    ______ ____
ROOT
ATOM      1  O   UNL     1       3.143   8.224  17.771  0.00  0.00    +0.000 OA
ATOM      2  C   UNL     1       2.796   7.321  18.525  0.00  0.00    +0.000 C 
ATOM      3  C   UNL     1       1.898   7.594  19.720  0.00  0.00    +0.000 C 
ATOM      4  C   UNL     1       1.585   6.611  20.587  0.00  0.00    +0.000 C 
ATOM      5  C   UNL     1       2.035   5.228  20.383  0.00  0.00    +0.000 C 
ATOM      6  N   UNL     1       1.785   4.201  21.131  0.00  0.00    +0.000 NA
ATOM      7  S   UNL     1       2.502   2.853  20.485  0.00  0.00    +0.000 S 
ATOM      8  O   UNL     1       3.606   2.428  21.317  0.00  0.00    +0.000 OA
ATOM      9  O   UNL     1       1.497   1.949  19.976  0.00  0.00    +0.000 OA
ATOM     10  C   UNL     1       3.195   3.668  19.109  0.00  0.00    +0.000 A 
ATOM     11  C   UNL     1       3.982   3.203  18.081  0.00  0.00    +0.000 A 
ATOM     12  C   UNL     1       4.400   4.148  17.128  0.00  0.00    +0.000 A 
ATOM     13  C   UNL     1       4.027   5.510  17.232  0.00  0.00    +0.000 A 
ATOM     14  C   UNL     1       3.232   5.934  18.298  0.00  0.00    +0.000 A 
ATOM     15  C   UNL     1       2.839   4.989  19.206  0.00  0.00    +0.000 A 
ENDROOT
BRANCH   3  16
ATOM     16  N   UNL     1       1.481   8.915  19.840  0.00  0.00    +0.000 N 
ATOM     17  H   UNL     1       1.127   9.274  18.947  0.00  0.00    +0.000 HD
BRANCH  16  18
ATOM     18  C   UNL     1       0.705   9.424  20.912  0.00  0.00    +0.000 A 
ATOM     19  C   UNL     1       0.814   8.961  22.230  0.00  0.00    +0.000 A 
ATOM     20  C   UNL     1       0.061   9.532  23.259  0.00  0.00    +0.000 A 
ATOM     21  C   UNL     1      -0.814  10.577  22.983  0.00  0.00    +0.000 A 
ATOM     22  C   UNL     1      -0.945  11.043  21.679  0.00  0.00    +0.000 A 
ATOM     23  C   UNL     1      -0.191  10.470  20.649  0.00  0.00    +0.000 A 
ENDBRANCH  16  18
ENDBRANCH   3  16
TORSDOF 2
ENDMDL
MODEL 9
REMARK VINA RESULT:      -7.7      1.067      1.609
REMARK  Name = 
REMARK  2 active torsions:
REMARK  status: ('A' for Active; 'I' for Inactive)
REMARK    1  A    between atoms: C_3  and  N_4
REMARK    2  A    between atoms: N_4  and  C_5
REMARK                            x       y       z     vdW  Elec       q    Type
REMARK                         _______ _______ _______ _____ _____    ______ ____
ROOT
ATOM      1  O   UNL     1       5.208   6.983  15.592  0.00  0.00    +0.000 OA
ATOM      2  C   UNL     1       4.915   5.959  16.200  0.00  0.00    +0.000 C 
ATOM      3  C   UNL     1       5.474   4.609  15.785  0.00  0.00    +0.000 C 
ATOM      4  C   UNL     1       5.086   3.479  16.409  0.00  0.00    +0.000 C 
ATOM      5  C   UNL     1       4.167   3.506  17.554  0.00  0.00    +0.000 C 
ATOM      6  N   UNL     1       3.738   2.496  18.243  0.00  0.00    +0.000 NA
ATOM      7  S   UNL     1       2.727   3.029  19.443  0.00  0.00    +0.000 S 
ATOM      8  O   UNL     1       1.364   2.637  19.157  0.00  0.00    +0.000 OA
ATOM      9  O   UNL     1       3.349   2.855  20.734  0.00  0.00    +0.000 OA
ATOM     10  C   UNL     1       2.856   4.720  19.041  0.00  0.00    +0.000 A 
ATOM     11  C   UNL     1       2.265   5.832  19.594  0.00  0.00    +0.000 A 
ATOM     12  C   UNL     1       2.570   7.071  19.004  0.00  0.00    +0.000 A 
ATOM     13  C   UNL     1       3.442   7.158  17.891  0.00  0.00    +0.000 A 
ATOM     14  C   UNL     1       4.012   5.999  17.361  0.00  0.00    +0.000 A 
ATOM     15  C   UNL     1       3.698   4.811  17.961  0.00  0.00    +0.000 A 
ENDROOT
BRANCH   3  16
ATOM     16  N   UNL     1       6.362   4.654  14.715  0.00  0.00    +0.000 N 
ATOM     17  H   UNL     1       7.330   4.530  15.033  0.00  0.00    +0.000 HD
BRANCH  16  18
ATOM     18  C   UNL     1       6.169   3.998  13.474  0.00  0.00    +0.000 A 
ATOM     19  C   UNL     1       7.221   3.500  12.694  0.00  0.00    +0.000 A 
ATOM     20  C   UNL     1       6.972   2.816  11.501  0.00  0.00    +0.000 A 
ATOM     21  C   UNL     1       5.665   2.621  11.071  0.00  0.00    +0.000 A 
ATOM     22  C   UNL     1       4.607   3.119  11.825  0.00  0.00    +0.000 A 
ATOM     23  C   UNL     1       4.857   3.803  13.019  0.00  0.00    +0.000 A 
ENDBRANCH  16  18
ENDBRANCH   3  16
TORSDOF 2
ENDMDL
