MODEL 1
REMARK VINA RESULT:      -7.2      0.000      0.000
REMARK  Name = 
REMARK  7 active torsions:
REMARK  status: ('A' for Active; 'I' for Inactive)
REMARK    1  A    between atoms: C_1  and  C_2
REMARK    2  A    between atoms: C_2  and  N_3
REMARK    3  A    between atoms: N_6  and  C_7
REMARK    4  A    between atoms: C_11  and  C_12
REMARK    5  A    between atoms: N_14  and  C_15
REMARK    6  A    between atoms: N_19  and  C_20
REMARK    7  A    between atoms: C_28  and  C_29
REMARK                            x       y       z     vdW  Elec       q    Type
REMARK                         _______ _______ _______ _____ _____    ______ ____
ROOT
ATOM      1  N   UNL     1       0.639  10.730  18.728  0.00  0.00    +0.000 N 
ATOM      2  C   UNL     1       1.574  11.751  18.579  0.00  0.00    +0.000 C 
ATOM      3  O   UNL     1       2.606  11.516  17.942  0.00  0.00    +0.000 OA
ATOM      4  N   UNL     1       1.380  12.885  19.353  0.00  0.00    +0.000 N 
ATOM      5  C   UNL     1       0.216  13.631  19.189  0.00  0.00    +0.000 C 
ATOM      6  O   UNL     1       0.190  14.801  18.795  0.00  0.00    +0.000 OA
ATOM      7  N   UNL     1      -0.930  13.008  19.661  0.00  0.00    +0.000 N 
ATOM      8  C   UNL     1      -1.496  11.976  18.892  0.00  0.00    +0.000 A 
ATOM      9  C   UNL     1      -2.852  12.089  18.545  0.00  0.00    +0.000 A 
ATOM     10  C   UNL     1      -3.482  11.110  17.770  0.00  0.00    +0.000 A 
ATOM     11  C   UNL     1      -2.746   9.979  17.398  0.00  0.00    +0.000 A 
ATOM     12  C   UNL     1      -1.399   9.854  17.760  0.00  0.00    +0.000 A 
ATOM     13  C   UNL     1      -0.748  10.870  18.476  0.00  0.00    +0.000 A 
ENDROOT
BRANCH   4  14
ATOM     14  C   UNL     1       2.525  13.673  19.642  0.00  0.00    +0.000 A 
ATOM     15  C   UNL     1       3.154  14.299  18.552  0.00  0.00    +0.000 A 
ATOM     16  C   UNL     1       4.311  15.043  18.746  0.00  0.00    +0.000 A 
ATOM     17  C   UNL     1       4.865  15.136  20.023  0.00  0.00    +0.000 A 
ATOM     18  C   UNL     1       4.261  14.489  21.110  0.00  0.00    +0.000 A 
ATOM     19  C   UNL     1       3.067  13.784  20.924  0.00  0.00    +0.000 A 
BRANCH  18  20
ATOM     20  C   UNL     1       4.935  14.546  22.435  0.00  0.00    +0.000 C 
ATOM     21  O   UNL     1       4.267  14.633  23.459  0.00  0.00    +0.000 OA
ATOM     22  N   UNL     1       6.315  14.548  22.414  0.00  0.00    +0.000 N 
ATOM     23  C   UNL     1       7.104  14.684  23.612  0.00  0.00    +0.000 C 
ATOM     24  H   UNL     1       6.804  14.598  21.531  0.00  0.00    +0.000 HD
ENDBRANCH  18  20
ENDBRANCH   4  14
BRANCH   7  25
ATOM     25  C   UNL     1      -1.322  13.165  21.036  0.00  0.00    +0.000 A 
ATOM     26  C   UNL     1      -1.689  12.039  21.792  0.00  0.00    +0.000 A 
ATOM     27  C   UNL     1      -2.153  12.164  23.106  0.00  0.00    +0.000 A 
ATOM     28  C   UNL     1      -2.252  13.420  23.693  0.00  0.00    +0.000 A 
ATOM     29  C   UNL     1      -1.882  14.549  22.970  0.00  0.00    +0.000 A 
ATOM     30  C   UNL     1      -1.420  14.423  21.655  0.00  0.00    +0.000 A 
ENDBRANCH   7  25
BRANCH  10  31
ATOM     31  C   UNL     1      -4.910  11.290  17.314  0.00  0.00    +0.000 C 
ATOM     32  F   UNL     1      -5.105  10.962  16.007  0.00  0.00    +0.000 F 
ATOM     33  F   UNL     1      -5.779  10.524  18.026  0.00  0.00    +0.000 F 
ATOM     34  F   UNL     1      -5.340  12.574  17.446  0.00  0.00    +0.000 F 
ENDBRANCH  10  31
BRANCH   1  36
ATOM     35  C   UNL     1       0.694   9.726  20.981  0.00  0.00    +0.000 C 
ATOM     36  C   UNL     1       1.102   9.586  19.514  0.00  0.00    +0.000 C 
ENDBRANCH   1  36
TORSDOF 5
ENDMDL
MODEL 2
REMARK VINA RESULT:      -7.2      3.594      6.165
REMARK  Name = 
REMARK  7 active torsions:
REMARK  status: ('A' for Active; 'I' for Inactive)
REMARK    1  A    between atoms: C_1  and  C_2
REMARK    2  A    between atoms: C_2  and  N_3
REMARK    3  A    between atoms: N_6  and  C_7
REMARK    4  A    between atoms: C_11  and  C_12
REMARK    5  A    between atoms: N_14  and  C_15
REMARK    6  A    between atoms: N_19  and  C_20
REMARK    7  A    between atoms: C_28  and  C_29
REMARK                            x       y       z     vdW  Elec       q    Type
REMARK                         _______ _______ _______ _____ _____    ______ ____
ROOT
ATOM      1  N   UNL     1       0.282  11.820  21.788  0.00  0.00    +0.000 N 
ATOM      2  C   UNL     1       0.700  13.045  21.274  0.00  0.00    +0.000 C 
ATOM      3  O   UNL     1       1.175  13.879  22.051  0.00  0.00    +0.000 OA
ATOM      4  N   UNL     1       0.340  13.321  19.963  0.00  0.00    +0.000 N 
ATOM      5  C   UNL     1       0.794  12.491  18.942  0.00  0.00    +0.000 C 
ATOM      6  O   UNL     1       1.542  12.855  18.030  0.00  0.00    +0.000 OA
ATOM      7  N   UNL     1       0.208  11.233  18.929  0.00  0.00    +0.000 N 
ATOM      8  C   UNL     1       0.635  10.285  19.875  0.00  0.00    +0.000 A 
ATOM      9  C   UNL     1       1.070   9.038  19.399  0.00  0.00    +0.000 A 
ATOM     10  C   UNL     1       1.523   8.049  20.278  0.00  0.00    +0.000 A 
ATOM     11  C   UNL     1       1.475   8.306  21.653  0.00  0.00    +0.000 A 
ATOM     12  C   UNL     1       1.023   9.542  22.132  0.00  0.00    +0.000 A 
ATOM     13  C   UNL     1       0.637  10.560  21.246  0.00  0.00    +0.000 A 
ENDROOT
BRANCH   4  14
ATOM     14  C   UNL     1       0.259  14.689  19.590  0.00  0.00    +0.000 A 
ATOM     15  C   UNL     1       1.476  15.377  19.442  0.00  0.00    +0.000 A 
ATOM     16  C   UNL     1       1.478  16.731  19.131  0.00  0.00    +0.000 A 
ATOM     17  C   UNL     1       0.267  17.412  19.003  0.00  0.00    +0.000 A 
ATOM     18  C   UNL     1      -0.950  16.739  19.181  0.00  0.00    +0.000 A 
ATOM     19  C   UNL     1      -0.953  15.365  19.441  0.00  0.00    +0.000 A 
BRANCH  18  20
ATOM     20  C   UNL     1      -2.212  17.525  19.120  0.00  0.00    +0.000 C 
ATOM     21  O   UNL     1      -2.219  18.631  18.590  0.00  0.00    +0.000 OA
ATOM     22  N   UNL     1      -3.310  16.957  19.730  0.00  0.00    +0.000 N 
ATOM     23  C   UNL     1      -4.578  17.637  19.825  0.00  0.00    +0.000 C 
ATOM     24  H   UNL     1      -3.207  16.099  20.255  0.00  0.00    +0.000 HD
ENDBRANCH  18  20
ENDBRANCH   4  14
BRANCH   7  25
ATOM     25  C   UNL     1      -1.023  11.019  18.216  0.00  0.00    +0.000 A 
ATOM     26  C   UNL     1      -2.142  11.823  18.492  0.00  0.00    +0.000 A 
ATOM     27  C   UNL     1      -3.376  11.589  17.877  0.00  0.00    +0.000 A 
ATOM     28  C   UNL     1      -3.514  10.548  16.966  0.00  0.00    +0.000 A 
ATOM     29  C   UNL     1      -2.418   9.747  16.665  0.00  0.00    +0.000 A 
ATOM     30  C   UNL     1      -1.184   9.980  17.283  0.00  0.00    +0.000 A 
ENDBRANCH   7  25
BRANCH  10  31
ATOM     31  C   UNL     1       2.086   6.751  19.752  0.00  0.00    +0.000 C 
ATOM     32  F   UNL     1       3.421   6.610  19.978  0.00  0.00    +0.000 F 
ATOM     33  F   UNL     1       1.494   5.665  20.318  0.00  0.00    +0.000 F 
ATOM     34  F   UNL     1       1.918   6.617  18.409  0.00  0.00    +0.000 F 
ENDBRANCH  10  31
BRANCH   1  36
ATOM     35  C   UNL     1      -2.134  12.285  21.973  0.00  0.00    +0.000 C 
ATOM     36  C   UNL     1      -0.851  11.899  22.710  0.00  0.00    +0.000 C 
ENDBRANCH   1  36
TORSDOF 5
ENDMDL
MODEL 3
REMARK VINA RESULT:      -7.1      3.698      6.269
REMARK  Name = 
REMARK  7 active torsions:
REMARK  status: ('A' for Active; 'I' for Inactive)
REMARK    1  A    between atoms: C_1  and  C_2
REMARK    2  A    between atoms: C_2  and  N_3
REMARK    3  A    between atoms: N_6  and  C_7
REMARK    4  A    between atoms: C_11  and  C_12
REMARK    5  A    between atoms: N_14  and  C_15
REMARK    6  A    between atoms: N_19  and  C_20
REMARK    7  A    between atoms: C_28  and  C_29
REMARK                            x       y       z     vdW  Elec       q    Type
REMARK                         _______ _______ _______ _____ _____    ______ ____
ROOT
ATOM      1  N   UNL     1      -0.022  11.762  21.977  0.00  0.00    +0.000 N 
ATOM      2  C   UNL     1       0.277  13.043  21.522  0.00  0.00    +0.000 C 
ATOM      3  O   UNL     1       0.710  13.870  22.332  0.00  0.00    +0.000 OA
ATOM      4  N   UNL     1      -0.151  13.361  20.242  0.00  0.00    +0.000 N 
ATOM      5  C   UNL     1       0.333  12.629  19.161  0.00  0.00    +0.000 C 
ATOM      6  O   UNL     1       1.016  13.105  18.249  0.00  0.00    +0.000 OA
ATOM      7  N   UNL     1      -0.149  11.330  19.092  0.00  0.00    +0.000 N 
ATOM      8  C   UNL     1       0.386  10.370  19.968  0.00  0.00    +0.000 A 
ATOM      9  C   UNL     1       0.904   9.191  19.407  0.00  0.00    +0.000 A 
ATOM     10  C   UNL     1       1.466   8.196  20.212  0.00  0.00    +0.000 A 
ATOM     11  C   UNL     1       1.447   8.372  21.601  0.00  0.00    +0.000 A 
ATOM     12  C   UNL     1       0.913   9.537  22.165  0.00  0.00    +0.000 A 
ATOM     13  C   UNL     1       0.415  10.568  21.352  0.00  0.00    +0.000 A 
ENDROOT
BRANCH   4  14
ATOM     14  C   UNL     1      -0.355  14.736  19.952  0.00  0.00    +0.000 A 
ATOM     15  C   UNL     1       0.774  15.474  19.554  0.00  0.00    +0.000 A 
ATOM     16  C   UNL     1       0.665  16.836  19.305  0.00  0.00    +0.000 A 
ATOM     17  C   UNL     1      -0.562  17.475  19.486  0.00  0.00    +0.000 A 
ATOM     18  C   UNL     1      -1.684  16.752  19.913  0.00  0.00    +0.000 A 
ATOM     19  C   UNL     1      -1.588  15.371  20.113  0.00  0.00    +0.000 A 
BRANCH  18  20
ATOM     20  C   UNL     1      -2.949  17.492  20.176  0.00  0.00    +0.000 C 
ATOM     21  O   UNL     1      -3.069  18.152  21.201  0.00  0.00    +0.000 OA
ATOM     22  N   UNL     1      -3.948  17.336  19.238  0.00  0.00    +0.000 N 
ATOM     23  C   UNL     1      -5.255  17.923  19.399  0.00  0.00    +0.000 C 
ATOM     24  H   UNL     1      -3.827  16.681  18.478  0.00  0.00    +0.000 HD
ENDBRANCH  18  20
ENDBRANCH   4  14
BRANCH   7  25
ATOM     25  C   UNL     1      -1.383  11.054  18.407  0.00  0.00    +0.000 A 
ATOM     26  C   UNL     1      -1.405  10.131  17.348  0.00  0.00    +0.000 A 
ATOM     27  C   UNL     1      -2.569   9.900  16.607  0.00  0.00    +0.000 A 
ATOM     28  C   UNL     1      -3.739  10.584  16.917  0.00  0.00    +0.000 A 
ATOM     29  C   UNL     1      -3.747  11.492  17.970  0.00  0.00    +0.000 A 
ATOM     30  C   UNL     1      -2.581  11.725  18.708  0.00  0.00    +0.000 A 
ENDBRANCH   7  25
BRANCH  10  31
ATOM     31  C   UNL     1       2.114   6.980  19.595  0.00  0.00    +0.000 C 
ATOM     32  F   UNL     1       1.658   5.804  20.109  0.00  0.00    +0.000 F 
ATOM     33  F   UNL     1       1.901   6.909  18.253  0.00  0.00    +0.000 F 
ATOM     34  F   UNL     1       3.463   6.966  19.766  0.00  0.00    +0.000 F 
ENDBRANCH  10  31
BRANCH   1  36
ATOM     35  C   UNL     1      -2.415  12.249  22.332  0.00  0.00    +0.000 C 
ATOM     36  C   UNL     1      -1.124  11.695  22.937  0.00  0.00    +0.000 C 
ENDBRANCH   1  36
TORSDOF 5
ENDMDL
MODEL 4
REMARK VINA RESULT:      -7.1      3.015      4.090
REMARK  Name = 
REMARK  7 active torsions:
REMARK  status: ('A' for Active; 'I' for Inactive)
REMARK    1  A    between atoms: C_1  and  C_2
REMARK    2  A    between atoms: C_2  and  N_3
REMARK    3  A    between atoms: N_6  and  C_7
REMARK    4  A    between atoms: C_11  and  C_12
REMARK    5  A    between atoms: N_14  and  C_15
REMARK    6  A    between atoms: N_19  and  C_20
REMARK    7  A    between atoms: C_28  and  C_29
REMARK                            x       y       z     vdW  Elec       q    Type
REMARK                         _______ _______ _______ _____ _____    ______ ____
ROOT
ATOM      1  N   UNL     1      -0.040  11.659  20.870  0.00  0.00    +0.000 N 
ATOM      2  C   UNL     1       0.377  12.943  21.208  0.00  0.00    +0.000 C 
ATOM      3  O   UNL     1       1.581  13.140  21.401  0.00  0.00    +0.000 OA
ATOM      4  N   UNL     1      -0.620  13.854  21.527  0.00  0.00    +0.000 N 
ATOM      5  C   UNL     1      -1.575  14.182  20.569  0.00  0.00    +0.000 C 
ATOM      6  O   UNL     1      -1.725  15.311  20.095  0.00  0.00    +0.000 OA
ATOM      7  N   UNL     1      -2.475  13.163  20.292  0.00  0.00    +0.000 N 
ATOM      8  C   UNL     1      -2.049  12.093  19.485  0.00  0.00    +0.000 A 
ATOM      9  C   UNL     1      -2.816  11.784  18.351  0.00  0.00    +0.000 A 
ATOM     10  C   UNL     1      -2.448  10.744  17.492  0.00  0.00    +0.000 A 
ATOM     11  C   UNL     1      -1.327   9.972  17.822  0.00  0.00    +0.000 A 
ATOM     12  C   UNL     1      -0.571  10.265  18.963  0.00  0.00    +0.000 A 
ATOM     13  C   UNL     1      -0.899  11.355  19.785  0.00  0.00    +0.000 A 
ENDROOT
BRANCH   4  14
ATOM     14  C   UNL     1      -0.257  14.942  22.364  0.00  0.00    +0.000 A 
ATOM     15  C   UNL     1       0.672  15.859  21.842  0.00  0.00    +0.000 A 
ATOM     16  C   UNL     1       1.117  16.921  22.619  0.00  0.00    +0.000 A 
ATOM     17  C   UNL     1       0.666  17.051  23.933  0.00  0.00    +0.000 A 
ATOM     18  C   UNL     1      -0.236  16.122  24.471  0.00  0.00    +0.000 A 
ATOM     19  C   UNL     1      -0.725  15.084  23.671  0.00  0.00    +0.000 A 
BRANCH  18  20
ATOM     20  C   UNL     1      -0.622  16.253  25.902  0.00  0.00    +0.000 C 
ATOM     21  O   UNL     1      -1.627  15.690  26.319  0.00  0.00    +0.000 OA
ATOM     22  N   UNL     1       0.179  17.070  26.673  0.00  0.00    +0.000 N 
ATOM     23  C   UNL     1      -0.117  17.359  28.054  0.00  0.00    +0.000 C 
ATOM     24  H   UNL     1       0.921  17.601  26.240  0.00  0.00    +0.000 HD
ENDBRANCH  18  20
ENDBRANCH   4  14
BRANCH   7  25
ATOM     25  C   UNL     1      -3.673  13.025  21.077  0.00  0.00    +0.000 A 
ATOM     26  C   UNL     1      -4.929  13.056  20.449  0.00  0.00    +0.000 A 
ATOM     27  C   UNL     1      -6.114  13.007  21.190  0.00  0.00    +0.000 A 
ATOM     28  C   UNL     1      -6.066  12.917  22.576  0.00  0.00    +0.000 A 
ATOM     29  C   UNL     1      -4.835  12.871  23.220  0.00  0.00    +0.000 A 
ATOM     30  C   UNL     1      -3.649  12.923  22.479  0.00  0.00    +0.000 A 
ENDBRANCH   7  25
BRANCH  10  31
ATOM     31  C   UNL     1      -3.219  10.486  16.220  0.00  0.00    +0.000 C 
ATOM     32  F   UNL     1      -4.536  10.820  16.308  0.00  0.00    +0.000 F 
ATOM     33  F   UNL     1      -2.724  11.190  15.166  0.00  0.00    +0.000 F 
ATOM     34  F   UNL     1      -3.188   9.178  15.849  0.00  0.00    +0.000 F 
ENDBRANCH  10  31
BRANCH   1  36
ATOM     35  C   UNL     1      -0.976  10.695  22.940  0.00  0.00    +0.000 C 
ATOM     36  C   UNL     1       0.159  10.655  21.916  0.00  0.00    +0.000 C 
ENDBRANCH   1  36
TORSDOF 5
ENDMDL
MODEL 5
REMARK VINA RESULT:      -7.0      1.479      2.012
REMARK  Name = 
REMARK  7 active torsions:
REMARK  status: ('A' for Active; 'I' for Inactive)
REMARK    1  A    between atoms: C_1  and  C_2
REMARK    2  A    between atoms: C_2  and  N_3
REMARK    3  A    between atoms: N_6  and  C_7
REMARK    4  A    between atoms: C_11  and  C_12
REMARK    5  A    between atoms: N_14  and  C_15
REMARK    6  A    between atoms: N_19  and  C_20
REMARK    7  A    between atoms: C_28  and  C_29
REMARK                            x       y       z     vdW  Elec       q    Type
REMARK                         _______ _______ _______ _____ _____    ______ ____
ROOT
ATOM      1  N   UNL     1       0.632  10.758  18.714  0.00  0.00    +0.000 N 
ATOM      2  C   UNL     1       1.530  11.822  18.732  0.00  0.00    +0.000 C 
ATOM      3  O   UNL     1       2.621  11.681  18.170  0.00  0.00    +0.000 OA
ATOM      4  N   UNL     1       1.222  12.878  19.577  0.00  0.00    +0.000 N 
ATOM      5  C   UNL     1       0.044  13.592  19.373  0.00  0.00    +0.000 C 
ATOM      6  O   UNL     1      -0.000  14.789  19.076  0.00  0.00    +0.000 OA
ATOM      7  N   UNL     1      -1.109  12.889  19.690  0.00  0.00    +0.000 N 
ATOM      8  C   UNL     1      -1.562  11.906  18.793  0.00  0.00    +0.000 A 
ATOM      9  C   UNL     1      -2.888  11.998  18.339  0.00  0.00    +0.000 A 
ATOM     10  C   UNL     1      -3.407  11.067  17.434  0.00  0.00    +0.000 A 
ATOM     11  C   UNL     1      -2.593   9.999  17.036  0.00  0.00    +0.000 A 
ATOM     12  C   UNL     1      -1.277   9.893  17.503  0.00  0.00    +0.000 A 
ATOM     13  C   UNL     1      -0.734  10.869  18.354  0.00  0.00    +0.000 A 
ENDROOT
BRANCH   4  14
ATOM     14  C   UNL     1       2.303  13.680  20.028  0.00  0.00    +0.000 A 
ATOM     15  C   UNL     1       2.247  14.125  21.361  0.00  0.00    +0.000 A 
ATOM     16  C   UNL     1       3.239  14.958  21.861  0.00  0.00    +0.000 A 
ATOM     17  C   UNL     1       4.272  15.381  21.024  0.00  0.00    +0.000 A 
ATOM     18  C   UNL     1       4.317  14.967  19.685  0.00  0.00    +0.000 A 
ATOM     19  C   UNL     1       3.348  14.085  19.196  0.00  0.00    +0.000 A 
BRANCH  18  20
ATOM     20  C   UNL     1       5.389  15.512  18.809  0.00  0.00    +0.000 C 
ATOM     21  O   UNL     1       5.623  14.984  17.727  0.00  0.00    +0.000 OA
ATOM     22  N   UNL     1       6.102  16.579  19.315  0.00  0.00    +0.000 N 
ATOM     23  C   UNL     1       7.223  17.158  18.618  0.00  0.00    +0.000 C 
ATOM     24  H   UNL     1       5.939  16.888  20.263  0.00  0.00    +0.000 HD
ENDBRANCH  18  20
ENDBRANCH   4  14
BRANCH   7  25
ATOM     25  C   UNL     1      -1.622  12.912  21.034  0.00  0.00    +0.000 A 
ATOM     26  C   UNL     1      -1.412  11.813  21.883  0.00  0.00    +0.000 A 
ATOM     27  C   UNL     1      -1.965  11.768  23.166  0.00  0.00    +0.000 A 
ATOM     28  C   UNL     1      -2.735  12.828  23.630  0.00  0.00    +0.000 A 
ATOM     29  C   UNL     1      -2.946  13.934  22.814  0.00  0.00    +0.000 A 
ATOM     30  C   UNL     1      -2.394  13.977  21.529  0.00  0.00    +0.000 A 
ENDBRANCH   7  25
BRANCH  10  31
ATOM     31  C   UNL     1      -4.798  11.232  16.871  0.00  0.00    +0.000 C 
ATOM     32  F   UNL     1      -5.762  10.639  17.627  0.00  0.00    +0.000 F 
ATOM     33  F   UNL     1      -5.158  12.540  16.764  0.00  0.00    +0.000 F 
ATOM     34  F   UNL     1      -4.920  10.703  15.625  0.00  0.00    +0.000 F 
ENDBRANCH  10  31
BRANCH   1  36
ATOM     35  C   UNL     1       0.606   9.605  20.895  0.00  0.00    +0.000 C 
ATOM     36  C   UNL     1       1.077   9.569  19.440  0.00  0.00    +0.000 C 
ENDBRANCH   1  36
TORSDOF 5
ENDMDL
MODEL 6
REMARK VINA RESULT:      -7.0      1.469      2.144
REMARK  Name = 
REMARK  7 active torsions:
REMARK  status: ('A' for Active; 'I' for Inactive)
REMARK    1  A    between atoms: C_1  and  C_2
REMARK    2  A    between atoms: C_2  and  N_3
REMARK    3  A    between atoms: N_6  and  C_7
REMARK    4  A    between atoms: C_11  and  C_12
REMARK    5  A    between atoms: N_14  and  C_15
REMARK    6  A    between atoms: N_19  and  C_20
REMARK    7  A    between atoms: C_28  and  C_29
REMARK                            x       y       z     vdW  Elec       q    Type
REMARK                         _______ _______ _______ _____ _____    ______ ____
ROOT
ATOM      1  N   UNL     1       0.620  10.814  18.829  0.00  0.00    +0.000 N 
ATOM      2  C   UNL     1       1.532  11.865  18.805  0.00  0.00    +0.000 C 
ATOM      3  O   UNL     1       2.628  11.681  18.266  0.00  0.00    +0.000 OA
ATOM      4  N   UNL     1       1.228  12.966  19.591  0.00  0.00    +0.000 N 
ATOM      5  C   UNL     1       0.063  13.685  19.335  0.00  0.00    +0.000 C 
ATOM      6  O   UNL     1       0.039  14.866  18.977  0.00  0.00    +0.000 OA
ATOM      7  N   UNL     1      -1.104  13.015  19.672  0.00  0.00    +0.000 N 
ATOM      8  C   UNL     1      -1.559  11.993  18.820  0.00  0.00    +0.000 A 
ATOM      9  C   UNL     1      -2.877  12.080  18.344  0.00  0.00    +0.000 A 
ATOM     10  C   UNL     1      -3.398  11.110  17.481  0.00  0.00    +0.000 A 
ATOM     11  C   UNL     1      -2.594  10.013  17.149  0.00  0.00    +0.000 A 
ATOM     12  C   UNL     1      -1.286   9.914  17.638  0.00  0.00    +0.000 A 
ATOM     13  C   UNL     1      -0.740  10.924  18.446  0.00  0.00    +0.000 A 
ENDROOT
BRANCH   4  14
ATOM     14  C   UNL     1       2.314  13.777  20.016  0.00  0.00    +0.000 A 
ATOM     15  C   UNL     1       2.261  14.266  21.333  0.00  0.00    +0.000 A 
ATOM     16  C   UNL     1       3.259  15.110  21.805  0.00  0.00    +0.000 A 
ATOM     17  C   UNL     1       4.294  15.497  20.954  0.00  0.00    +0.000 A 
ATOM     18  C   UNL     1       4.337  15.038  19.630  0.00  0.00    +0.000 A 
ATOM     19  C   UNL     1       3.362  14.146  19.171  0.00  0.00    +0.000 A 
BRANCH  18  20
ATOM     20  C   UNL     1       5.413  15.546  18.736  0.00  0.00    +0.000 C 
ATOM     21  O   UNL     1       5.593  15.029  17.640  0.00  0.00    +0.000 OA
ATOM     22  N   UNL     1       6.191  16.566  19.243  0.00  0.00    +0.000 N 
ATOM     23  C   UNL     1       7.321  17.102  18.528  0.00  0.00    +0.000 C 
ATOM     24  H   UNL     1       6.068  16.864  20.201  0.00  0.00    +0.000 HD
ENDBRANCH  18  20
ENDBRANCH   4  14
BRANCH   7  25
ATOM     25  C   UNL     1      -1.633  13.114  21.006  0.00  0.00    +0.000 A 
ATOM     26  C   UNL     1      -1.881  14.376  21.570  0.00  0.00    +0.000 A 
ATOM     27  C   UNL     1      -2.317  14.511  22.891  0.00  0.00    +0.000 A 
ATOM     28  C   UNL     1      -2.523  13.381  23.675  0.00  0.00    +0.000 A 
ATOM     29  C   UNL     1      -2.299  12.119  23.136  0.00  0.00    +0.000 A 
ATOM     30  C   UNL     1      -1.860  11.986  21.814  0.00  0.00    +0.000 A 
ENDBRANCH   7  25
BRANCH  10  31
ATOM     31  C   UNL     1      -4.779  11.265  16.891  0.00  0.00    +0.000 C 
ATOM     32  F   UNL     1      -5.168  12.563  16.760  0.00  0.00    +0.000 F 
ATOM     33  F   UNL     1      -4.873  10.719  15.649  0.00  0.00    +0.000 F 
ATOM     34  F   UNL     1      -5.737  10.661  17.644  0.00  0.00    +0.000 F 
ENDBRANCH  10  31
BRANCH   1  36
ATOM     35  C   UNL     1       0.741   9.871  21.106  0.00  0.00    +0.000 C 
ATOM     36  C   UNL     1       1.039   9.657  19.621  0.00  0.00    +0.000 C 
ENDBRANCH   1  36
TORSDOF 5
ENDMDL
MODEL 7
REMARK VINA RESULT:      -7.0      3.822      5.922
REMARK  Name = 
REMARK  7 active torsions:
REMARK  status: ('A' for Active; 'I' for Inactive)
REMARK    1  A    between atoms: C_1  and  C_2
REMARK    2  A    between atoms: C_2  and  N_3
REMARK    3  A    between atoms: N_6  and  C_7
REMARK    4  A    between atoms: C_11  and  C_12
REMARK    5  A    between atoms: N_14  and  C_15
REMARK    6  A    between atoms: N_19  and  C_20
REMARK    7  A    between atoms: C_28  and  C_29
REMARK                            x       y       z     vdW  Elec       q    Type
REMARK                         _______ _______ _______ _____ _____    ______ ____
ROOT
ATOM      1  N   UNL     1      -0.212  11.658  22.030  0.00  0.00    +0.000 N 
ATOM      2  C   UNL     1       0.017  12.962  21.599  0.00  0.00    +0.000 C 
ATOM      3  O   UNL     1       0.412  13.793  22.422  0.00  0.00    +0.000 OA
ATOM      4  N   UNL     1      -0.436  13.282  20.327  0.00  0.00    +0.000 N 
ATOM      5  C   UNL     1       0.078  12.597  19.229  0.00  0.00    +0.000 C 
ATOM      6  O   UNL     1       0.729  13.126  18.322  0.00  0.00    +0.000 OA
ATOM      7  N   UNL     1      -0.336  11.276  19.137  0.00  0.00    +0.000 N 
ATOM      8  C   UNL     1       0.255  10.328  19.991  0.00  0.00    +0.000 A 
ATOM      9  C   UNL     1       0.829   9.190  19.404  0.00  0.00    +0.000 A 
ATOM     10  C   UNL     1       1.449   8.210  20.185  0.00  0.00    +0.000 A 
ATOM     11  C   UNL     1       1.430   8.357  21.578  0.00  0.00    +0.000 A 
ATOM     12  C   UNL     1       0.840   9.482  22.167  0.00  0.00    +0.000 A 
ATOM     13  C   UNL     1       0.283  10.500  21.378  0.00  0.00    +0.000 A 
ENDROOT
BRANCH   4  14
ATOM     14  C   UNL     1      -0.714  14.649  20.066  0.00  0.00    +0.000 A 
ATOM     15  C   UNL     1      -1.884  15.178  20.639  0.00  0.00    +0.000 A 
ATOM     16  C   UNL     1      -2.253  16.493  20.386  0.00  0.00    +0.000 A 
ATOM     17  C   UNL     1      -1.477  17.274  19.531  0.00  0.00    +0.000 A 
ATOM     18  C   UNL     1      -0.326  16.744  18.930  0.00  0.00    +0.000 A 
ATOM     19  C   UNL     1       0.074  15.438  19.227  0.00  0.00    +0.000 A 
BRANCH  18  20
ATOM     20  C   UNL     1       0.421  17.588  17.958  0.00  0.00    +0.000 C 
ATOM     21  O   UNL     1      -0.081  18.624  17.535  0.00  0.00    +0.000 OA
ATOM     22  N   UNL     1       1.646  17.103  17.550  0.00  0.00    +0.000 N 
ATOM     23  C   UNL     1       2.445  17.768  16.551  0.00  0.00    +0.000 C 
ATOM     24  H   UNL     1       1.946  16.184  17.844  0.00  0.00    +0.000 HD
ENDBRANCH  18  20
ENDBRANCH   4  14
BRANCH   7  25
ATOM     25  C   UNL     1      -1.559  10.949  18.454  0.00  0.00    +0.000 A 
ATOM     26  C   UNL     1      -1.538  10.055  17.370  0.00  0.00    +0.000 A 
ATOM     27  C   UNL     1      -2.694   9.779  16.632  0.00  0.00    +0.000 A 
ATOM     28  C   UNL     1      -3.897  10.386  16.969  0.00  0.00    +0.000 A 
ATOM     29  C   UNL     1      -3.947  11.264  18.047  0.00  0.00    +0.000 A 
ATOM     30  C   UNL     1      -2.790  11.542  18.783  0.00  0.00    +0.000 A 
ENDBRANCH   7  25
BRANCH  10  31
ATOM     31  C   UNL     1       2.155   7.042  19.539  0.00  0.00    +0.000 C 
ATOM     32  F   UNL     1       1.727   5.832  19.994  0.00  0.00    +0.000 F 
ATOM     33  F   UNL     1       1.982   7.017  18.190  0.00  0.00    +0.000 F 
ATOM     34  F   UNL     1       3.499   7.067  19.749  0.00  0.00    +0.000 F 
ENDBRANCH  10  31
BRANCH   1  36
ATOM     35  C   UNL     1      -2.606  12.089  22.440  0.00  0.00    +0.000 C 
ATOM     36  C   UNL     1      -1.302  11.514  22.994  0.00  0.00    +0.000 C 
ENDBRANCH   1  36
TORSDOF 5
ENDMDL
MODEL 8
REMARK VINA RESULT:      -6.9      3.028      4.029
REMARK  Name = 
REMARK  7 active torsions:
REMARK  status: ('A' for Active; 'I' for Inactive)
REMARK    1  A    between atoms: C_1  and  C_2
REMARK    2  A    between atoms: C_2  and  N_3
REMARK    3  A    between atoms: N_6  and  C_7
REMARK    4  A    between atoms: C_11  and  C_12
REMARK    5  A    between atoms: N_14  and  C_15
REMARK    6  A    between atoms: N_19  and  C_20
REMARK    7  A    between atoms: C_28  and  C_29
REMARK                            x       y       z     vdW  Elec       q    Type
REMARK                         _______ _______ _______ _____ _____    ______ ____
ROOT
ATOM      1  N   UNL     1      -0.082  11.653  20.906  0.00  0.00    +0.000 N 
ATOM      2  C   UNL     1       0.386  12.925  21.225  0.00  0.00    +0.000 C 
ATOM      3  O   UNL     1       1.593  13.071  21.442  0.00  0.00    +0.000 OA
ATOM      4  N   UNL     1      -0.574  13.887  21.499  0.00  0.00    +0.000 N 
ATOM      5  C   UNL     1      -1.492  14.235  20.511  0.00  0.00    +0.000 C 
ATOM      6  O   UNL     1      -1.578  15.359  20.007  0.00  0.00    +0.000 OA
ATOM      7  N   UNL     1      -2.431  13.252  20.236  0.00  0.00    +0.000 N 
ATOM      8  C   UNL     1      -2.036  12.145  19.464  0.00  0.00    +0.000 A 
ATOM      9  C   UNL     1      -2.791  11.845  18.319  0.00  0.00    +0.000 A 
ATOM     10  C   UNL     1      -2.453  10.768  17.493  0.00  0.00    +0.000 A 
ATOM     11  C   UNL     1      -1.376   9.954  17.867  0.00  0.00    +0.000 A 
ATOM     12  C   UNL     1      -0.634  10.240  19.019  0.00  0.00    +0.000 A 
ATOM     13  C   UNL     1      -0.930  11.363  19.808  0.00  0.00    +0.000 A 
ENDROOT
BRANCH   4  14
ATOM     14  C   UNL     1      -0.181  14.977  22.319  0.00  0.00    +0.000 A 
ATOM     15  C   UNL     1       0.871  15.780  21.842  0.00  0.00    +0.000 A 
ATOM     16  C   UNL     1       1.348  16.834  22.612  0.00  0.00    +0.000 A 
ATOM     17  C   UNL     1       0.805  17.067  23.874  0.00  0.00    +0.000 A 
ATOM     18  C   UNL     1      -0.222  16.251  24.370  0.00  0.00    +0.000 A 
ATOM     19  C   UNL     1      -0.740  15.225  23.574  0.00  0.00    +0.000 A 
BRANCH  18  20
ATOM     20  C   UNL     1      -0.710  16.486  25.756  0.00  0.00    +0.000 C 
ATOM     21  O   UNL     1      -1.883  16.266  26.037  0.00  0.00    +0.000 OA
ATOM     22  N   UNL     1       0.211  17.000  26.644  0.00  0.00    +0.000 N 
ATOM     23  C   UNL     1      -0.137  17.358  27.996  0.00  0.00    +0.000 C 
ATOM     24  H   UNL     1       1.127  17.274  26.317  0.00  0.00    +0.000 HD
ENDBRANCH  18  20
ENDBRANCH   4  14
BRANCH   7  25
ATOM     25  C   UNL     1      -3.651  13.188  20.995  0.00  0.00    +0.000 A 
ATOM     26  C   UNL     1      -3.601  13.034  22.390  0.00  0.00    +0.000 A 
ATOM     27  C   UNL     1      -4.766  12.886  23.149  0.00  0.00    +0.000 A 
ATOM     28  C   UNL     1      -6.009  12.897  22.526  0.00  0.00    +0.000 A 
ATOM     29  C   UNL     1      -6.087  13.062  21.148  0.00  0.00    +0.000 A 
ATOM     30  C   UNL     1      -4.920  13.208  20.389  0.00  0.00    +0.000 A 
ENDBRANCH   7  25
BRANCH  10  31
ATOM     31  C   UNL     1      -3.205  10.516  16.209  0.00  0.00    +0.000 C 
ATOM     32  F   UNL     1      -2.746  11.251  15.159  0.00  0.00    +0.000 F 
ATOM     33  F   UNL     1      -3.132   9.215  15.816  0.00  0.00    +0.000 F 
ATOM     34  F   UNL     1      -4.530  10.805  16.317  0.00  0.00    +0.000 F 
ENDBRANCH  10  31
BRANCH   1  36
ATOM     35  C   UNL     1      -1.096  10.798  22.986  0.00  0.00    +0.000 C 
ATOM     36  C   UNL     1       0.047  10.666  21.979  0.00  0.00    +0.000 C 
ENDBRANCH   1  36
TORSDOF 5
ENDMDL
MODEL 9
REMARK VINA RESULT:      -6.9      2.482      3.415
REMARK  Name = 
REMARK  7 active torsions:
REMARK  status: ('A' for Active; 'I' for Inactive)
REMARK    1  A    between atoms: C_1  and  C_2
REMARK    2  A    between atoms: C_2  and  N_3
REMARK    3  A    between atoms: N_6  and  C_7
REMARK    4  A    between atoms: C_11  and  C_12
REMARK    5  A    between atoms: N_14  and  C_15
REMARK    6  A    between atoms: N_19  and  C_20
REMARK    7  A    between atoms: C_28  and  C_29
REMARK                            x       y       z     vdW  Elec       q    Type
REMARK                         _______ _______ _______ _____ _____    ______ ____
ROOT
ATOM      1  N   UNL     1       0.121  11.520  20.776  0.00  0.00    +0.000 N 
ATOM      2  C   UNL     1       0.591  12.786  21.115  0.00  0.00    +0.000 C 
ATOM      3  O   UNL     1       1.804  12.935  21.293  0.00  0.00    +0.000 OA
ATOM      4  N   UNL     1      -0.365  13.732  21.451  0.00  0.00    +0.000 N 
ATOM      5  C   UNL     1      -1.320  14.101  20.506  0.00  0.00    +0.000 C 
ATOM      6  O   UNL     1      -1.432  15.238  20.038  0.00  0.00    +0.000 OA
ATOM      7  N   UNL     1      -2.262  13.119  20.236  0.00  0.00    +0.000 N 
ATOM      8  C   UNL     1      -1.887  12.037  19.419  0.00  0.00    +0.000 A 
ATOM      9  C   UNL     1      -2.680  11.764  18.293  0.00  0.00    +0.000 A 
ATOM     10  C   UNL     1      -2.363  10.714  17.425  0.00  0.00    +0.000 A 
ATOM     11  C   UNL     1      -1.268   9.899  17.737  0.00  0.00    +0.000 A 
ATOM     12  C   UNL     1      -0.487  10.157  18.870  0.00  0.00    +0.000 A 
ATOM     13  C   UNL     1      -0.763  11.254  19.701  0.00  0.00    +0.000 A 
ENDROOT
BRANCH   4  14
ATOM     14  C   UNL     1       0.049  14.802  22.287  0.00  0.00    +0.000 A 
ATOM     15  C   UNL     1      -0.788  15.119  23.371  0.00  0.00    +0.000 A 
ATOM     16  C   UNL     1      -0.478  16.187  24.204  0.00  0.00    +0.000 A 
ATOM     17  C   UNL     1       0.648  16.965  23.937  0.00  0.00    +0.000 A 
ATOM     18  C   UNL     1       1.470  16.674  22.839  0.00  0.00    +0.000 A 
ATOM     19  C   UNL     1       1.188  15.567  22.033  0.00  0.00    +0.000 A 
BRANCH  18  20
ATOM     20  C   UNL     1       2.611  17.584  22.545  0.00  0.00    +0.000 C 
ATOM     21  O   UNL     1       2.738  18.628  23.175  0.00  0.00    +0.000 OA
ATOM     22  N   UNL     1       3.443  17.200  21.514  0.00  0.00    +0.000 N 
ATOM     23  C   UNL     1       4.538  18.020  21.061  0.00  0.00    +0.000 C 
ATOM     24  H   UNL     1       3.211  16.390  20.956  0.00  0.00    +0.000 HD
ENDBRANCH  18  20
ENDBRANCH   4  14
BRANCH   7  25
ATOM     25  C   UNL     1      -3.453  13.023  21.035  0.00  0.00    +0.000 A 
ATOM     26  C   UNL     1      -4.710  13.251  20.450  0.00  0.00    +0.000 A 
ATOM     27  C   UNL     1      -5.881  13.246  21.215  0.00  0.00    +0.000 A 
ATOM     28  C   UNL     1      -5.819  13.005  22.582  0.00  0.00    +0.000 A 
ATOM     29  C   UNL     1      -4.589  12.762  23.183  0.00  0.00    +0.000 A 
ATOM     30  C   UNL     1      -3.417  12.770  22.418  0.00  0.00    +0.000 A 
ENDBRANCH   7  25
BRANCH  10  31
ATOM     31  C   UNL     1      -3.159  10.493  16.162  0.00  0.00    +0.000 C 
ATOM     32  F   UNL     1      -2.770  11.291  15.130  0.00  0.00    +0.000 F 
ATOM     33  F   UNL     1      -3.056   9.215  15.706  0.00  0.00    +0.000 F 
ATOM     34  F   UNL     1      -4.487  10.726  16.337  0.00  0.00    +0.000 F 
ENDBRANCH  10  31
BRANCH   1  36
ATOM     35  C   UNL     1      -0.790  10.622  22.886  0.00  0.00    +0.000 C 
ATOM     36  C   UNL     1       0.295  10.504  21.815  0.00  0.00    +0.000 C 
ENDBRANCH   1  36
TORSDOF 5
ENDMDL
