MODEL 1
REMARK VINA RESULT:      -7.3      0.000      0.000
REMARK  Name = 
REMARK  5 active torsions:
REMARK  status: ('A' for Active; 'I' for Inactive)
REMARK    1  A    between atoms: C_2  and  C_3
REMARK    2  A    between atoms: C_2  and  C_18
REMARK    3  A    between atoms: C_6  and  O_7
REMARK    4  A    between atoms: O_7  and  C_8
REMARK    5  A    between atoms: C_8  and  C_9
REMARK                            x       y       z     vdW  Elec       q    Type
REMARK                         _______ _______ _______ _____ _____    ______ ____
ROOT
ATOM      1  C   UNL     1       5.584   5.213  15.601  0.00  0.00    +0.000 A 
ATOM      2  C   UNL     1       4.925   4.295  16.424  0.00  0.00    +0.000 A 
ATOM      3  C   UNL     1       4.035   4.743  17.399  0.00  0.00    +0.000 A 
ATOM      4  C   UNL     1       3.815   6.109  17.582  0.00  0.00    +0.000 A 
ATOM      5  C   UNL     1       4.430   7.024  16.726  0.00  0.00    +0.000 A 
ATOM      6  C   UNL     1       5.313   6.579  15.734  0.00  0.00    +0.000 A 
ENDROOT
BRANCH   1   8
ATOM      7  O   UNL     1       7.651   5.311  14.458  0.00  0.00    +0.000 OA
ATOM      8  C   UNL     1       6.570   4.750  14.590  0.00  0.00    +0.000 C 
BRANCH   8   9
ATOM      9  C   UNL     1       6.197   3.580  13.736  0.00  0.00    +0.000 C 
ATOM     10  C   UNL     1       5.108   3.748  12.701  0.00  0.00    +0.000 C 
ATOM     11  C   UNL     1       6.527   3.530  12.265  0.00  0.00    +0.000 C 
ENDBRANCH   8   9
ENDBRANCH   1   8
BRANCH   4  12
ATOM     12  O   UNL     1       3.029   6.641  18.574  0.00  0.00    +0.000 OA
BRANCH  12  13
ATOM     13  C   UNL     1       2.392   7.874  18.218  0.00  0.00    +0.000 C 
BRANCH  13  14
ATOM     14  C   UNL     1       1.616   8.466  19.369  0.00  0.00    +0.000 A 
ATOM     15  C   UNL     1       1.615   7.881  20.643  0.00  0.00    +0.000 A 
ATOM     16  C   UNL     1       0.909   8.481  21.689  0.00  0.00    +0.000 A 
ATOM     17  C   UNL     1       0.219   9.669  21.471  0.00  0.00    +0.000 A 
ATOM     18 BR   UNL     1      -0.741  10.478  22.885  0.00  0.00    +0.000 Br
ATOM     19  C   UNL     1       0.228  10.276  20.215  0.00  0.00    +0.000 A 
ATOM     20  C   UNL     1       0.931   9.675  19.173  0.00  0.00    +0.000 A 
ENDBRANCH  13  14
ENDBRANCH  12  13
ENDBRANCH   4  12
TORSDOF 5
ENDMDL
MODEL 2
REMARK VINA RESULT:      -7.3      1.187      1.735
REMARK  Name = 
REMARK  5 active torsions:
REMARK  status: ('A' for Active; 'I' for Inactive)
REMARK    1  A    between atoms: C_2  and  C_3
REMARK    2  A    between atoms: C_2  and  C_18
REMARK    3  A    between atoms: C_6  and  O_7
REMARK    4  A    between atoms: O_7  and  C_8
REMARK    5  A    between atoms: C_8  and  C_9
REMARK                            x       y       z     vdW  Elec       q    Type
REMARK                         _______ _______ _______ _____ _____    ______ ____
ROOT
ATOM      1  C   UNL     1       5.975   4.998  15.265  0.00  0.00    +0.000 A 
ATOM      2  C   UNL     1       5.919   4.066  16.305  0.00  0.00    +0.000 A 
ATOM      3  C   UNL     1       5.304   4.399  17.511  0.00  0.00    +0.000 A 
ATOM      4  C   UNL     1       4.767   5.674  17.702  0.00  0.00    +0.000 A 
ATOM      5  C   UNL     1       4.774   6.587  16.646  0.00  0.00    +0.000 A 
ATOM      6  C   UNL     1       5.376   6.251  15.427  0.00  0.00    +0.000 A 
ENDROOT
BRANCH   1   8
ATOM      7  O   UNL     1       7.569   5.380  13.561  0.00  0.00    +0.000 OA
ATOM      8  C   UNL     1       6.669   4.669  13.992  0.00  0.00    +0.000 C 
BRANCH   8   9
ATOM      9  C   UNL     1       6.230   3.445  13.254  0.00  0.00    +0.000 C 
ATOM     10  C   UNL     1       5.160   3.576  12.193  0.00  0.00    +0.000 C 
ATOM     11  C   UNL     1       6.566   3.228  11.800  0.00  0.00    +0.000 C 
ENDBRANCH   8   9
ENDBRANCH   1   8
BRANCH   4  12
ATOM     12  O   UNL     1       4.226   6.118  18.883  0.00  0.00    +0.000 OA
BRANCH  12  13
ATOM     13  C   UNL     1       2.796   6.071  18.927  0.00  0.00    +0.000 C 
BRANCH  13  14
ATOM     14  C   UNL     1       2.185   7.443  19.077  0.00  0.00    +0.000 A 
ATOM     15  C   UNL     1       2.064   8.324  17.993  0.00  0.00    +0.000 A 
ATOM     16  C   UNL     1       1.462   9.572  18.169  0.00  0.00    +0.000 A 
ATOM     17  C   UNL     1       0.968   9.936  19.418  0.00  0.00    +0.000 A 
ATOM     18 BR   UNL     1       0.158  11.628  19.658  0.00  0.00    +0.000 Br
ATOM     19  C   UNL     1       1.061   9.063  20.501  0.00  0.00    +0.000 A 
ATOM     20  C   UNL     1       1.664   7.819  20.324  0.00  0.00    +0.000 A 
ENDBRANCH  13  14
ENDBRANCH  12  13
ENDBRANCH   4  12
TORSDOF 5
ENDMDL
MODEL 3
REMARK VINA RESULT:      -7.2      3.581      4.373
REMARK  Name = 
REMARK  5 active torsions:
REMARK  status: ('A' for Active; 'I' for Inactive)
REMARK    1  A    between atoms: C_2  and  C_3
REMARK    2  A    between atoms: C_2  and  C_18
REMARK    3  A    between atoms: C_6  and  O_7
REMARK    4  A    between atoms: O_7  and  C_8
REMARK    5  A    between atoms: C_8  and  C_9
REMARK                            x       y       z     vdW  Elec       q    Type
REMARK                         _______ _______ _______ _____ _____    ______ ____
ROOT
ATOM      1  C   UNL     1       6.312   4.591  14.420  0.00  0.00    +0.000 A 
ATOM      2  C   UNL     1       7.172   4.104  15.408  0.00  0.00    +0.000 A 
ATOM      3  C   UNL     1       7.147   4.651  16.690  0.00  0.00    +0.000 A 
ATOM      4  C   UNL     1       6.287   5.709  16.991  0.00  0.00    +0.000 A 
ATOM      5  C   UNL     1       5.389   6.160  16.021  0.00  0.00    +0.000 A 
ATOM      6  C   UNL     1       5.399   5.602  14.737  0.00  0.00    +0.000 A 
ENDROOT
BRANCH   1   8
ATOM      7  O   UNL     1       7.214   4.422  12.242  0.00  0.00    +0.000 OA
ATOM      8  C   UNL     1       6.362   4.046  13.038  0.00  0.00    +0.000 C 
BRANCH   8   9
ATOM      9  C   UNL     1       5.337   3.029  12.651  0.00  0.00    +0.000 C 
ATOM     10  C   UNL     1       4.443   3.308  11.464  0.00  0.00    +0.000 C 
ATOM     11  C   UNL     1       5.463   2.210  11.391  0.00  0.00    +0.000 C 
ENDBRANCH   8   9
ENDBRANCH   1   8
BRANCH   4  12
ATOM     12  O   UNL     1       6.260   6.367  18.195  0.00  0.00    +0.000 OA
BRANCH  12  13
ATOM     13  C   UNL     1       6.071   5.510  19.327  0.00  0.00    +0.000 C 
BRANCH  13  14
ATOM     14  C   UNL     1       4.732   4.816  19.298  0.00  0.00    +0.000 A 
ATOM     15  C   UNL     1       3.526   5.530  19.262  0.00  0.00    +0.000 A 
ATOM     16  C   UNL     1       2.309   4.847  19.202  0.00  0.00    +0.000 A 
ATOM     17  C   UNL     1       2.293   3.455  19.165  0.00  0.00    +0.000 A 
ATOM     18 BR   UNL     1       0.646   2.530  19.091  0.00  0.00    +0.000 Br
ATOM     19  C   UNL     1       3.484   2.731  19.178  0.00  0.00    +0.000 A 
ATOM     20  C   UNL     1       4.696   3.414  19.240  0.00  0.00    +0.000 A 
ENDBRANCH  13  14
ENDBRANCH  12  13
ENDBRANCH   4  12
TORSDOF 5
ENDMDL
MODEL 4
REMARK VINA RESULT:      -7.1      3.626      4.372
REMARK  Name = 
REMARK  5 active torsions:
REMARK  status: ('A' for Active; 'I' for Inactive)
REMARK    1  A    between atoms: C_2  and  C_3
REMARK    2  A    between atoms: C_2  and  C_18
REMARK    3  A    between atoms: C_6  and  O_7
REMARK    4  A    between atoms: O_7  and  C_8
REMARK    5  A    between atoms: C_8  and  C_9
REMARK                            x       y       z     vdW  Elec       q    Type
REMARK                         _______ _______ _______ _____ _____    ______ ____
ROOT
ATOM      1  C   UNL     1       6.372   4.794  14.426  0.00  0.00    +0.000 A 
ATOM      2  C   UNL     1       5.332   5.672  14.742  0.00  0.00    +0.000 A 
ATOM      3  C   UNL     1       5.264   6.249  16.009  0.00  0.00    +0.000 A 
ATOM      4  C   UNL     1       6.215   5.933  16.982  0.00  0.00    +0.000 A 
ATOM      5  C   UNL     1       7.284   5.099  16.651  0.00  0.00    +0.000 A 
ATOM      6  C   UNL     1       7.366   4.531  15.374  0.00  0.00    +0.000 A 
ENDROOT
BRANCH   1   8
ATOM      7  O   UNL     1       7.315   4.411  12.292  0.00  0.00    +0.000 OA
ATOM      8  C   UNL     1       6.429   4.138  13.093  0.00  0.00    +0.000 C 
BRANCH   8   9
ATOM      9  C   UNL     1       5.369   3.138  12.762  0.00  0.00    +0.000 C 
ATOM     10  C   UNL     1       4.473   3.389  11.570  0.00  0.00    +0.000 C 
ATOM     11  C   UNL     1       5.457   2.257  11.541  0.00  0.00    +0.000 C 
ENDBRANCH   8   9
ENDBRANCH   1   8
BRANCH   4  12
ATOM     12  O   UNL     1       6.174   6.380  18.279  0.00  0.00    +0.000 OA
BRANCH  12  13
ATOM     13  C   UNL     1       6.082   5.337  19.256  0.00  0.00    +0.000 C 
BRANCH  13  14
ATOM     14  C   UNL     1       4.758   4.617  19.198  0.00  0.00    +0.000 A 
ATOM     15  C   UNL     1       4.675   3.226  19.055  0.00  0.00    +0.000 A 
ATOM     16  C   UNL     1       3.428   2.596  19.039  0.00  0.00    +0.000 A 
ATOM     17  C   UNL     1       2.266   3.349  19.180  0.00  0.00    +0.000 A 
ATOM     18 BR   UNL     1       0.578   2.498  19.152  0.00  0.00    +0.000 Br
ATOM     19  C   UNL     1       2.332   4.732  19.344  0.00  0.00    +0.000 A 
ATOM     20  C   UNL     1       3.577   5.358  19.358  0.00  0.00    +0.000 A 
ENDBRANCH  13  14
ENDBRANCH  12  13
ENDBRANCH   4  12
TORSDOF 5
ENDMDL
MODEL 5
REMARK VINA RESULT:      -7.0      5.859      6.942
REMARK  Name = 
REMARK  5 active torsions:
REMARK  status: ('A' for Active; 'I' for Inactive)
REMARK    1  A    between atoms: C_2  and  C_3
REMARK    2  A    between atoms: C_2  and  C_18
REMARK    3  A    between atoms: C_6  and  O_7
REMARK    4  A    between atoms: O_7  and  C_8
REMARK    5  A    between atoms: C_8  and  C_9
REMARK                            x       y       z     vdW  Elec       q    Type
REMARK                         _______ _______ _______ _____ _____    ______ ____
ROOT
ATOM      1  C   UNL     1       6.366   5.344  17.258  0.00  0.00    +0.000 A 
ATOM      2  C   UNL     1       7.301   5.108  18.270  0.00  0.00    +0.000 A 
ATOM      3  C   UNL     1       8.057   6.160  18.784  0.00  0.00    +0.000 A 
ATOM      4  C   UNL     1       7.909   7.452  18.274  0.00  0.00    +0.000 A 
ATOM      5  C   UNL     1       6.939   7.699  17.302  0.00  0.00    +0.000 A 
ATOM      6  C   UNL     1       6.165   6.649  16.794  0.00  0.00    +0.000 A 
ENDROOT
BRANCH   1   8
ATOM      7  O   UNL     1       4.589   3.785  17.230  0.00  0.00    +0.000 OA
ATOM      8  C   UNL     1       5.588   4.222  16.671  0.00  0.00    +0.000 C 
BRANCH   8   9
ATOM      9  C   UNL     1       6.065   3.643  15.378  0.00  0.00    +0.000 C 
ATOM     10  C   UNL     1       5.470   4.153  14.085  0.00  0.00    +0.000 C 
ATOM     11  C   UNL     1       6.906   4.439  14.411  0.00  0.00    +0.000 C 
ENDBRANCH   8   9
ENDBRANCH   1   8
BRANCH   4  12
ATOM     12  O   UNL     1       8.673   8.526  18.655  0.00  0.00    +0.000 OA
BRANCH  12  13
ATOM     13  C   UNL     1       8.227   9.780  18.125  0.00  0.00    +0.000 C 
BRANCH  13  14
ATOM     14  C   UNL     1       9.192  10.901  18.423  0.00  0.00    +0.000 A 
ATOM     15  C   UNL     1       9.218  12.080  17.666  0.00  0.00    +0.000 A 
ATOM     16  C   UNL     1      10.105  13.107  17.998  0.00  0.00    +0.000 A 
ATOM     17  C   UNL     1      10.956  12.965  19.091  0.00  0.00    +0.000 A 
ATOM     18 BR   UNL     1      12.162  14.351  19.536  0.00  0.00    +0.000 Br
ATOM     19  C   UNL     1      10.928  11.807  19.867  0.00  0.00    +0.000 A 
ATOM     20  C   UNL     1      10.043  10.784  19.533  0.00  0.00    +0.000 A 
ENDBRANCH  13  14
ENDBRANCH  12  13
ENDBRANCH   4  12
TORSDOF 5
ENDMDL
MODEL 6
REMARK VINA RESULT:      -6.9      4.298      5.921
REMARK  Name = 
REMARK  5 active torsions:
REMARK  status: ('A' for Active; 'I' for Inactive)
REMARK    1  A    between atoms: C_2  and  C_3
REMARK    2  A    between atoms: C_2  and  C_18
REMARK    3  A    between atoms: C_6  and  O_7
REMARK    4  A    between atoms: O_7  and  C_8
REMARK    5  A    between atoms: C_8  and  C_9
REMARK                            x       y       z     vdW  Elec       q    Type
REMARK                         _______ _______ _______ _____ _____    ______ ____
ROOT
ATOM      1  C   UNL     1       2.407   6.698  19.585  0.00  0.00    +0.000 A 
ATOM      2  C   UNL     1       2.615   7.092  18.261  0.00  0.00    +0.000 A 
ATOM      3  C   UNL     1       2.179   8.343  17.826  0.00  0.00    +0.000 A 
ATOM      4  C   UNL     1       1.506   9.200  18.699  0.00  0.00    +0.000 A 
ATOM      5  C   UNL     1       1.345   8.830  20.035  0.00  0.00    +0.000 A 
ATOM      6  C   UNL     1       1.795   7.582  20.481  0.00  0.00    +0.000 A 
ENDROOT
BRANCH   1   8
ATOM      7  O   UNL     1       3.895   4.864  19.696  0.00  0.00    +0.000 OA
ATOM      8  C   UNL     1       2.826   5.349  20.048  0.00  0.00    +0.000 C 
BRANCH   8   9
ATOM      9  C   UNL     1       1.899   4.602  20.953  0.00  0.00    +0.000 C 
ATOM     10  C   UNL     1       1.047   3.495  20.374  0.00  0.00    +0.000 C 
ATOM     11  C   UNL     1       2.148   3.165  21.338  0.00  0.00    +0.000 C 
ENDBRANCH   8   9
ENDBRANCH   1   8
BRANCH   4  12
ATOM     12  O   UNL     1       0.963  10.406  18.334  0.00  0.00    +0.000 OA
BRANCH  12  13
ATOM     13  C   UNL     1       0.137  11.005  19.340  0.00  0.00    +0.000 C 
BRANCH  13  14
ATOM     14  C   UNL     1      -1.307  11.096  18.912  0.00  0.00    +0.000 A 
ATOM     15  C   UNL     1      -1.855  10.224  17.961  0.00  0.00    +0.000 A 
ATOM     16  C   UNL     1      -3.206  10.321  17.618  0.00  0.00    +0.000 A 
ATOM     17  C   UNL     1      -4.013  11.276  18.232  0.00  0.00    +0.000 A 
ATOM     18 BR   UNL     1      -5.840  11.412  17.764  0.00  0.00    +0.000 Br
ATOM     19  C   UNL     1      -3.488  12.136  19.196  0.00  0.00    +0.000 A 
ATOM     20  C   UNL     1      -2.140  12.038  19.534  0.00  0.00    +0.000 A 
ENDBRANCH  13  14
ENDBRANCH  12  13
ENDBRANCH   4  12
TORSDOF 5
ENDMDL
MODEL 7
REMARK VINA RESULT:      -6.9      1.724      2.385
REMARK  Name = 
REMARK  5 active torsions:
REMARK  status: ('A' for Active; 'I' for Inactive)
REMARK    1  A    between atoms: C_2  and  C_3
REMARK    2  A    between atoms: C_2  and  C_18
REMARK    3  A    between atoms: C_6  and  O_7
REMARK    4  A    between atoms: O_7  and  C_8
REMARK    5  A    between atoms: C_8  and  C_9
REMARK                            x       y       z     vdW  Elec       q    Type
REMARK                         _______ _______ _______ _____ _____    ______ ____
ROOT
ATOM      1  C   UNL     1       6.044   4.712  16.512  0.00  0.00    +0.000 A 
ATOM      2  C   UNL     1       6.487   5.557  17.533  0.00  0.00    +0.000 A 
ATOM      3  C   UNL     1       5.826   5.577  18.760  0.00  0.00    +0.000 A 
ATOM      4  C   UNL     1       4.700   4.779  18.970  0.00  0.00    +0.000 A 
ATOM      5  C   UNL     1       4.289   3.895  17.971  0.00  0.00    +0.000 A 
ATOM      6  C   UNL     1       4.960   3.858  16.742  0.00  0.00    +0.000 A 
ENDROOT
BRANCH   1   8
ATOM      7  O   UNL     1       7.599   5.521  14.926  0.00  0.00    +0.000 OA
ATOM      8  C   UNL     1       6.713   4.715  15.184  0.00  0.00    +0.000 C 
BRANCH   8   9
ATOM      9  C   UNL     1       6.266   3.707  14.175  0.00  0.00    +0.000 C 
ATOM     10  C   UNL     1       5.222   4.105  13.157  0.00  0.00    +0.000 C 
ATOM     11  C   UNL     1       6.629   3.825  12.716  0.00  0.00    +0.000 C 
ENDBRANCH   8   9
ENDBRANCH   1   8
BRANCH   4  12
ATOM     12  O   UNL     1       3.935   4.802  20.110  0.00  0.00    +0.000 OA
BRANCH  12  13
ATOM     13  C   UNL     1       2.532   4.964  19.871  0.00  0.00    +0.000 C 
BRANCH  13  14
ATOM     14  C   UNL     1       2.160   6.406  19.624  0.00  0.00    +0.000 A 
ATOM     15  C   UNL     1       1.739   7.252  20.659  0.00  0.00    +0.000 A 
ATOM     16  C   UNL     1       1.436   8.589  20.391  0.00  0.00    +0.000 A 
ATOM     17  C   UNL     1       1.566   9.086  19.097  0.00  0.00    +0.000 A 
ATOM     18 BR   UNL     1       1.149  10.894  18.733  0.00  0.00    +0.000 Br
ATOM     19  C   UNL     1       2.003   8.263  18.060  0.00  0.00    +0.000 A 
ATOM     20  C   UNL     1       2.303   6.930  18.330  0.00  0.00    +0.000 A 
ENDBRANCH  13  14
ENDBRANCH  12  13
ENDBRANCH   4  12
TORSDOF 5
ENDMDL
MODEL 8
REMARK VINA RESULT:      -6.8      1.679      2.568
REMARK  Name = 
REMARK  5 active torsions:
REMARK  status: ('A' for Active; 'I' for Inactive)
REMARK    1  A    between atoms: C_2  and  C_3
REMARK    2  A    between atoms: C_2  and  C_18
REMARK    3  A    between atoms: C_6  and  O_7
REMARK    4  A    between atoms: O_7  and  C_8
REMARK    5  A    between atoms: C_8  and  C_9
REMARK                            x       y       z     vdW  Elec       q    Type
REMARK                         _______ _______ _______ _____ _____    ______ ____
ROOT
ATOM      1  C   UNL     1       6.062   4.406  14.777  0.00  0.00    +0.000 A 
ATOM      2  C   UNL     1       6.926   5.306  15.406  0.00  0.00    +0.000 A 
ATOM      3  C   UNL     1       6.672   5.724  16.711  0.00  0.00    +0.000 A 
ATOM      4  C   UNL     1       5.539   5.273  17.391  0.00  0.00    +0.000 A 
ATOM      5  C   UNL     1       4.705   4.333  16.784  0.00  0.00    +0.000 A 
ATOM      6  C   UNL     1       4.965   3.896  15.479  0.00  0.00    +0.000 A 
ENDROOT
BRANCH   1   8
ATOM      7  O   UNL     1       7.223   4.458  12.719  0.00  0.00    +0.000 OA
ATOM      8  C   UNL     1       6.298   3.989  13.370  0.00  0.00    +0.000 C 
BRANCH   8   9
ATOM      9  C   UNL     1       5.367   2.981  12.776  0.00  0.00    +0.000 C 
ATOM     10  C   UNL     1       4.585   3.351  11.536  0.00  0.00    +0.000 C 
ATOM     11  C   UNL     1       5.660   2.306  11.459  0.00  0.00    +0.000 C 
ENDBRANCH   8   9
ENDBRANCH   1   8
BRANCH   4  12
ATOM     12  O   UNL     1       5.162   5.701  18.639  0.00  0.00    +0.000 OA
BRANCH  12  13
ATOM     13  C   UNL     1       3.776   5.495  18.936  0.00  0.00    +0.000 C 
BRANCH  13  14
ATOM     14  C   UNL     1       2.993   6.784  18.918  0.00  0.00    +0.000 A 
ATOM     15  C   UNL     1       2.966   7.622  17.794  0.00  0.00    +0.000 A 
ATOM     16  C   UNL     1       2.200   8.790  17.808  0.00  0.00    +0.000 A 
ATOM     17  C   UNL     1       1.450   9.116  18.935  0.00  0.00    +0.000 A 
ATOM     18 BR   UNL     1       0.418  10.701  18.957  0.00  0.00    +0.000 Br
ATOM     19  C   UNL     1       1.448   8.283  20.053  0.00  0.00    +0.000 A 
ATOM     20  C   UNL     1       2.215   7.120  20.036  0.00  0.00    +0.000 A 
ENDBRANCH  13  14
ENDBRANCH  12  13
ENDBRANCH   4  12
TORSDOF 5
ENDMDL
MODEL 9
REMARK VINA RESULT:      -6.7      5.055      6.866
REMARK  Name = 
REMARK  5 active torsions:
REMARK  status: ('A' for Active; 'I' for Inactive)
REMARK    1  A    between atoms: C_2  and  C_3
REMARK    2  A    between atoms: C_2  and  C_18
REMARK    3  A    between atoms: C_6  and  O_7
REMARK    4  A    between atoms: O_7  and  C_8
REMARK    5  A    between atoms: C_8  and  C_9
REMARK                            x       y       z     vdW  Elec       q    Type
REMARK                         _______ _______ _______ _____ _____    ______ ____
ROOT
ATOM      1  C   UNL     1       4.690   5.102  18.036  0.00  0.00    +0.000 A 
ATOM      2  C   UNL     1       4.863   6.125  17.099  0.00  0.00    +0.000 A 
ATOM      3  C   UNL     1       6.003   6.926  17.142  0.00  0.00    +0.000 A 
ATOM      4  C   UNL     1       6.965   6.736  18.137  0.00  0.00    +0.000 A 
ATOM      5  C   UNL     1       6.819   5.681  19.039  0.00  0.00    +0.000 A 
ATOM      6  C   UNL     1       5.684   4.862  18.990  0.00  0.00    +0.000 A 
ENDROOT
BRANCH   1   8
ATOM      7  O   UNL     1       3.426   3.193  17.446  0.00  0.00    +0.000 OA
ATOM      8  C   UNL     1       3.457   4.271  18.028  0.00  0.00    +0.000 C 
BRANCH   8   9
ATOM      9  C   UNL     1       2.257   4.795  18.749  0.00  0.00    +0.000 C 
ATOM     10  C   UNL     1       2.189   4.652  20.253  0.00  0.00    +0.000 C 
ATOM     11  C   UNL     1       2.330   6.013  19.636  0.00  0.00    +0.000 C 
ENDBRANCH   8   9
ENDBRANCH   1   8
BRANCH   4  12
ATOM     12  O   UNL     1       8.068   7.533  18.310  0.00  0.00    +0.000 OA
BRANCH  12  13
ATOM     13  C   UNL     1       8.048   8.738  17.536  0.00  0.00    +0.000 C 
BRANCH  13  14
ATOM     14  C   UNL     1       8.600   9.916  18.301  0.00  0.00    +0.000 A 
ATOM     15  C   UNL     1       9.215   9.766  19.551  0.00  0.00    +0.000 A 
ATOM     16  C   UNL     1       9.744  10.879  20.210  0.00  0.00    +0.000 A 
ATOM     17  C   UNL     1       9.673  12.137  19.618  0.00  0.00    +0.000 A 
ATOM     18 BR   UNL     1      10.382  13.645  20.512  0.00  0.00    +0.000 Br
ATOM     19  C   UNL     1       9.083  12.299  18.365  0.00  0.00    +0.000 A 
ATOM     20  C   UNL     1       8.556  11.188  17.711  0.00  0.00    +0.000 A 
ENDBRANCH  13  14
ENDBRANCH  12  13
ENDBRANCH   4  12
TORSDOF 5
ENDMDL
