MODEL 1
REMARK VINA RESULT:      -7.2      0.000      0.000
REMARK  Name = 
REMARK  4 active torsions:
REMARK  status: ('A' for Active; 'I' for Inactive)
REMARK    1  A    between atoms: C_2  and  C_3
REMARK    2  A    between atoms: C_9  and  C_10
REMARK    3  A    between atoms: N_11  and  C_12
REMARK    4  A    between atoms: C_16  and  C_17
REMARK                            x       y       z     vdW  Elec       q    Type
REMARK                         _______ _______ _______ _____ _____    ______ ____
ROOT
ATOM      1  C   UNL     1       2.206   7.895  18.456  0.00  0.00    +0.000 C 
ATOM      2  N   UNL     1       1.975   8.310  19.661  0.00  0.00    +0.000 NA
ENDROOT
BRANCH   1   9
ATOM      3  C   UNL     1       2.786   3.653  20.362  0.00  0.00    +0.000 A 
ATOM      4  C   UNL     1       3.876   2.977  19.807  0.00  0.00    +0.000 A 
ATOM      5  C   UNL     1       4.649   3.562  18.798  0.00  0.00    +0.000 A 
ATOM      6  C   UNL     1       4.291   4.846  18.367  0.00  0.00    +0.000 A 
ATOM      7  N   UNL     1       4.871   5.648  17.412  0.00  0.00    +0.000 N 
ATOM      8  C   UNL     1       4.199   6.837  17.322  0.00  0.00    +0.000 A 
ATOM      9  C   UNL     1       3.152   6.819  18.222  0.00  0.00    +0.000 A 
ATOM     10  C   UNL     1       3.207   5.551  18.895  0.00  0.00    +0.000 A 
ATOM     11  C   UNL     1       2.444   4.939  19.915  0.00  0.00    +0.000 A 
ATOM     12  H   UNL     1       5.684   5.396  16.865  0.00  0.00    +0.000 HD
BRANCH   3  14
ATOM     13  N   UNL     1       1.381   2.525  22.231  0.00  0.00    +0.000 NA
ATOM     14  C   UNL     1       2.011   3.027  21.394  0.00  0.00    +0.000 C 
ENDBRANCH   3  14
ENDBRANCH   1   9
BRANCH   2  15
ATOM     15  C   UNL     1       0.994   9.249  19.825  0.00  0.00    +0.000 A 
ATOM     16  S   UNL     1       0.267   9.921  18.403  0.00  0.00    +0.000 S 
ATOM     17  C   UNL     1      -0.692  11.007  19.294  0.00  0.00    +0.000 A 
ATOM     18  C   UNL     1      -0.503  10.880  20.654  0.00  0.00    +0.000 A 
ATOM     19  C   UNL     1       0.484   9.887  20.951  0.00  0.00    +0.000 A 
ATOM     20  C   UNL     1      -1.219  11.748  21.647  0.00  0.00    +0.000 C 
ATOM     21  C   UNL     1      -2.417  12.474  21.024  0.00  0.00    +0.000 C 
ATOM     22  C   UNL     1      -2.076  13.059  19.647  0.00  0.00    +0.000 C 
ATOM     23  C   UNL     1      -1.642  11.972  18.647  0.00  0.00    +0.000 C 
BRANCH  19  24
ATOM     24  C   UNL     1       0.916   9.588  22.282  0.00  0.00    +0.000 C 
ATOM     25  N   UNL     1       1.252   9.388  23.374  0.00  0.00    +0.000 NA
ENDBRANCH  19  24
ENDBRANCH   2  15
TORSDOF 4
ENDMDL
MODEL 2
REMARK VINA RESULT:      -7.2      1.595      2.457
REMARK  Name = 
REMARK  4 active torsions:
REMARK  status: ('A' for Active; 'I' for Inactive)
REMARK    1  A    between atoms: C_2  and  C_3
REMARK    2  A    between atoms: C_9  and  C_10
REMARK    3  A    between atoms: N_11  and  C_12
REMARK    4  A    between atoms: C_16  and  C_17
REMARK                            x       y       z     vdW  Elec       q    Type
REMARK                         _______ _______ _______ _____ _____    ______ ____
ROOT
ATOM      1  C   UNL     1       1.608   8.400  19.225  0.00  0.00    +0.000 C 
ATOM      2  N   UNL     1       1.106   9.324  18.470  0.00  0.00    +0.000 NA
ENDROOT
BRANCH   1   9
ATOM      3  C   UNL     1       2.735   3.983  20.316  0.00  0.00    +0.000 A 
ATOM      4  C   UNL     1       3.759   3.491  19.502  0.00  0.00    +0.000 A 
ATOM      5  C   UNL     1       4.324   4.283  18.496  0.00  0.00    +0.000 A 
ATOM      6  C   UNL     1       3.826   5.582  18.334  0.00  0.00    +0.000 A 
ATOM      7  N   UNL     1       4.196   6.563  17.445  0.00  0.00    +0.000 N 
ATOM      8  C   UNL     1       3.450   7.693  17.649  0.00  0.00    +0.000 A 
ATOM      9  C   UNL     1       2.565   7.453  18.682  0.00  0.00    +0.000 A 
ATOM     10  C   UNL     1       2.802   6.108  19.126  0.00  0.00    +0.000 A 
ATOM     11  C   UNL     1       2.252   5.289  20.138  0.00  0.00    +0.000 A 
ATOM     12  H   UNL     1       4.924   6.465  16.749  0.00  0.00    +0.000 HD
BRANCH   3  14
ATOM     13  N   UNL     1       1.722   2.467  22.163  0.00  0.00    +0.000 NA
ATOM     14  C   UNL     1       2.176   3.148  21.339  0.00  0.00    +0.000 C 
ENDBRANCH   3  14
ENDBRANCH   1   9
BRANCH   2  15
ATOM     15  C   UNL     1       0.296  10.252  19.066  0.00  0.00    +0.000 A 
ATOM     16  S   UNL     1       0.824  10.950  20.562  0.00  0.00    +0.000 S 
ATOM     17  C   UNL     1      -0.609  11.842  20.759  0.00  0.00    +0.000 A 
ATOM     18  C   UNL     1      -1.493  11.652  19.718  0.00  0.00    +0.000 A 
ATOM     19  C   UNL     1      -0.978  10.719  18.763  0.00  0.00    +0.000 A 
ATOM     20  C   UNL     1      -2.840  12.313  19.680  0.00  0.00    +0.000 C 
ATOM     21  C   UNL     1      -2.944  13.474  20.676  0.00  0.00    +0.000 C 
ATOM     22  C   UNL     1      -2.343  13.110  22.040  0.00  0.00    +0.000 C 
ATOM     23  C   UNL     1      -0.851  12.742  21.936  0.00  0.00    +0.000 C 
BRANCH  19  24
ATOM     24  C   UNL     1      -1.712  10.296  17.609  0.00  0.00    +0.000 C 
ATOM     25  N   UNL     1      -2.286   9.912  16.678  0.00  0.00    +0.000 NA
ENDBRANCH  19  24
ENDBRANCH   2  15
TORSDOF 4
ENDMDL
MODEL 3
REMARK VINA RESULT:      -7.2      1.354      1.354
REMARK  Name = 
REMARK  4 active torsions:
REMARK  status: ('A' for Active; 'I' for Inactive)
REMARK    1  A    between atoms: C_2  and  C_3
REMARK    2  A    between atoms: C_9  and  C_10
REMARK    3  A    between atoms: N_11  and  C_12
REMARK    4  A    between atoms: C_16  and  C_17
REMARK                            x       y       z     vdW  Elec       q    Type
REMARK                         _______ _______ _______ _____ _____    ______ ____
ROOT
ATOM      1  C   UNL     1       2.355   8.310  18.080  0.00  0.00    +0.000 C 
ATOM      2  N   UNL     1       1.934   8.340  19.304  0.00  0.00    +0.000 NA
ENDROOT
BRANCH   1   9
ATOM      3  C   UNL     1       2.196   3.625  18.104  0.00  0.00    +0.000 A 
ATOM      4  C   UNL     1       3.371   3.061  17.600  0.00  0.00    +0.000 A 
ATOM      5  C   UNL     1       4.422   3.868  17.152  0.00  0.00    +0.000 A 
ATOM      6  C   UNL     1       4.254   5.257  17.227  0.00  0.00    +0.000 A 
ATOM      7  N   UNL     1       5.114   6.269  16.870  0.00  0.00    +0.000 N 
ATOM      8  C   UNL     1       4.545   7.486  17.128  0.00  0.00    +0.000 A 
ATOM      9  C   UNL     1       3.284   7.279  17.653  0.00  0.00    +0.000 A 
ATOM     10  C   UNL     1       3.095   5.857  17.722  0.00  0.00    +0.000 A 
ATOM     11  C   UNL     1       2.048   5.020  18.172  0.00  0.00    +0.000 A 
ATOM     12  H   UNL     1       6.039   6.129  16.484  0.00  0.00    +0.000 HD
BRANCH   3  14
ATOM     13  N   UNL     1       0.278   2.078  18.921  0.00  0.00    +0.000 NA
ATOM     14  C   UNL     1       1.134   2.772  18.556  0.00  0.00    +0.000 C 
ENDBRANCH   3  14
ENDBRANCH   1   9
BRANCH   2  15
ATOM     15  C   UNL     1       0.976   9.267  19.615  0.00  0.00    +0.000 A 
ATOM     16  S   UNL     1       0.096   9.994  18.312  0.00  0.00    +0.000 S 
ATOM     17  C   UNL     1      -0.758  11.037  19.349  0.00  0.00    +0.000 A 
ATOM     18  C   UNL     1      -0.419  10.854  20.673  0.00  0.00    +0.000 A 
ATOM     19  C   UNL     1       0.595   9.854  20.816  0.00  0.00    +0.000 A 
ATOM     20  C   UNL     1      -1.021  11.677  21.775  0.00  0.00    +0.000 C 
ATOM     21  C   UNL     1      -2.281  12.422  21.320  0.00  0.00    +0.000 C 
ATOM     22  C   UNL     1      -2.095  13.066  19.939  0.00  0.00    +0.000 C 
ATOM     23  C   UNL     1      -1.775  12.024  18.852  0.00  0.00    +0.000 C 
BRANCH  19  24
ATOM     24  C   UNL     1       1.172   9.502  22.078  0.00  0.00    +0.000 C 
ATOM     25  N   UNL     1       1.655   9.260  23.104  0.00  0.00    +0.000 NA
ENDBRANCH  19  24
ENDBRANCH   2  15
TORSDOF 4
ENDMDL
MODEL 4
REMARK VINA RESULT:      -7.2      1.696      3.227
REMARK  Name = 
REMARK  4 active torsions:
REMARK  status: ('A' for Active; 'I' for Inactive)
REMARK    1  A    between atoms: C_2  and  C_3
REMARK    2  A    between atoms: C_9  and  C_10
REMARK    3  A    between atoms: N_11  and  C_12
REMARK    4  A    between atoms: C_16  and  C_17
REMARK                            x       y       z     vdW  Elec       q    Type
REMARK                         _______ _______ _______ _____ _____    ______ ____
ROOT
ATOM      1  C   UNL     1       2.160   7.598  19.707  0.00  0.00    +0.000 C 
ATOM      2  N   UNL     1       1.142   8.037  20.375  0.00  0.00    +0.000 NA
ENDROOT
BRANCH   1   9
ATOM      3  C   UNL     1       4.700   4.929  16.809  0.00  0.00    +0.000 A 
ATOM      4  C   UNL     1       4.637   3.577  17.157  0.00  0.00    +0.000 A 
ATOM      5  C   UNL     1       3.888   3.151  18.259  0.00  0.00    +0.000 A 
ATOM      6  C   UNL     1       3.208   4.126  18.999  0.00  0.00    +0.000 A 
ATOM      7  N   UNL     1       2.404   3.989  20.107  0.00  0.00    +0.000 N 
ATOM      8  C   UNL     1       1.930   5.211  20.501  0.00  0.00    +0.000 A 
ATOM      9  C   UNL     1       2.435   6.174  19.648  0.00  0.00    +0.000 A 
ATOM     10  C   UNL     1       3.249   5.486  18.685  0.00  0.00    +0.000 A 
ATOM     11  C   UNL     1       4.009   5.890  17.565  0.00  0.00    +0.000 A 
ATOM     12  H   UNL     1       2.187   3.109  20.556  0.00  0.00    +0.000 HD
BRANCH   3  14
ATOM     13  N   UNL     1       6.101   5.669  14.752  0.00  0.00    +0.000 NA
ATOM     14  C   UNL     1       5.477   5.337  15.674  0.00  0.00    +0.000 C 
ENDBRANCH   3  14
ENDBRANCH   1   9
BRANCH   2  15
ATOM     15  C   UNL     1       0.873   9.377  20.301  0.00  0.00    +0.000 A 
ATOM     16  S   UNL     1       1.129  10.174  18.784  0.00  0.00    +0.000 S 
ATOM     17  C   UNL     1       0.740  11.703  19.417  0.00  0.00    +0.000 A 
ATOM     18  C   UNL     1       0.400  11.648  20.751  0.00  0.00    +0.000 A 
ATOM     19  C   UNL     1       0.502  10.314  21.259  0.00  0.00    +0.000 A 
ATOM     20  C   UNL     1       0.042  12.875  21.539  0.00  0.00    +0.000 C 
ATOM     21  C   UNL     1      -0.275  14.072  20.634  0.00  0.00    +0.000 C 
ATOM     22  C   UNL     1       0.736  14.203  19.487  0.00  0.00    +0.000 C 
ATOM     23  C   UNL     1       0.755  12.955  18.586  0.00  0.00    +0.000 C 
BRANCH  19  24
ATOM     24  C   UNL     1       0.259   9.978  22.629  0.00  0.00    +0.000 C 
ATOM     25  N   UNL     1       0.087   9.743  23.751  0.00  0.00    +0.000 NA
ENDBRANCH  19  24
ENDBRANCH   2  15
TORSDOF 4
ENDMDL
MODEL 5
REMARK VINA RESULT:      -7.1      2.060      2.789
REMARK  Name = 
REMARK  4 active torsions:
REMARK  status: ('A' for Active; 'I' for Inactive)
REMARK    1  A    between atoms: C_2  and  C_3
REMARK    2  A    between atoms: C_9  and  C_10
REMARK    3  A    between atoms: N_11  and  C_12
REMARK    4  A    between atoms: C_16  and  C_17
REMARK                            x       y       z     vdW  Elec       q    Type
REMARK                         _______ _______ _______ _____ _____    ______ ____
ROOT
ATOM      1  C   UNL     1       2.004   8.333  18.688  0.00  0.00    +0.000 C 
ATOM      2  N   UNL     1       1.167   9.023  17.982  0.00  0.00    +0.000 NA
ENDROOT
BRANCH   1   9
ATOM      3  C   UNL     1       2.102   3.682  18.114  0.00  0.00    +0.000 A 
ATOM      4  C   UNL     1       3.245   3.266  17.424  0.00  0.00    +0.000 A 
ATOM      5  C   UNL     1       4.197   4.192  16.984  0.00  0.00    +0.000 A 
ATOM      6  C   UNL     1       3.963   5.546  17.257  0.00  0.00    +0.000 A 
ATOM      7  N   UNL     1       4.723   6.650  16.952  0.00  0.00    +0.000 N 
ATOM      8  C   UNL     1       4.120   7.785  17.423  0.00  0.00    +0.000 A 
ATOM      9  C   UNL     1       2.936   7.428  18.040  0.00  0.00    +0.000 A 
ATOM     10  C   UNL     1       2.832   6.000  17.939  0.00  0.00    +0.000 A 
ATOM     11  C   UNL     1       1.887   5.044  18.377  0.00  0.00    +0.000 A 
ATOM     12  H   UNL     1       5.607   6.623  16.461  0.00  0.00    +0.000 HD
BRANCH   3  14
ATOM     13  N   UNL     1       0.364   1.926  18.912  0.00  0.00    +0.000 NA
ATOM     14  C   UNL     1       1.143   2.710  18.553  0.00  0.00    +0.000 C 
ENDBRANCH   3  14
ENDBRANCH   1   9
BRANCH   2  15
ATOM     15  C   UNL     1       0.392   9.937  18.641  0.00  0.00    +0.000 A 
ATOM     16  S   UNL     1       0.962  10.537  20.164  0.00  0.00    +0.000 S 
ATOM     17  C   UNL     1      -0.444  11.455  20.434  0.00  0.00    +0.000 A 
ATOM     18  C   UNL     1      -1.348  11.346  19.399  0.00  0.00    +0.000 A 
ATOM     19  C   UNL     1      -0.873  10.454  18.385  0.00  0.00    +0.000 A 
ATOM     20  C   UNL     1      -2.677  12.045  19.418  0.00  0.00    +0.000 C 
ATOM     21  C   UNL     1      -2.734  13.151  20.479  0.00  0.00    +0.000 C 
ATOM     22  C   UNL     1      -2.122  12.695  21.811  0.00  0.00    +0.000 C 
ATOM     23  C   UNL     1      -0.643  12.295  21.662  0.00  0.00    +0.000 C 
BRANCH  19  24
ATOM     24  C   UNL     1      -1.636  10.116  17.222  0.00  0.00    +0.000 C 
ATOM     25  N   UNL     1      -2.290   9.834  16.307  0.00  0.00    +0.000 NA
ENDBRANCH  19  24
ENDBRANCH   2  15
TORSDOF 4
ENDMDL
MODEL 6
REMARK VINA RESULT:      -7.1      1.699      3.662
REMARK  Name = 
REMARK  4 active torsions:
REMARK  status: ('A' for Active; 'I' for Inactive)
REMARK    1  A    between atoms: C_2  and  C_3
REMARK    2  A    between atoms: C_9  and  C_10
REMARK    3  A    between atoms: N_11  and  C_12
REMARK    4  A    between atoms: C_16  and  C_17
REMARK                            x       y       z     vdW  Elec       q    Type
REMARK                         _______ _______ _______ _____ _____    ______ ____
ROOT
ATOM      1  C   UNL     1       1.279   6.896  20.440  0.00  0.00    +0.000 C 
ATOM      2  N   UNL     1       1.764   7.916  21.072  0.00  0.00    +0.000 NA
ENDROOT
BRANCH   1   9
ATOM      3  C   UNL     1       4.502   5.399  17.383  0.00  0.00    +0.000 A 
ATOM      4  C   UNL     1       4.950   4.111  17.688  0.00  0.00    +0.000 A 
ATOM      5  C   UNL     1       4.452   3.418  18.796  0.00  0.00    +0.000 A 
ATOM      6  C   UNL     1       3.492   4.062  19.588  0.00  0.00    +0.000 A 
ATOM      7  N   UNL     1       2.837   3.619  20.713  0.00  0.00    +0.000 N 
ATOM      8  C   UNL     1       1.966   4.574  21.161  0.00  0.00    +0.000 A 
ATOM      9  C   UNL     1       2.052   5.672  20.326  0.00  0.00    +0.000 A 
ATOM     10  C   UNL     1       3.022   5.349  19.318  0.00  0.00    +0.000 A 
ATOM     11  C   UNL     1       3.539   6.026  18.190  0.00  0.00    +0.000 A 
ATOM     12  H   UNL     1       2.974   2.711  21.139  0.00  0.00    +0.000 HD
BRANCH   3  14
ATOM     13  N   UNL     1       5.461   6.636  15.312  0.00  0.00    +0.000 NA
ATOM     14  C   UNL     1       5.032   6.085  16.240  0.00  0.00    +0.000 C 
ENDBRANCH   3  14
ENDBRANCH   1   9
BRANCH   2  15
ATOM     15  C   UNL     1       0.944   8.998  21.240  0.00  0.00    +0.000 A 
ATOM     16  S   UNL     1       0.283   9.281  22.816  0.00  0.00    +0.000 S 
ATOM     17  C   UNL     1      -0.649  10.602  22.291  0.00  0.00    +0.000 A 
ATOM     18  C   UNL     1      -0.474  10.866  20.949  0.00  0.00    +0.000 A 
ATOM     19  C   UNL     1       0.421   9.927  20.346  0.00  0.00    +0.000 A 
ATOM     20  C   UNL     1      -1.211  11.971  20.247  0.00  0.00    +0.000 C 
ATOM     21  C   UNL     1      -1.835  12.967  21.231  0.00  0.00    +0.000 C 
ATOM     22  C   UNL     1      -2.521  12.255  22.405  0.00  0.00    +0.000 C 
ATOM     23  C   UNL     1      -1.538  11.387  23.211  0.00  0.00    +0.000 C 
BRANCH  19  24
ATOM     24  C   UNL     1       0.739   9.934  18.950  0.00  0.00    +0.000 C 
ATOM     25  N   UNL     1       1.014   9.898  17.824  0.00  0.00    +0.000 NA
ENDBRANCH  19  24
ENDBRANCH   2  15
TORSDOF 4
ENDMDL
MODEL 7
REMARK VINA RESULT:      -7.1      2.436      8.255
REMARK  Name = 
REMARK  4 active torsions:
REMARK  status: ('A' for Active; 'I' for Inactive)
REMARK    1  A    between atoms: C_2  and  C_3
REMARK    2  A    between atoms: C_9  and  C_10
REMARK    3  A    between atoms: N_11  and  C_12
REMARK    4  A    between atoms: C_16  and  C_17
REMARK                            x       y       z     vdW  Elec       q    Type
REMARK                         _______ _______ _______ _____ _____    ______ ____
ROOT
ATOM      1  C   UNL     1       1.540   8.870  18.738  0.00  0.00    +0.000 C 
ATOM      2  N   UNL     1       1.881   7.742  19.274  0.00  0.00    +0.000 NA
ENDROOT
BRANCH   1   9
ATOM      3  C   UNL     1      -2.513  11.065  17.886  0.00  0.00    +0.000 A 
ATOM      4  C   UNL     1      -2.866  11.929  18.927  0.00  0.00    +0.000 A 
ATOM      5  C   UNL     1      -2.056  12.061  20.060  0.00  0.00    +0.000 A 
ATOM      6  C   UNL     1      -0.883  11.298  20.113  0.00  0.00    +0.000 A 
ATOM      7  N   UNL     1       0.086  11.238  21.088  0.00  0.00    +0.000 N 
ATOM      8  C   UNL     1       1.072  10.363  20.721  0.00  0.00    +0.000 A 
ATOM      9  C   UNL     1       0.747   9.826  19.490  0.00  0.00    +0.000 A 
ATOM     10  C   UNL     1      -0.498  10.422  19.096  0.00  0.00    +0.000 A 
ATOM     11  C   UNL     1      -1.332  10.310  17.960  0.00  0.00    +0.000 A 
ATOM     12  H   UNL     1       0.073  11.774  21.945  0.00  0.00    +0.000 HD
BRANCH   3  14
ATOM     13  N   UNL     1      -4.052  10.863  15.806  0.00  0.00    +0.000 NA
ATOM     14  C   UNL     1      -3.364  10.950  16.737  0.00  0.00    +0.000 C 
ENDBRANCH   3  14
ENDBRANCH   1   9
BRANCH   2  15
ATOM     15  C   UNL     1       2.719   6.934  18.557  0.00  0.00    +0.000 A 
ATOM     16  S   UNL     1       3.869   7.687  17.502  0.00  0.00    +0.000 S 
ATOM     17  C   UNL     1       4.433   6.200  16.902  0.00  0.00    +0.000 A 
ATOM     18  C   UNL     1       3.794   5.124  17.480  0.00  0.00    +0.000 A 
ATOM     19  C   UNL     1       2.794   5.553  18.411  0.00  0.00    +0.000 A 
ATOM     20  C   UNL     1       4.101   3.706  17.094  0.00  0.00    +0.000 C 
ATOM     21  C   UNL     1       5.419   3.590  16.319  0.00  0.00    +0.000 C 
ATOM     22  C   UNL     1       5.553   4.688  15.255  0.00  0.00    +0.000 C 
ATOM     23  C   UNL     1       5.520   6.099  15.870  0.00  0.00    +0.000 C 
BRANCH  19  24
ATOM     24  C   UNL     1       1.941   4.644  19.115  0.00  0.00    +0.000 C 
ATOM     25  N   UNL     1       1.256   3.933  19.724  0.00  0.00    +0.000 NA
ENDBRANCH  19  24
ENDBRANCH   2  15
TORSDOF 4
ENDMDL
MODEL 8
REMARK VINA RESULT:      -7.0      2.177      8.160
REMARK  Name = 
REMARK  4 active torsions:
REMARK  status: ('A' for Active; 'I' for Inactive)
REMARK    1  A    between atoms: C_2  and  C_3
REMARK    2  A    between atoms: C_9  and  C_10
REMARK    3  A    between atoms: N_11  and  C_12
REMARK    4  A    between atoms: C_16  and  C_17
REMARK                            x       y       z     vdW  Elec       q    Type
REMARK                         _______ _______ _______ _____ _____    ______ ____
ROOT
ATOM      1  C   UNL     1       1.266   8.464  20.345  0.00  0.00    +0.000 C 
ATOM      2  N   UNL     1       2.011   8.031  19.378  0.00  0.00    +0.000 NA
ENDROOT
BRANCH   1   9
ATOM      3  C   UNL     1      -1.732  10.633  17.469  0.00  0.00    +0.000 A 
ATOM      4  C   UNL     1      -1.931  11.967  17.834  0.00  0.00    +0.000 A 
ATOM      5  C   UNL     1      -1.281  12.515  18.945  0.00  0.00    +0.000 A 
ATOM      6  C   UNL     1      -0.428  11.679  19.677  0.00  0.00    +0.000 A 
ATOM      7  N   UNL     1       0.332  11.952  20.790  0.00  0.00    +0.000 N 
ATOM      8  C   UNL     1       1.031  10.839  21.171  0.00  0.00    +0.000 A 
ATOM      9  C   UNL     1       0.723   9.809  20.303  0.00  0.00    +0.000 A 
ATOM     10  C   UNL     1      -0.206  10.341  19.345  0.00  0.00    +0.000 A 
ATOM     11  C   UNL     1      -0.871   9.812  18.215  0.00  0.00    +0.000 A 
ATOM     12  H   UNL     1       0.374  12.852  21.252  0.00  0.00    +0.000 HD
BRANCH   3  14
ATOM     13  N   UNL     1      -2.959   9.667  15.395  0.00  0.00    +0.000 NA
ATOM     14  C   UNL     1      -2.412  10.099  16.324  0.00  0.00    +0.000 C 
ENDBRANCH   3  14
ENDBRANCH   1   9
BRANCH   2  15
ATOM     15  C   UNL     1       2.400   6.721  19.423  0.00  0.00    +0.000 A 
ATOM     16  S   UNL     1       1.774   5.730  20.700  0.00  0.00    +0.000 S 
ATOM     17  C   UNL     1       2.701   4.383  20.234  0.00  0.00    +0.000 A 
ATOM     18  C   UNL     1       3.473   4.637  19.121  0.00  0.00    +0.000 A 
ATOM     19  C   UNL     1       3.316   5.988  18.676  0.00  0.00    +0.000 A 
ATOM     20  C   UNL     1       4.397   3.608  18.535  0.00  0.00    +0.000 C 
ATOM     21  C   UNL     1       4.092   2.196  19.049  0.00  0.00    +0.000 C 
ATOM     22  C   UNL     1       3.842   2.182  20.563  0.00  0.00    +0.000 C 
ATOM     23  C   UNL     1       2.649   3.070  20.961  0.00  0.00    +0.000 C 
BRANCH  19  24
ATOM     24  C   UNL     1       4.043   6.537  17.572  0.00  0.00    +0.000 C 
ATOM     25  N   UNL     1       4.659   7.003  16.708  0.00  0.00    +0.000 NA
ENDBRANCH  19  24
ENDBRANCH   2  15
TORSDOF 4
ENDMDL
MODEL 9
REMARK VINA RESULT:      -7.0      1.830      2.463
REMARK  Name = 
REMARK  4 active torsions:
REMARK  status: ('A' for Active; 'I' for Inactive)
REMARK    1  A    between atoms: C_2  and  C_3
REMARK    2  A    between atoms: C_9  and  C_10
REMARK    3  A    between atoms: N_11  and  C_12
REMARK    4  A    between atoms: C_16  and  C_17
REMARK                            x       y       z     vdW  Elec       q    Type
REMARK                         _______ _______ _______ _____ _____    ______ ____
ROOT
ATOM      1  C   UNL     1       1.780   8.306  19.910  0.00  0.00    +0.000 C 
ATOM      2  N   UNL     1       1.307   9.367  19.340  0.00  0.00    +0.000 NA
ENDROOT
BRANCH   1   9
ATOM      3  C   UNL     1       2.263   3.673  20.440  0.00  0.00    +0.000 A 
ATOM      4  C   UNL     1       2.997   3.103  19.396  0.00  0.00    +0.000 A 
ATOM      5  C   UNL     1       3.488   3.889  18.348  0.00  0.00    +0.000 A 
ATOM      6  C   UNL     1       3.218   5.263  18.383  0.00  0.00    +0.000 A 
ATOM      7  N   UNL     1       3.581   6.256  17.503  0.00  0.00    +0.000 N 
ATOM      8  C   UNL     1       3.112   7.467  17.935  0.00  0.00    +0.000 A 
ATOM      9  C   UNL     1       2.419   7.273  19.114  0.00  0.00    +0.000 A 
ATOM     10  C   UNL     1       2.486   5.869  19.407  0.00  0.00    +0.000 A 
ATOM     11  C   UNL     1       2.004   5.053  20.456  0.00  0.00    +0.000 A 
ATOM     12  H   UNL     1       4.126   6.109  16.663  0.00  0.00    +0.000 HD
BRANCH   3  14
ATOM     13  N   UNL     1       1.371   2.174  22.362  0.00  0.00    +0.000 NA
ATOM     14  C   UNL     1       1.771   2.842  21.500  0.00  0.00    +0.000 C 
ENDBRANCH   3  14
ENDBRANCH   1   9
BRANCH   2  15
ATOM     15  C   UNL     1       0.817  10.352  20.155  0.00  0.00    +0.000 A 
ATOM     16  S   UNL     1      -0.249   9.888  21.440  0.00  0.00    +0.000 S 
ATOM     17  C   UNL     1      -0.528  11.497  21.913  0.00  0.00    +0.000 A 
ATOM     18  C   UNL     1       0.172  12.400  21.142  0.00  0.00    +0.000 A 
ATOM     19  C   UNL     1       0.922  11.738  20.118  0.00  0.00    +0.000 A 
ATOM     20  C   UNL     1       0.068  13.883  21.351  0.00  0.00    +0.000 C 
ATOM     21  C   UNL     1      -0.557  14.234  22.707  0.00  0.00    +0.000 C 
ATOM     22  C   UNL     1      -1.781  13.360  23.014  0.00  0.00    +0.000 C 
ATOM     23  C   UNL     1      -1.427  11.863  23.059  0.00  0.00    +0.000 C 
BRANCH  19  24
ATOM     24  C   UNL     1       1.697  12.439  19.140  0.00  0.00    +0.000 C 
ATOM     25  N   UNL     1       2.328  12.968  18.324  0.00  0.00    +0.000 NA
ENDBRANCH  19  24
ENDBRANCH   2  15
TORSDOF 4
ENDMDL
