MODEL 1
REMARK VINA RESULT:      -8.1      0.000      0.000
REMARK  Name = 
REMARK  7 active torsions:
REMARK  status: ('A' for Active; 'I' for Inactive)
REMARK    1  A    between atoms: C_1  and  C_2
REMARK    2  A    between atoms: C_2  and  O_3
REMARK    3  A    between atoms: C_5  and  C_6
REMARK    4  A    between atoms: C_5  and  C_16
REMARK    5  A    between atoms: C_9  and  C_10
REMARK    6  A    between atoms: C_16  and  O_17
REMARK    7  A    between atoms: C_16  and  C_18
REMARK                            x       y       z     vdW  Elec       q    Type
REMARK                         _______ _______ _______ _____ _____    ______ ____
ROOT
ATOM      1  C   UNL     1       7.519   4.490  17.517  0.00  0.00    +0.000 C 
ATOM      2  C   UNL     1       6.745   5.702  18.021  0.00  0.00    +0.000 C 
ATOM      3  C   UNL     1       5.806   5.486  19.236  0.00  0.00    +0.000 C 
ATOM      4  C   UNL     1       4.549   5.447  18.290  0.00  0.00    +0.000 C 
ATOM      5  C   UNL     1       5.503   6.034  17.169  0.00  0.00    +0.000 C 
ENDROOT
BRANCH   4   6
ATOM      6  C   UNL     1       3.332   6.493  18.606  0.00  0.00    +0.000 A 
ATOM      7  C   UNL     1       2.901   7.412  17.622  0.00  0.00    +0.000 A 
ATOM      8  C   UNL     1       2.003   8.444  17.901  0.00  0.00    +0.000 A 
ATOM      9  C   UNL     1       1.493   8.598  19.192  0.00  0.00    +0.000 A 
ATOM     10  C   UNL     1       1.826   7.643  20.161  0.00  0.00    +0.000 A 
ATOM     11  C   UNL     1       2.720   6.607  19.866  0.00  0.00    +0.000 A 
BRANCH   9  12
ATOM     12  C   UNL     1       0.649   9.794  19.559  0.00  0.00    +0.000 C 
ATOM     13  F   UNL     1      -0.336  10.065  18.657  0.00  0.00    +0.000 F 
ATOM     14  F   UNL     1       0.033   9.657  20.762  0.00  0.00    +0.000 F 
ATOM     15  F   UNL     1       1.393  10.934  19.646  0.00  0.00    +0.000 F 
ENDBRANCH   9  12
ENDBRANCH   4   6
BRANCH   2  16
ATOM     16  O   UNL     1       7.689   6.784  18.191  0.00  0.00    +0.000 OA
ATOM     17  H   UNL     1       7.205   7.496  18.643  0.00  0.00    +0.000 HD
ENDBRANCH   2  16
BRANCH   4  18
ATOM     18  C   UNL     1       4.038   4.006  18.010  0.00  0.00    +0.000 C 
BRANCH  18  19
ATOM     19  C   UNL     1       3.034   3.538  19.055  0.00  0.00    +0.000 A 
ATOM     20  C   UNL     1       1.668   3.522  18.770  0.00  0.00    +0.000 A 
ATOM     21  C   UNL     1       0.774   3.127  19.762  0.00  0.00    +0.000 A 
ATOM     22  C   UNL     1       1.261   2.757  21.008  0.00  0.00    +0.000 A 
ATOM     23  C   UNL     1       2.629   2.807  21.217  0.00  0.00    +0.000 A 
ATOM     24  N   UNL     1       3.517   3.202  20.278  0.00  0.00    +0.000 NA
ENDBRANCH  18  19
BRANCH  18  25
ATOM     25  O   UNL     1       3.437   3.931  16.711  0.00  0.00    +0.000 OA
ATOM     26  H   UNL     1       3.420   2.974  16.503  0.00  0.00    +0.000 HD
ENDBRANCH  18  25
ENDBRANCH   4  18
TORSDOF 6
ENDMDL
MODEL 2
REMARK VINA RESULT:      -7.8      1.820      4.271
REMARK  Name = 
REMARK  7 active torsions:
REMARK  status: ('A' for Active; 'I' for Inactive)
REMARK    1  A    between atoms: C_1  and  C_2
REMARK    2  A    between atoms: C_2  and  O_3
REMARK    3  A    between atoms: C_5  and  C_6
REMARK    4  A    between atoms: C_5  and  C_16
REMARK    5  A    between atoms: C_9  and  C_10
REMARK    6  A    between atoms: C_16  and  O_17
REMARK    7  A    between atoms: C_16  and  C_18
REMARK                            x       y       z     vdW  Elec       q    Type
REMARK                         _______ _______ _______ _____ _____    ______ ____
ROOT
ATOM      1  C   UNL     1       2.521   1.657  18.533  0.00  0.00    +0.000 C 
ATOM      2  C   UNL     1       1.714   2.947  18.614  0.00  0.00    +0.000 C 
ATOM      3  C   UNL     1       2.110   4.091  17.644  0.00  0.00    +0.000 C 
ATOM      4  C   UNL     1       2.869   4.842  18.800  0.00  0.00    +0.000 C 
ATOM      5  C   UNL     1       2.125   3.855  19.791  0.00  0.00    +0.000 C 
ENDROOT
BRANCH   4   6
ATOM      6  C   UNL     1       2.437   6.389  19.108  0.00  0.00    +0.000 A 
ATOM      7  C   UNL     1       1.971   6.764  20.388  0.00  0.00    +0.000 A 
ATOM      8  C   UNL     1       1.415   8.018  20.648  0.00  0.00    +0.000 A 
ATOM      9  C   UNL     1       1.305   8.960  19.623  0.00  0.00    +0.000 A 
ATOM     10  C   UNL     1       1.850   8.651  18.370  0.00  0.00    +0.000 A 
ATOM     11  C   UNL     1       2.412   7.393  18.125  0.00  0.00    +0.000 A 
BRANCH   9  12
ATOM     12  C   UNL     1       0.568  10.260  19.834  0.00  0.00    +0.000 C 
ATOM     13  F   UNL     1       0.509  11.041  18.719  0.00  0.00    +0.000 F 
ATOM     14  F   UNL     1      -0.717  10.079  20.237  0.00  0.00    +0.000 F 
ATOM     15  F   UNL     1       1.158  11.029  20.793  0.00  0.00    +0.000 F 
ENDBRANCH   9  12
ENDBRANCH   4   6
BRANCH   2  16
ATOM     16  O   UNL     1       0.314   2.590  18.565  0.00  0.00    +0.000 OA
ATOM     17  H   UNL     1       0.274   1.713  18.147  0.00  0.00    +0.000 HD
ENDBRANCH   2  16
BRANCH   4  18
ATOM     18  C   UNL     1       4.411   4.654  18.743  0.00  0.00    +0.000 C 
BRANCH  18  19
ATOM     19  C   UNL     1       4.960   4.827  17.333  0.00  0.00    +0.000 A 
ATOM     20  C   UNL     1       5.031   6.093  16.749  0.00  0.00    +0.000 A 
ATOM     21  C   UNL     1       5.500   6.210  15.443  0.00  0.00    +0.000 A 
ATOM     22  C   UNL     1       5.888   5.069  14.754  0.00  0.00    +0.000 A 
ATOM     23  C   UNL     1       5.779   3.848  15.398  0.00  0.00    +0.000 A 
ATOM     24  N   UNL     1       5.312   3.703  16.658  0.00  0.00    +0.000 NA
ENDBRANCH  18  19
BRANCH  18  25
ATOM     25  O   UNL     1       5.062   5.582  19.620  0.00  0.00    +0.000 OA
ATOM     26  H   UNL     1       5.948   5.195  19.774  0.00  0.00    +0.000 HD
ENDBRANCH  18  25
ENDBRANCH   4  18
TORSDOF 6
ENDMDL
MODEL 3
REMARK VINA RESULT:      -7.8      0.642      1.023
REMARK  Name = 
REMARK  7 active torsions:
REMARK  status: ('A' for Active; 'I' for Inactive)
REMARK    1  A    between atoms: C_1  and  C_2
REMARK    2  A    between atoms: C_2  and  O_3
REMARK    3  A    between atoms: C_5  and  C_6
REMARK    4  A    between atoms: C_5  and  C_16
REMARK    5  A    between atoms: C_9  and  C_10
REMARK    6  A    between atoms: C_16  and  O_17
REMARK    7  A    between atoms: C_16  and  C_18
REMARK                            x       y       z     vdW  Elec       q    Type
REMARK                         _______ _______ _______ _____ _____    ______ ____
ROOT
ATOM      1  C   UNL     1       7.243   4.499  17.038  0.00  0.00    +0.000 C 
ATOM      2  C   UNL     1       6.534   5.729  17.591  0.00  0.00    +0.000 C 
ATOM      3  C   UNL     1       5.725   5.549  18.901  0.00  0.00    +0.000 C 
ATOM      4  C   UNL     1       4.376   5.500  18.092  0.00  0.00    +0.000 C 
ATOM      5  C   UNL     1       5.212   6.052  16.865  0.00  0.00    +0.000 C 
ENDROOT
BRANCH   4   6
ATOM      6  C   UNL     1       3.206   6.564  18.508  0.00  0.00    +0.000 A 
ATOM      7  C   UNL     1       2.752   7.531  17.583  0.00  0.00    +0.000 A 
ATOM      8  C   UNL     1       1.898   8.575  17.945  0.00  0.00    +0.000 A 
ATOM      9  C   UNL     1       1.457   8.691  19.264  0.00  0.00    +0.000 A 
ATOM     10  C   UNL     1       1.810   7.690  20.178  0.00  0.00    +0.000 A 
ATOM     11  C   UNL     1       2.659   6.644  19.800  0.00  0.00    +0.000 A 
BRANCH   9  12
ATOM     12  C   UNL     1       0.665   9.893  19.718  0.00  0.00    +0.000 C 
ATOM     13  F   UNL     1      -0.543  10.016  19.101  0.00  0.00    +0.000 F 
ATOM     14  F   UNL     1       0.408   9.884  21.053  0.00  0.00    +0.000 F 
ATOM     15  F   UNL     1       1.326  11.060  19.471  0.00  0.00    +0.000 F 
ENDBRANCH   9  12
ENDBRANCH   4   6
BRANCH   2  16
ATOM     16  O   UNL     1       7.497   6.806  17.635  0.00  0.00    +0.000 OA
ATOM     17  H   UNL     1       8.362   6.387  17.784  0.00  0.00    +0.000 HD
ENDBRANCH   2  16
BRANCH   4  18
ATOM     18  C   UNL     1       3.829   4.057  17.901  0.00  0.00    +0.000 C 
BRANCH  18  19
ATOM     19  C   UNL     1       2.941   3.620  19.058  0.00  0.00    +0.000 A 
ATOM     20  C   UNL     1       3.502   3.238  20.278  0.00  0.00    +0.000 A 
ATOM     21  C   UNL     1       2.663   2.805  21.302  0.00  0.00    +0.000 A 
ATOM     22  C   UNL     1       1.292   2.766  21.088  0.00  0.00    +0.000 A 
ATOM     23  C   UNL     1       0.813   3.153  19.848  0.00  0.00    +0.000 A 
ATOM     24  N   UNL     1       1.604   3.560  18.832  0.00  0.00    +0.000 NA
ENDBRANCH  18  19
BRANCH  18  25
ATOM     25  O   UNL     1       3.091   3.960  16.676  0.00  0.00    +0.000 OA
ATOM     26  H   UNL     1       2.384   3.309  16.866  0.00  0.00    +0.000 HD
ENDBRANCH  18  25
ENDBRANCH   4  18
TORSDOF 6
ENDMDL
MODEL 4
REMARK VINA RESULT:      -7.7      1.907      4.364
REMARK  Name = 
REMARK  7 active torsions:
REMARK  status: ('A' for Active; 'I' for Inactive)
REMARK    1  A    between atoms: C_1  and  C_2
REMARK    2  A    between atoms: C_2  and  O_3
REMARK    3  A    between atoms: C_5  and  C_6
REMARK    4  A    between atoms: C_5  and  C_16
REMARK    5  A    between atoms: C_9  and  C_10
REMARK    6  A    between atoms: C_16  and  O_17
REMARK    7  A    between atoms: C_16  and  C_18
REMARK                            x       y       z     vdW  Elec       q    Type
REMARK                         _______ _______ _______ _____ _____    ______ ____
ROOT
ATOM      1  C   UNL     1       2.525   1.647  18.554  0.00  0.00    +0.000 C 
ATOM      2  C   UNL     1       1.703   2.922  18.690  0.00  0.00    +0.000 C 
ATOM      3  C   UNL     1       2.034   4.084  17.717  0.00  0.00    +0.000 C 
ATOM      4  C   UNL     1       2.836   4.833  18.844  0.00  0.00    +0.000 C 
ATOM      5  C   UNL     1       2.157   3.822  19.857  0.00  0.00    +0.000 C 
ENDROOT
BRANCH   4   6
ATOM      6  C   UNL     1       2.397   6.369  19.192  0.00  0.00    +0.000 A 
ATOM      7  C   UNL     1       1.941   6.711  20.485  0.00  0.00    +0.000 A 
ATOM      8  C   UNL     1       1.378   7.955  20.779  0.00  0.00    +0.000 A 
ATOM      9  C   UNL     1       1.251   8.919  19.777  0.00  0.00    +0.000 A 
ATOM     10  C   UNL     1       1.785   8.644  18.512  0.00  0.00    +0.000 A 
ATOM     11  C   UNL     1       2.355   7.396  18.233  0.00  0.00    +0.000 A 
BRANCH   9  12
ATOM     12  C   UNL     1       0.506  10.208  20.026  0.00  0.00    +0.000 C 
ATOM     13  F   UNL     1       1.323  11.281  20.226  0.00  0.00    +0.000 F 
ATOM     14  F   UNL     1      -0.319  10.548  19.002  0.00  0.00    +0.000 F 
ATOM     15  F   UNL     1      -0.283  10.133  21.136  0.00  0.00    +0.000 F 
ENDBRANCH   9  12
ENDBRANCH   4   6
BRANCH   2  16
ATOM     16  O   UNL     1       0.308   2.544  18.703  0.00  0.00    +0.000 OA
ATOM     17  H   UNL     1      -0.033   2.737  17.813  0.00  0.00    +0.000 HD
ENDBRANCH   2  16
BRANCH   4  18
ATOM     18  C   UNL     1       4.377   4.671  18.710  0.00  0.00    +0.000 C 
BRANCH  18  19
ATOM     19  C   UNL     1       4.851   4.837  17.272  0.00  0.00    +0.000 A 
ATOM     20  C   UNL     1       5.264   3.730  16.529  0.00  0.00    +0.000 A 
ATOM     21  C   UNL     1       5.730   3.923  15.231  0.00  0.00    +0.000 A 
ATOM     22  C   UNL     1       5.769   5.207  14.706  0.00  0.00    +0.000 A 
ATOM     23  C   UNL     1       5.350   6.255  15.509  0.00  0.00    +0.000 A 
ATOM     24  N   UNL     1       4.910   6.099  16.776  0.00  0.00    +0.000 NA
ENDBRANCH  18  19
BRANCH  18  25
ATOM     25  O   UNL     1       5.055   5.619  19.544  0.00  0.00    +0.000 OA
ATOM     26  H   UNL     1       5.833   5.133  19.887  0.00  0.00    +0.000 HD
ENDBRANCH  18  25
ENDBRANCH   4  18
TORSDOF 6
ENDMDL
MODEL 5
REMARK VINA RESULT:      -7.7      1.061      1.539
REMARK  Name = 
REMARK  7 active torsions:
REMARK  status: ('A' for Active; 'I' for Inactive)
REMARK    1  A    between atoms: C_1  and  C_2
REMARK    2  A    between atoms: C_2  and  O_3
REMARK    3  A    between atoms: C_5  and  C_6
REMARK    4  A    between atoms: C_5  and  C_16
REMARK    5  A    between atoms: C_9  and  C_10
REMARK    6  A    between atoms: C_16  and  O_17
REMARK    7  A    between atoms: C_16  and  C_18
REMARK                            x       y       z     vdW  Elec       q    Type
REMARK                         _______ _______ _______ _____ _____    ______ ____
ROOT
ATOM      1  C   UNL     1       5.979   4.281  16.622  0.00  0.00    +0.000 C 
ATOM      2  C   UNL     1       5.650   5.614  17.281  0.00  0.00    +0.000 C 
ATOM      3  C   UNL     1       4.984   5.566  18.681  0.00  0.00    +0.000 C 
ATOM      4  C   UNL     1       3.575   5.867  18.049  0.00  0.00    +0.000 C 
ATOM      5  C   UNL     1       4.364   6.267  16.735  0.00  0.00    +0.000 C 
ENDROOT
BRANCH   4   6
ATOM      6  C   UNL     1       2.745   7.152  18.628  0.00  0.00    +0.000 A 
ATOM      7  C   UNL     1       2.340   7.196  19.981  0.00  0.00    +0.000 A 
ATOM      8  C   UNL     1       1.473   8.173  20.474  0.00  0.00    +0.000 A 
ATOM      9  C   UNL     1       0.972   9.159  19.621  0.00  0.00    +0.000 A 
ATOM     10  C   UNL     1       1.435   9.198  18.300  0.00  0.00    +0.000 A 
ATOM     11  C   UNL     1       2.311   8.218  17.820  0.00  0.00    +0.000 A 
BRANCH   9  12
ATOM     12  C   UNL     1      -0.086  10.129  20.087  0.00  0.00    +0.000 C 
ATOM     13  F   UNL     1      -1.158  10.210  19.251  0.00  0.00    +0.000 F 
ATOM     14  F   UNL     1      -0.584   9.819  21.313  0.00  0.00    +0.000 F 
ATOM     15  F   UNL     1       0.399  11.400  20.189  0.00  0.00    +0.000 F 
ENDBRANCH   9  12
ENDBRANCH   4   6
BRANCH   2  16
ATOM     16  O   UNL     1       6.837   6.436  17.221  0.00  0.00    +0.000 OA
ATOM     17  H   UNL     1       6.672   7.192  17.812  0.00  0.00    +0.000 HD
ENDBRANCH   2  16
BRANCH   4  18
ATOM     18  C   UNL     1       2.685   4.600  17.904  0.00  0.00    +0.000 C 
BRANCH  18  19
ATOM     19  C   UNL     1       2.519   3.859  19.224  0.00  0.00    +0.000 A 
ATOM     20  C   UNL     1       1.313   3.916  19.924  0.00  0.00    +0.000 A 
ATOM     21  C   UNL     1       1.210   3.261  21.148  0.00  0.00    +0.000 A 
ATOM     22  C   UNL     1       2.304   2.564  21.641  0.00  0.00    +0.000 A 
ATOM     23  C   UNL     1       3.469   2.560  20.892  0.00  0.00    +0.000 A 
ATOM     24  N   UNL     1       3.603   3.202  19.711  0.00  0.00    +0.000 NA
ENDBRANCH  18  19
BRANCH  18  25
ATOM     25  O   UNL     1       1.392   4.951  17.394  0.00  0.00    +0.000 OA
ATOM     26  H   UNL     1       0.862   4.133  17.484  0.00  0.00    +0.000 HD
ENDBRANCH  18  25
ENDBRANCH   4  18
TORSDOF 6
ENDMDL
MODEL 6
REMARK VINA RESULT:      -7.7      1.011      1.166
REMARK  Name = 
REMARK  7 active torsions:
REMARK  status: ('A' for Active; 'I' for Inactive)
REMARK    1  A    between atoms: C_1  and  C_2
REMARK    2  A    between atoms: C_2  and  O_3
REMARK    3  A    between atoms: C_5  and  C_6
REMARK    4  A    between atoms: C_5  and  C_16
REMARK    5  A    between atoms: C_9  and  C_10
REMARK    6  A    between atoms: C_16  and  O_17
REMARK    7  A    between atoms: C_16  and  C_18
REMARK                            x       y       z     vdW  Elec       q    Type
REMARK                         _______ _______ _______ _____ _____    ______ ____
ROOT
ATOM      1  C   UNL     1       6.210   4.486  17.059  0.00  0.00    +0.000 C 
ATOM      2  C   UNL     1       5.703   5.795  17.652  0.00  0.00    +0.000 C 
ATOM      3  C   UNL     1       4.910   5.708  18.982  0.00  0.00    +0.000 C 
ATOM      4  C   UNL     1       3.549   5.873  18.211  0.00  0.00    +0.000 C 
ATOM      5  C   UNL     1       4.425   6.323  16.969  0.00  0.00    +0.000 C 
ENDROOT
BRANCH   4   6
ATOM      6  C   UNL     1       2.557   7.088  18.676  0.00  0.00    +0.000 A 
ATOM      7  C   UNL     1       2.176   8.095  17.762  0.00  0.00    +0.000 A 
ATOM      8  C   UNL     1       1.492   9.247  18.156  0.00  0.00    +0.000 A 
ATOM      9  C   UNL     1       1.156   9.437  19.498  0.00  0.00    +0.000 A 
ATOM     10  C   UNL     1       1.433   8.409  20.408  0.00  0.00    +0.000 A 
ATOM     11  C   UNL     1       2.111   7.255  19.999  0.00  0.00    +0.000 A 
BRANCH   9  12
ATOM     12  C   UNL     1       0.560  10.739  19.976  0.00  0.00    +0.000 C 
ATOM     13  F   UNL     1      -0.619  11.054  19.371  0.00  0.00    +0.000 F 
ATOM     14  F   UNL     1       0.315  10.748  21.312  0.00  0.00    +0.000 F 
ATOM     15  F   UNL     1       1.390  11.795  19.738  0.00  0.00    +0.000 F 
ENDBRANCH   9  12
ENDBRANCH   4   6
BRANCH   2  16
ATOM     16  O   UNL     1       6.814   6.718  17.688  0.00  0.00    +0.000 OA
ATOM     17  H   UNL     1       7.402   6.462  16.956  0.00  0.00    +0.000 HD
ENDBRANCH   2  16
BRANCH   4  18
ATOM     18  C   UNL     1       2.791   4.530  18.011  0.00  0.00    +0.000 C 
BRANCH  18  19
ATOM     19  C   UNL     1       2.612   3.770  19.318  0.00  0.00    +0.000 A 
ATOM     20  C   UNL     1       1.427   3.882  20.047  0.00  0.00    +0.000 A 
ATOM     21  C   UNL     1       1.312   3.206  21.259  0.00  0.00    +0.000 A 
ATOM     22  C   UNL     1       2.374   2.436  21.712  0.00  0.00    +0.000 A 
ATOM     23  C   UNL     1       3.520   2.381  20.936  0.00  0.00    +0.000 A 
ATOM     24  N   UNL     1       3.665   3.040  19.766  0.00  0.00    +0.000 NA
ENDBRANCH  18  19
BRANCH  18  25
ATOM     25  O   UNL     1       1.506   4.763  17.419  0.00  0.00    +0.000 OA
ATOM     26  H   UNL     1       1.639   5.544  16.844  0.00  0.00    +0.000 HD
ENDBRANCH  18  25
ENDBRANCH   4  18
TORSDOF 6
ENDMDL
MODEL 7
REMARK VINA RESULT:      -7.6      1.956      4.281
REMARK  Name = 
REMARK  7 active torsions:
REMARK  status: ('A' for Active; 'I' for Inactive)
REMARK    1  A    between atoms: C_1  and  C_2
REMARK    2  A    between atoms: C_2  and  O_3
REMARK    3  A    between atoms: C_5  and  C_6
REMARK    4  A    between atoms: C_5  and  C_16
REMARK    5  A    between atoms: C_9  and  C_10
REMARK    6  A    between atoms: C_16  and  O_17
REMARK    7  A    between atoms: C_16  and  C_18
REMARK                            x       y       z     vdW  Elec       q    Type
REMARK                         _______ _______ _______ _____ _____    ______ ____
ROOT
ATOM      1  C   UNL     1       2.257   2.142  19.809  0.00  0.00    +0.000 C 
ATOM      2  C   UNL     1       1.477   3.438  19.625  0.00  0.00    +0.000 C 
ATOM      3  C   UNL     1       1.796   4.282  18.364  0.00  0.00    +0.000 C 
ATOM      4  C   UNL     1       2.668   5.275  19.218  0.00  0.00    +0.000 C 
ATOM      5  C   UNL     1       2.007   4.600  20.489  0.00  0.00    +0.000 C 
ENDROOT
BRANCH   4   6
ATOM      6  C   UNL     1       2.287   6.864  19.154  0.00  0.00    +0.000 A 
ATOM      7  C   UNL     1       1.839   7.543  20.309  0.00  0.00    +0.000 A 
ATOM      8  C   UNL     1       1.324   8.840  20.266  0.00  0.00    +0.000 A 
ATOM      9  C   UNL     1       1.239   9.518  19.049  0.00  0.00    +0.000 A 
ATOM     10  C   UNL     1       1.768   8.908  17.904  0.00  0.00    +0.000 A 
ATOM     11  C   UNL     1       2.289   7.610  17.963  0.00  0.00    +0.000 A 
BRANCH   9  12
ATOM     12  C   UNL     1       0.543  10.854  18.948  0.00  0.00    +0.000 C 
ATOM     13  F   UNL     1      -0.548  10.841  18.131  0.00  0.00    +0.000 F 
ATOM     14  F   UNL     1       0.110  11.317  20.149  0.00  0.00    +0.000 F 
ATOM     15  F   UNL     1       1.367  11.819  18.448  0.00  0.00    +0.000 F 
ENDBRANCH   9  12
ENDBRANCH   4   6
BRANCH   2  16
ATOM     16  O   UNL     1       0.075   3.131  19.790  0.00  0.00    +0.000 OA
ATOM     17  H   UNL     1      -0.045   2.910  20.729  0.00  0.00    +0.000 HD
ENDBRANCH   2  16
BRANCH   4  18
ATOM     18  C   UNL     1       4.197   5.023  19.078  0.00  0.00    +0.000 C 
BRANCH  18  19
ATOM     19  C   UNL     1       4.657   5.067  17.627  0.00  0.00    +0.000 A 
ATOM     20  C   UNL     1       4.739   3.896  16.872  0.00  0.00    +0.000 A 
ATOM     21  C   UNL     1       5.203   3.967  15.561  0.00  0.00    +0.000 A 
ATOM     22  C   UNL     1       5.570   5.198  15.035  0.00  0.00    +0.000 A 
ATOM     23  C   UNL     1       5.469   6.314  15.850  0.00  0.00    +0.000 A 
ATOM     24  N   UNL     1       5.039   6.272  17.130  0.00  0.00    +0.000 NA
ENDBRANCH  18  19
BRANCH  18  25
ATOM     25  O   UNL     1       4.935   5.988  19.838  0.00  0.00    +0.000 OA
ATOM     26  H   UNL     1       4.910   5.649  20.756  0.00  0.00    +0.000 HD
ENDBRANCH  18  25
ENDBRANCH   4  18
TORSDOF 6
ENDMDL
MODEL 8
REMARK VINA RESULT:      -7.5      1.956      4.317
REMARK  Name = 
REMARK  7 active torsions:
REMARK  status: ('A' for Active; 'I' for Inactive)
REMARK    1  A    between atoms: C_1  and  C_2
REMARK    2  A    between atoms: C_2  and  O_3
REMARK    3  A    between atoms: C_5  and  C_6
REMARK    4  A    between atoms: C_5  and  C_16
REMARK    5  A    between atoms: C_9  and  C_10
REMARK    6  A    between atoms: C_16  and  O_17
REMARK    7  A    between atoms: C_16  and  C_18
REMARK                            x       y       z     vdW  Elec       q    Type
REMARK                         _______ _______ _______ _____ _____    ______ ____
ROOT
ATOM      1  C   UNL     1       3.237   1.400  18.391  0.00  0.00    +0.000 C 
ATOM      2  C   UNL     1       2.319   2.604  18.561  0.00  0.00    +0.000 C 
ATOM      3  C   UNL     1       2.520   3.790  17.583  0.00  0.00    +0.000 C 
ATOM      4  C   UNL     1       3.297   4.600  18.685  0.00  0.00    +0.000 C 
ATOM      5  C   UNL     1       2.738   3.536  19.716  0.00  0.00    +0.000 C 
ENDROOT
BRANCH   4   6
ATOM      6  C   UNL     1       2.747   6.095  19.055  0.00  0.00    +0.000 A 
ATOM      7  C   UNL     1       2.234   6.373  20.343  0.00  0.00    +0.000 A 
ATOM      8  C   UNL     1       1.582   7.569  20.649  0.00  0.00    +0.000 A 
ATOM      9  C   UNL     1       1.417   8.548  19.666  0.00  0.00    +0.000 A 
ATOM     10  C   UNL     1       2.002   8.339  18.411  0.00  0.00    +0.000 A 
ATOM     11  C   UNL     1       2.661   7.140  18.119  0.00  0.00    +0.000 A 
BRANCH   9  12
ATOM     12  C   UNL     1       0.581   9.777  19.923  0.00  0.00    +0.000 C 
ATOM     13  F   UNL     1      -0.700   9.499  20.294  0.00  0.00    +0.000 F 
ATOM     14  F   UNL     1       1.093  10.571  20.900  0.00  0.00    +0.000 F 
ATOM     15  F   UNL     1       0.481  10.565  18.813  0.00  0.00    +0.000 F 
ENDBRANCH   9  12
ENDBRANCH   4   6
BRANCH   2  16
ATOM     16  O   UNL     1       0.961   2.113  18.622  0.00  0.00    +0.000 OA
ATOM     17  H   UNL     1       1.018   1.202  18.960  0.00  0.00    +0.000 HD
ENDBRANCH   2  16
BRANCH   4  18
ATOM     18  C   UNL     1       4.841   4.564  18.497  0.00  0.00    +0.000 C 
BRANCH  18  19
ATOM     19  C   UNL     1       5.246   4.703  17.035  0.00  0.00    +0.000 A 
ATOM     20  C   UNL     1       5.694   3.594  16.315  0.00  0.00    +0.000 A 
ATOM     21  C   UNL     1       6.096   3.764  14.993  0.00  0.00    +0.000 A 
ATOM     22  C   UNL     1       6.038   5.027  14.421  0.00  0.00    +0.000 A 
ATOM     23  C   UNL     1       5.589   6.079  15.203  0.00  0.00    +0.000 A 
ATOM     24  N   UNL     1       5.210   5.946  16.493  0.00  0.00    +0.000 NA
ENDBRANCH  18  19
BRANCH  18  25
ATOM     25  O   UNL     1       5.463   5.606  19.260  0.00  0.00    +0.000 OA
ATOM     26  H   UNL     1       5.045   6.430  18.937  0.00  0.00    +0.000 HD
ENDBRANCH  18  25
ENDBRANCH   4  18
TORSDOF 6
ENDMDL
MODEL 9
REMARK VINA RESULT:      -7.5      1.807      4.343
REMARK  Name = 
REMARK  7 active torsions:
REMARK  status: ('A' for Active; 'I' for Inactive)
REMARK    1  A    between atoms: C_1  and  C_2
REMARK    2  A    between atoms: C_2  and  O_3
REMARK    3  A    between atoms: C_5  and  C_6
REMARK    4  A    between atoms: C_5  and  C_16
REMARK    5  A    between atoms: C_9  and  C_10
REMARK    6  A    between atoms: C_16  and  O_17
REMARK    7  A    between atoms: C_16  and  C_18
REMARK                            x       y       z     vdW  Elec       q    Type
REMARK                         _______ _______ _______ _____ _____    ______ ____
ROOT
ATOM      1  C   UNL     1       3.514   1.248  18.599  0.00  0.00    +0.000 C 
ATOM      2  C   UNL     1       2.631   2.487  18.511  0.00  0.00    +0.000 C 
ATOM      3  C   UNL     1       3.032   3.569  17.474  0.00  0.00    +0.000 C 
ATOM      4  C   UNL     1       3.660   4.460  18.609  0.00  0.00    +0.000 C 
ATOM      5  C   UNL     1       2.902   3.514  19.629  0.00  0.00    +0.000 C 
ENDROOT
BRANCH   4   6
ATOM      6  C   UNL     1       3.120   5.997  18.750  0.00  0.00    +0.000 A 
ATOM      7  C   UNL     1       2.442   6.417  19.916  0.00  0.00    +0.000 A 
ATOM      8  C   UNL     1       1.800   7.653  20.008  0.00  0.00    +0.000 A 
ATOM      9  C   UNL     1       1.813   8.531  18.922  0.00  0.00    +0.000 A 
ATOM     10  C   UNL     1       2.562   8.182  17.790  0.00  0.00    +0.000 A 
ATOM     11  C   UNL     1       3.208   6.944  17.714  0.00  0.00    +0.000 A 
BRANCH   9  12
ATOM     12  C   UNL     1       0.997   9.800  18.935  0.00  0.00    +0.000 C 
ATOM     13  F   UNL     1       0.103   9.885  17.910  0.00  0.00    +0.000 F 
ATOM     14  F   UNL     1       0.278   9.955  20.077  0.00  0.00    +0.000 F 
ATOM     15  F   UNL     1       1.783  10.910  18.832  0.00  0.00    +0.000 F 
ENDBRANCH   9  12
ENDBRANCH   4   6
BRANCH   2  16
ATOM     16  O   UNL     1       1.261   2.040  18.397  0.00  0.00    +0.000 OA
ATOM     17  H   UNL     1       0.771   2.488  19.108  0.00  0.00    +0.000 HD
ENDBRANCH   2  16
BRANCH   4  18
ATOM     18  C   UNL     1       5.211   4.365  18.674  0.00  0.00    +0.000 C 
BRANCH  18  19
ATOM     19  C   UNL     1       5.858   4.574  17.311  0.00  0.00    +0.000 A 
ATOM     20  C   UNL     1       6.604   5.725  17.049  0.00  0.00    +0.000 A 
ATOM     21  C   UNL     1       7.147   5.904  15.780  0.00  0.00    +0.000 A 
ATOM     22  C   UNL     1       6.939   4.935  14.808  0.00  0.00    +0.000 A 
ATOM     23  C   UNL     1       6.181   3.825  15.142  0.00  0.00    +0.000 A 
ATOM     24  N   UNL     1       5.627   3.634  16.360  0.00  0.00    +0.000 NA
ENDBRANCH  18  19
BRANCH  18  25
ATOM     25  O   UNL     1       5.733   5.328  19.598  0.00  0.00    +0.000 OA
ATOM     26  H   UNL     1       5.245   6.152  19.396  0.00  0.00    +0.000 HD
ENDBRANCH  18  25
ENDBRANCH   4  18
TORSDOF 6
ENDMDL
