MODEL 1
REMARK VINA RESULT:      -7.0      0.000      0.000
REMARK  Name = 
REMARK  12 active torsions:
REMARK  status: ('A' for Active; 'I' for Inactive)
REMARK    1  A    between atoms: C_1  and  C_2
REMARK    2  A    between atoms: C_2  and  C_3
REMARK    3  A    between atoms: C_2  and  C_4
REMARK    4  A    between atoms: C_2  and  O_5
REMARK    5  A    between atoms: O_5  and  C_6
REMARK    6  A    between atoms: N_8  and  C_9
REMARK    7  A    between atoms: C_9  and  C_10
REMARK    8  A    between atoms: C_9  and  C_17
REMARK    9  A    between atoms: C_10  and  C_11
REMARK   10  A    between atoms: C_19  and  C_20
REMARK   11  A    between atoms: C_20  and  C_21
REMARK   12  A    between atoms: C_21  and  O_22
REMARK                            x       y       z     vdW  Elec       q    Type
REMARK                         _______ _______ _______ _____ _____    ______ ____
ROOT
ATOM      1  C   UNL     1       3.105   6.769  17.929  0.00  0.00    +0.000 C 
ENDROOT
BRANCH   1   2
ATOM      2  C   UNL     1       2.993   5.377  18.485  0.00  0.00    +0.000 A 
ATOM      3  N   UNL     1       3.155   4.962  19.726  0.00  0.00    +0.000 NA
ATOM      4  C   UNL     1       2.956   3.610  19.606  0.00  0.00    +0.000 A 
ATOM      5  N   UNL     1       2.652   3.191  18.371  0.00  0.00    +0.000 NA
ATOM      6  O   UNL     1       2.661   4.371  17.622  0.00  0.00    +0.000 OA
BRANCH   4   7
ATOM      7  C   UNL     1       3.036   2.684  20.770  0.00  0.00    +0.000 C 
BRANCH   7   8
ATOM      8  C   UNL     1       1.730   2.604  21.560  0.00  0.00    +0.000 C 
BRANCH   8   9
ATOM      9  O   UNL     1       0.629   3.106  20.805  0.00  0.00    +0.000 OA
ATOM     10  H   UNL     1       0.876   4.008  20.529  0.00  0.00    +0.000 HD
ENDBRANCH   8   9
ENDBRANCH   7   8
ENDBRANCH   4   7
ENDBRANCH   1   2
BRANCH   1  13
ATOM     11  C   UNL     1       1.853   8.881  18.394  0.00  0.00    +0.000 C 
ATOM     12  O   UNL     1       2.055   9.374  17.300  0.00  0.00    +0.000 OA
ATOM     13  N   UNL     1       2.313   7.658  18.781  0.00  0.00    +0.000 N 
ATOM     14  H   UNL     1       2.036   7.337  19.696  0.00  0.00    +0.000 HD
BRANCH  11  15
ATOM     15  O   UNL     1       1.175   9.455  19.418  0.00  0.00    +0.000 OA
BRANCH  15  17
ATOM     16  C   UNL     1      -0.801  10.208  18.135  0.00  0.00    +0.000 C 
ATOM     17  C   UNL     1       0.255  10.558  19.185  0.00  0.00    +0.000 C 
ATOM     18  C   UNL     1       0.992  11.853  18.816  0.00  0.00    +0.000 C 
ATOM     19  C   UNL     1      -0.462  10.780  20.533  0.00  0.00    +0.000 C 
ENDBRANCH  15  17
ENDBRANCH  11  15
ENDBRANCH   1  13
BRANCH   1  20
ATOM     20  C   UNL     1       4.582   7.201  17.740  0.00  0.00    +0.000 C 
BRANCH  20  21
ATOM     21  C   UNL     1       5.443   6.245  16.942  0.00  0.00    +0.000 A 
ATOM     22  C   UNL     1       5.210   6.033  15.576  0.00  0.00    +0.000 A 
ATOM     23  C   UNL     1       5.959   5.088  14.870  0.00  0.00    +0.000 A 
ATOM     24  C   UNL     1       6.945   4.349  15.521  0.00  0.00    +0.000 A 
ATOM     25  C   UNL     1       7.214   4.584  16.867  0.00  0.00    +0.000 A 
ATOM     26  C   UNL     1       6.476   5.537  17.570  0.00  0.00    +0.000 A 
ENDBRANCH  20  21
ENDBRANCH   1  20
TORSDOF 9
ENDMDL
MODEL 2
REMARK VINA RESULT:      -6.9      2.058      6.752
REMARK  Name = 
REMARK  12 active torsions:
REMARK  status: ('A' for Active; 'I' for Inactive)
REMARK    1  A    between atoms: C_1  and  C_2
REMARK    2  A    between atoms: C_2  and  C_3
REMARK    3  A    between atoms: C_2  and  C_4
REMARK    4  A    between atoms: C_2  and  O_5
REMARK    5  A    between atoms: O_5  and  C_6
REMARK    6  A    between atoms: N_8  and  C_9
REMARK    7  A    between atoms: C_9  and  C_10
REMARK    8  A    between atoms: C_9  and  C_17
REMARK    9  A    between atoms: C_10  and  C_11
REMARK   10  A    between atoms: C_19  and  C_20
REMARK   11  A    between atoms: C_20  and  C_21
REMARK   12  A    between atoms: C_21  and  O_22
REMARK                            x       y       z     vdW  Elec       q    Type
REMARK                         _______ _______ _______ _____ _____    ______ ____
ROOT
ATOM      1  C   UNL     1       2.565   6.950  18.535  0.00  0.00    +0.000 C 
ENDROOT
BRANCH   1   2
ATOM      2  C   UNL     1       2.010   8.346  18.503  0.00  0.00    +0.000 A 
ATOM      3  N   UNL     1       1.344   8.997  19.437  0.00  0.00    +0.000 NA
ATOM      4  C   UNL     1       1.085  10.196  18.822  0.00  0.00    +0.000 A 
ATOM      5  N   UNL     1       1.583  10.316  17.585  0.00  0.00    +0.000 NA
ATOM      6  O   UNL     1       2.214   9.087  17.373  0.00  0.00    +0.000 OA
BRANCH   4   7
ATOM      7  C   UNL     1       0.338  11.295  19.496  0.00  0.00    +0.000 C 
BRANCH   7   8
ATOM      8  C   UNL     1      -0.818  11.834  18.655  0.00  0.00    +0.000 C 
BRANCH   8   9
ATOM      9  O   UNL     1      -0.357  12.718  17.634  0.00  0.00    +0.000 OA
ATOM     10  H   UNL     1       0.605  12.570  17.560  0.00  0.00    +0.000 HD
ENDBRANCH   8   9
ENDBRANCH   7   8
ENDBRANCH   4   7
ENDBRANCH   1   2
BRANCH   1  13
ATOM     11  C   UNL     1       4.588   6.104  17.336  0.00  0.00    +0.000 C 
ATOM     12  O   UNL     1       4.038   5.127  16.864  0.00  0.00    +0.000 OA
ATOM     13  N   UNL     1       3.973   7.017  18.140  0.00  0.00    +0.000 N 
ATOM     14  H   UNL     1       4.522   7.813  18.428  0.00  0.00    +0.000 HD
BRANCH  11  15
ATOM     15  O   UNL     1       5.891   6.443  17.181  0.00  0.00    +0.000 OA
BRANCH  15  17
ATOM     16  C   UNL     1       8.002   6.846  18.404  0.00  0.00    +0.000 C 
ATOM     17  C   UNL     1       6.929   5.834  18.000  0.00  0.00    +0.000 C 
ATOM     18  C   UNL     1       7.553   4.608  17.320  0.00  0.00    +0.000 C 
ATOM     19  C   UNL     1       6.208   5.360  19.279  0.00  0.00    +0.000 C 
ENDBRANCH  15  17
ENDBRANCH  11  15
ENDBRANCH   1  13
BRANCH   1  20
ATOM     20  C   UNL     1       2.308   6.254  19.897  0.00  0.00    +0.000 C 
BRANCH  20  21
ATOM     21  C   UNL     1       1.926   4.791  19.819  0.00  0.00    +0.000 A 
ATOM     22  C   UNL     1       1.555   4.206  18.600  0.00  0.00    +0.000 A 
ATOM     23  C   UNL     1       1.127   2.877  18.555  0.00  0.00    +0.000 A 
ATOM     24  C   UNL     1       1.066   2.122  19.726  0.00  0.00    +0.000 A 
ATOM     25  C   UNL     1       1.474   2.682  20.934  0.00  0.00    +0.000 A 
ATOM     26  C   UNL     1       1.914   4.004  20.978  0.00  0.00    +0.000 A 
ENDBRANCH  20  21
ENDBRANCH   1  20
TORSDOF 9
ENDMDL
MODEL 3
REMARK VINA RESULT:      -6.9      3.599      5.999
REMARK  Name = 
REMARK  12 active torsions:
REMARK  status: ('A' for Active; 'I' for Inactive)
REMARK    1  A    between atoms: C_1  and  C_2
REMARK    2  A    between atoms: C_2  and  C_3
REMARK    3  A    between atoms: C_2  and  C_4
REMARK    4  A    between atoms: C_2  and  O_5
REMARK    5  A    between atoms: O_5  and  C_6
REMARK    6  A    between atoms: N_8  and  C_9
REMARK    7  A    between atoms: C_9  and  C_10
REMARK    8  A    between atoms: C_9  and  C_17
REMARK    9  A    between atoms: C_10  and  C_11
REMARK   10  A    between atoms: C_19  and  C_20
REMARK   11  A    between atoms: C_20  and  C_21
REMARK   12  A    between atoms: C_21  and  O_22
REMARK                            x       y       z     vdW  Elec       q    Type
REMARK                         _______ _______ _______ _____ _____    ______ ____
ROOT
ATOM      1  C   UNL     1       5.894   4.148  16.952  0.00  0.00    +0.000 C 
ENDROOT
BRANCH   1   2
ATOM      2  C   UNL     1       6.789   5.074  17.726  0.00  0.00    +0.000 A 
ATOM      3  N   UNL     1       7.024   6.357  17.532  0.00  0.00    +0.000 NA
ATOM      4  C   UNL     1       7.932   6.636  18.521  0.00  0.00    +0.000 A 
ATOM      5  N   UNL     1       8.233   5.604  19.320  0.00  0.00    +0.000 NA
ATOM      6  O   UNL     1       7.460   4.562  18.800  0.00  0.00    +0.000 OA
BRANCH   4   7
ATOM      7  C   UNL     1       8.511   7.996  18.716  0.00  0.00    +0.000 C 
BRANCH   7   8
ATOM      8  C   UNL     1       7.967   9.023  17.724  0.00  0.00    +0.000 C 
BRANCH   8   9
ATOM      9  O   UNL     1       8.500  10.323  17.970  0.00  0.00    +0.000 OA
ATOM     10  H   UNL     1       9.385  10.186  18.358  0.00  0.00    +0.000 HD
ENDBRANCH   8   9
ENDBRANCH   7   8
ENDBRANCH   4   7
ENDBRANCH   1   2
BRANCH   1  13
ATOM     11  C   UNL     1       4.126   4.335  18.708  0.00  0.00    +0.000 C 
ATOM     12  O   UNL     1       4.157   5.550  18.768  0.00  0.00    +0.000 OA
ATOM     13  N   UNL     1       4.912   3.588  17.884  0.00  0.00    +0.000 N 
ATOM     14  H   UNL     1       4.758   2.591  17.888  0.00  0.00    +0.000 HD
BRANCH  11  15
ATOM     15  O   UNL     1       3.344   3.516  19.453  0.00  0.00    +0.000 OA
BRANCH  15  17
ATOM     16  C   UNL     1       1.655   5.042  20.419  0.00  0.00    +0.000 C 
ATOM     17  C   UNL     1       1.920   3.773  19.608  0.00  0.00    +0.000 C 
ATOM     18  C   UNL     1       1.181   2.569  20.208  0.00  0.00    +0.000 C 
ATOM     19  C   UNL     1       1.391   3.998  18.176  0.00  0.00    +0.000 C 
ENDBRANCH  15  17
ENDBRANCH  11  15
ENDBRANCH   1  13
BRANCH   1  20
ATOM     20  C   UNL     1       5.281   4.839  15.706  0.00  0.00    +0.000 C 
BRANCH  20  21
ATOM     21  C   UNL     1       5.977   4.549  14.393  0.00  0.00    +0.000 A 
ATOM     22  C   UNL     1       7.164   5.209  14.044  0.00  0.00    +0.000 A 
ATOM     23  C   UNL     1       7.753   4.992  12.796  0.00  0.00    +0.000 A 
ATOM     24  C   UNL     1       7.162   4.117  11.887  0.00  0.00    +0.000 A 
ATOM     25  C   UNL     1       6.006   3.424  12.241  0.00  0.00    +0.000 A 
ATOM     26  C   UNL     1       5.426   3.629  13.493  0.00  0.00    +0.000 A 
ENDBRANCH  20  21
ENDBRANCH   1  20
TORSDOF 9
ENDMDL
MODEL 4
REMARK VINA RESULT:      -6.9      2.032      6.840
REMARK  Name = 
REMARK  12 active torsions:
REMARK  status: ('A' for Active; 'I' for Inactive)
REMARK    1  A    between atoms: C_1  and  C_2
REMARK    2  A    between atoms: C_2  and  C_3
REMARK    3  A    between atoms: C_2  and  C_4
REMARK    4  A    between atoms: C_2  and  O_5
REMARK    5  A    between atoms: O_5  and  C_6
REMARK    6  A    between atoms: N_8  and  C_9
REMARK    7  A    between atoms: C_9  and  C_10
REMARK    8  A    between atoms: C_9  and  C_17
REMARK    9  A    between atoms: C_10  and  C_11
REMARK   10  A    between atoms: C_19  and  C_20
REMARK   11  A    between atoms: C_20  and  C_21
REMARK   12  A    between atoms: C_21  and  O_22
REMARK                            x       y       z     vdW  Elec       q    Type
REMARK                         _______ _______ _______ _____ _____    ______ ____
ROOT
ATOM      1  C   UNL     1       2.539   7.017  18.595  0.00  0.00    +0.000 C 
ENDROOT
BRANCH   1   2
ATOM      2  C   UNL     1       2.033   8.428  18.489  0.00  0.00    +0.000 A 
ATOM      3  N   UNL     1       1.262   9.099  19.323  0.00  0.00    +0.000 NA
ATOM      4  C   UNL     1       1.125  10.304  18.680  0.00  0.00    +0.000 A 
ATOM      5  N   UNL     1       1.793  10.408  17.525  0.00  0.00    +0.000 NA
ATOM      6  O   UNL     1       2.413   9.161  17.401  0.00  0.00    +0.000 OA
BRANCH   4   7
ATOM      7  C   UNL     1       0.321  11.424  19.246  0.00  0.00    +0.000 C 
BRANCH   7   8
ATOM      8  C   UNL     1       0.855  12.800  18.849  0.00  0.00    +0.000 C 
BRANCH   8   9
ATOM      9  O   UNL     1       2.254  12.915  19.104  0.00  0.00    +0.000 OA
ATOM     10  H   UNL     1       2.680  13.038  18.235  0.00  0.00    +0.000 HD
ENDBRANCH   8   9
ENDBRANCH   7   8
ENDBRANCH   4   7
ENDBRANCH   1   2
BRANCH   1  13
ATOM     11  C   UNL     1       4.452   5.981  17.365  0.00  0.00    +0.000 C 
ATOM     12  O   UNL     1       3.847   4.976  17.043  0.00  0.00    +0.000 OA
ATOM     13  N   UNL     1       3.917   6.996  18.100  0.00  0.00    +0.000 N 
ATOM     14  H   UNL     1       4.504   7.801  18.260  0.00  0.00    +0.000 HD
BRANCH  11  15
ATOM     15  O   UNL     1       5.749   6.260  17.084  0.00  0.00    +0.000 OA
BRANCH  15  17
ATOM     16  C   UNL     1       7.574   4.597  17.219  0.00  0.00    +0.000 C 
ATOM     17  C   UNL     1       6.826   5.736  17.912  0.00  0.00    +0.000 C 
ATOM     18  C   UNL     1       6.328   5.307  19.299  0.00  0.00    +0.000 C 
ATOM     19  C   UNL     1       7.805   6.914  18.095  0.00  0.00    +0.000 C 
ENDBRANCH  15  17
ENDBRANCH  11  15
ENDBRANCH   1  13
BRANCH   1  20
ATOM     20  C   UNL     1       2.356   6.440  20.023  0.00  0.00    +0.000 C 
BRANCH  20  21
ATOM     21  C   UNL     1       2.003   4.970  20.091  0.00  0.00    +0.000 A 
ATOM     22  C   UNL     1       1.439   4.311  18.989  0.00  0.00    +0.000 A 
ATOM     23  C   UNL     1       1.043   2.976  19.091  0.00  0.00    +0.000 A 
ATOM     24  C   UNL     1       1.206   2.288  20.292  0.00  0.00    +0.000 A 
ATOM     25  C   UNL     1       1.805   2.920  21.379  0.00  0.00    +0.000 A 
ATOM     26  C   UNL     1       2.214   4.250  21.274  0.00  0.00    +0.000 A 
ENDBRANCH  20  21
ENDBRANCH   1  20
TORSDOF 9
ENDMDL
MODEL 5
REMARK VINA RESULT:      -6.9      1.826      6.910
REMARK  Name = 
REMARK  12 active torsions:
REMARK  status: ('A' for Active; 'I' for Inactive)
REMARK    1  A    between atoms: C_1  and  C_2
REMARK    2  A    between atoms: C_2  and  C_3
REMARK    3  A    between atoms: C_2  and  C_4
REMARK    4  A    between atoms: C_2  and  O_5
REMARK    5  A    between atoms: O_5  and  C_6
REMARK    6  A    between atoms: N_8  and  C_9
REMARK    7  A    between atoms: C_9  and  C_10
REMARK    8  A    between atoms: C_9  and  C_17
REMARK    9  A    between atoms: C_10  and  C_11
REMARK   10  A    between atoms: C_19  and  C_20
REMARK   11  A    between atoms: C_20  and  C_21
REMARK   12  A    between atoms: C_21  and  O_22
REMARK                            x       y       z     vdW  Elec       q    Type
REMARK                         _______ _______ _______ _____ _____    ______ ____
ROOT
ATOM      1  C   UNL     1       2.346   6.687  18.832  0.00  0.00    +0.000 C 
ENDROOT
BRANCH   1   2
ATOM      2  C   UNL     1       2.108   8.141  18.539  0.00  0.00    +0.000 A 
ATOM      3  N   UNL     1       1.482   9.045  19.267  0.00  0.00    +0.000 NA
ATOM      4  C   UNL     1       1.565  10.161  18.474  0.00  0.00    +0.000 A 
ATOM      5  N   UNL     1       2.233   9.991  17.326  0.00  0.00    +0.000 NA
ATOM      6  O   UNL     1       2.610   8.646  17.372  0.00  0.00    +0.000 OA
BRANCH   4   7
ATOM      7  C   UNL     1       0.988  11.474  18.879  0.00  0.00    +0.000 C 
BRANCH   7   8
ATOM      8  C   UNL     1       1.984  12.627  18.758  0.00  0.00    +0.000 C 
BRANCH   8   9
ATOM      9  O   UNL     1       2.339  12.874  17.399  0.00  0.00    +0.000 OA
ATOM     10  H   UNL     1       2.473  13.837  17.323  0.00  0.00    +0.000 HD
ENDBRANCH   8   9
ENDBRANCH   7   8
ENDBRANCH   4   7
ENDBRANCH   1   2
BRANCH   1  13
ATOM     11  C   UNL     1       4.196   5.331  17.841  0.00  0.00    +0.000 C 
ATOM     12  O   UNL     1       3.467   4.493  17.343  0.00  0.00    +0.000 OA
ATOM     13  N   UNL     1       3.756   6.398  18.564  0.00  0.00    +0.000 N 
ATOM     14  H   UNL     1       4.456   7.052  18.883  0.00  0.00    +0.000 HD
BRANCH  11  15
ATOM     15  O   UNL     1       5.551   5.341  17.796  0.00  0.00    +0.000 OA
BRANCH  15  17
ATOM     16  C   UNL     1       5.330   6.545  15.647  0.00  0.00    +0.000 C 
ATOM     17  C   UNL     1       6.260   5.810  16.615  0.00  0.00    +0.000 C 
ATOM     18  C   UNL     1       7.009   4.674  15.905  0.00  0.00    +0.000 C 
ATOM     19  C   UNL     1       7.301   6.819  17.141  0.00  0.00    +0.000 C 
ENDBRANCH  15  17
ENDBRANCH  11  15
ENDBRANCH   1  13
BRANCH   1  20
ATOM     20  C   UNL     1       1.864   6.295  20.254  0.00  0.00    +0.000 C 
BRANCH  20  21
ATOM     21  C   UNL     1       1.732   4.809  20.509  0.00  0.00    +0.000 A 
ATOM     22  C   UNL     1       2.378   4.203  21.596  0.00  0.00    +0.000 A 
ATOM     23  C   UNL     1       2.314   2.819  21.774  0.00  0.00    +0.000 A 
ATOM     24  C   UNL     1       1.605   2.030  20.870  0.00  0.00    +0.000 A 
ATOM     25  C   UNL     1       0.923   2.627  19.813  0.00  0.00    +0.000 A 
ATOM     26  C   UNL     1       0.976   4.011  19.642  0.00  0.00    +0.000 A 
ENDBRANCH  20  21
ENDBRANCH   1  20
TORSDOF 9
ENDMDL
MODEL 6
REMARK VINA RESULT:      -6.8      2.006      6.623
REMARK  Name = 
REMARK  12 active torsions:
REMARK  status: ('A' for Active; 'I' for Inactive)
REMARK    1  A    between atoms: C_1  and  C_2
REMARK    2  A    between atoms: C_2  and  C_3
REMARK    3  A    between atoms: C_2  and  C_4
REMARK    4  A    between atoms: C_2  and  O_5
REMARK    5  A    between atoms: O_5  and  C_6
REMARK    6  A    between atoms: N_8  and  C_9
REMARK    7  A    between atoms: C_9  and  C_10
REMARK    8  A    between atoms: C_9  and  C_17
REMARK    9  A    between atoms: C_10  and  C_11
REMARK   10  A    between atoms: C_19  and  C_20
REMARK   11  A    between atoms: C_20  and  C_21
REMARK   12  A    between atoms: C_21  and  O_22
REMARK                            x       y       z     vdW  Elec       q    Type
REMARK                         _______ _______ _______ _____ _____    ______ ____
ROOT
ATOM      1  C   UNL     1       2.567   6.928  18.592  0.00  0.00    +0.000 C 
ENDROOT
BRANCH   1   2
ATOM      2  C   UNL     1       2.037   8.332  18.506  0.00  0.00    +0.000 A 
ATOM      3  N   UNL     1       1.317   9.004  19.383  0.00  0.00    +0.000 NA
ATOM      4  C   UNL     1       1.120  10.199  18.738  0.00  0.00    +0.000 A 
ATOM      5  N   UNL     1       1.707  10.297  17.538  0.00  0.00    +0.000 NA
ATOM      6  O   UNL     1       2.333   9.056  17.386  0.00  0.00    +0.000 OA
BRANCH   4   7
ATOM      7  C   UNL     1       0.344  11.316  19.345  0.00  0.00    +0.000 C 
BRANCH   7   8
ATOM      8  C   UNL     1      -0.611  10.852  20.444  0.00  0.00    +0.000 C 
BRANCH   8   9
ATOM      9  O   UNL     1       0.077  10.616  21.671  0.00  0.00    +0.000 OA
ATOM     10  H   UNL     1      -0.541  10.867  22.383  0.00  0.00    +0.000 HD
ENDBRANCH   8   9
ENDBRANCH   7   8
ENDBRANCH   4   7
ENDBRANCH   1   2
BRANCH   1  13
ATOM     11  C   UNL     1       4.505   5.938  17.363  0.00  0.00    +0.000 C 
ATOM     12  O   UNL     1       3.921   4.922  17.036  0.00  0.00    +0.000 OA
ATOM     13  N   UNL     1       3.947   6.938  18.102  0.00  0.00    +0.000 N 
ATOM     14  H   UNL     1       4.516   7.754  18.267  0.00  0.00    +0.000 HD
BRANCH  11  15
ATOM     15  O   UNL     1       5.796   6.245  17.088  0.00  0.00    +0.000 OA
BRANCH  15  17
ATOM     16  C   UNL     1       7.869   6.874  18.280  0.00  0.00    +0.000 C 
ATOM     17  C   UNL     1       6.879   5.762  17.932  0.00  0.00    +0.000 C 
ATOM     18  C   UNL     1       7.598   4.556  17.311  0.00  0.00    +0.000 C 
ATOM     19  C   UNL     1       6.200   5.297  19.237  0.00  0.00    +0.000 C 
ENDBRANCH  15  17
ENDBRANCH  11  15
ENDBRANCH   1  13
BRANCH   1  20
ATOM     20  C   UNL     1       2.390   6.328  20.011  0.00  0.00    +0.000 C 
BRANCH  20  21
ATOM     21  C   UNL     1       1.953   4.879  20.055  0.00  0.00    +0.000 A 
ATOM     22  C   UNL     1       2.091   4.118  21.224  0.00  0.00    +0.000 A 
ATOM     23  C   UNL     1       1.759   2.760  21.227  0.00  0.00    +0.000 A 
ATOM     24  C   UNL     1       1.287   2.153  20.065  0.00  0.00    +0.000 A 
ATOM     25  C   UNL     1       1.105   2.911  18.910  0.00  0.00    +0.000 A 
ATOM     26  C   UNL     1       1.423   4.270  18.910  0.00  0.00    +0.000 A 
ENDBRANCH  20  21
ENDBRANCH   1  20
TORSDOF 9
ENDMDL
MODEL 7
REMARK VINA RESULT:      -6.8      0.861      1.521
REMARK  Name = 
REMARK  12 active torsions:
REMARK  status: ('A' for Active; 'I' for Inactive)
REMARK    1  A    between atoms: C_1  and  C_2
REMARK    2  A    between atoms: C_2  and  C_3
REMARK    3  A    between atoms: C_2  and  C_4
REMARK    4  A    between atoms: C_2  and  O_5
REMARK    5  A    between atoms: O_5  and  C_6
REMARK    6  A    between atoms: N_8  and  C_9
REMARK    7  A    between atoms: C_9  and  C_10
REMARK    8  A    between atoms: C_9  and  C_17
REMARK    9  A    between atoms: C_10  and  C_11
REMARK   10  A    between atoms: C_19  and  C_20
REMARK   11  A    between atoms: C_20  and  C_21
REMARK   12  A    between atoms: C_21  and  O_22
REMARK                            x       y       z     vdW  Elec       q    Type
REMARK                         _______ _______ _______ _____ _____    ______ ____
ROOT
ATOM      1  C   UNL     1       2.993   6.840  17.916  0.00  0.00    +0.000 C 
ENDROOT
BRANCH   1   2
ATOM      2  C   UNL     1       2.826   5.445  18.448  0.00  0.00    +0.000 A 
ATOM      3  N   UNL     1       3.201   4.948  19.610  0.00  0.00    +0.000 NA
ATOM      4  C   UNL     1       2.807   3.638  19.503  0.00  0.00    +0.000 A 
ATOM      5  N   UNL     1       2.187   3.326  18.358  0.00  0.00    +0.000 NA
ATOM      6  O   UNL     1       2.185   4.534  17.655  0.00  0.00    +0.000 OA
BRANCH   4   7
ATOM      7  C   UNL     1       3.018   2.648  20.596  0.00  0.00    +0.000 C 
BRANCH   7   8
ATOM      8  C   UNL     1       4.403   2.001  20.556  0.00  0.00    +0.000 C 
BRANCH   8   9
ATOM      9  O   UNL     1       5.200   2.534  19.500  0.00  0.00    +0.000 OA
ATOM     10  H   UNL     1       5.087   1.930  18.742  0.00  0.00    +0.000 HD
ENDBRANCH   8   9
ENDBRANCH   7   8
ENDBRANCH   4   7
ENDBRANCH   1   2
BRANCH   1  13
ATOM     11  C   UNL     1       1.795   8.979  18.403  0.00  0.00    +0.000 C 
ATOM     12  O   UNL     1       1.992   9.470  17.308  0.00  0.00    +0.000 OA
ATOM     13  N   UNL     1       2.233   7.745  18.781  0.00  0.00    +0.000 N 
ATOM     14  H   UNL     1       1.963   7.428  19.700  0.00  0.00    +0.000 HD
BRANCH  11  15
ATOM     15  O   UNL     1       1.144   9.565  19.438  0.00  0.00    +0.000 OA
BRANCH  15  17
ATOM     16  C   UNL     1      -0.857  10.221  18.143  0.00  0.00    +0.000 C 
ATOM     17  C   UNL     1       0.164  10.617  19.211  0.00  0.00    +0.000 C 
ATOM     18  C   UNL     1       0.829  11.958  18.870  0.00  0.00    +0.000 C 
ATOM     19  C   UNL     1      -0.579  10.775  20.553  0.00  0.00    +0.000 C 
ENDBRANCH  15  17
ENDBRANCH  11  15
ENDBRANCH   1  13
BRANCH   1  20
ATOM     20  C   UNL     1       4.487   7.219  17.738  0.00  0.00    +0.000 C 
BRANCH  20  21
ATOM     21  C   UNL     1       5.329   6.208  16.990  0.00  0.00    +0.000 A 
ATOM     22  C   UNL     1       6.353   5.501  17.637  0.00  0.00    +0.000 A 
ATOM     23  C   UNL     1       7.175   4.631  16.917  0.00  0.00    +0.000 A 
ATOM     24  C   UNL     1       6.982   4.459  15.547  0.00  0.00    +0.000 A 
ATOM     25  C   UNL     1       5.940   5.123  14.904  0.00  0.00    +0.000 A 
ATOM     26  C   UNL     1       5.110   5.982  15.625  0.00  0.00    +0.000 A 
ENDBRANCH  20  21
ENDBRANCH   1  20
TORSDOF 9
ENDMDL
MODEL 8
REMARK VINA RESULT:      -6.8      0.845      1.575
REMARK  Name = 
REMARK  12 active torsions:
REMARK  status: ('A' for Active; 'I' for Inactive)
REMARK    1  A    between atoms: C_1  and  C_2
REMARK    2  A    between atoms: C_2  and  C_3
REMARK    3  A    between atoms: C_2  and  C_4
REMARK    4  A    between atoms: C_2  and  O_5
REMARK    5  A    between atoms: O_5  and  C_6
REMARK    6  A    between atoms: N_8  and  C_9
REMARK    7  A    between atoms: C_9  and  C_10
REMARK    8  A    between atoms: C_9  and  C_17
REMARK    9  A    between atoms: C_10  and  C_11
REMARK   10  A    between atoms: C_19  and  C_20
REMARK   11  A    between atoms: C_20  and  C_21
REMARK   12  A    between atoms: C_21  and  O_22
REMARK                            x       y       z     vdW  Elec       q    Type
REMARK                         _______ _______ _______ _____ _____    ______ ____
ROOT
ATOM      1  C   UNL     1       2.985   6.607  18.155  0.00  0.00    +0.000 C 
ENDROOT
BRANCH   1   2
ATOM      2  C   UNL     1       2.381   5.263  18.451  0.00  0.00    +0.000 A 
ATOM      3  N   UNL     1       2.010   4.756  19.609  0.00  0.00    +0.000 NA
ATOM      4  C   UNL     1       1.567   3.508  19.248  0.00  0.00    +0.000 A 
ATOM      5  N   UNL     1       1.621   3.247  17.936  0.00  0.00    +0.000 NA
ATOM      6  O   UNL     1       2.151   4.423  17.397  0.00  0.00    +0.000 OA
BRANCH   4   7
ATOM      7  C   UNL     1       1.033   2.532  20.239  0.00  0.00    +0.000 C 
BRANCH   7   8
ATOM      8  C   UNL     1       1.656   2.686  21.625  0.00  0.00    +0.000 C 
BRANCH   8   9
ATOM      9  O   UNL     1       3.078   2.580  21.576  0.00  0.00    +0.000 OA
ATOM     10  H   UNL     1       3.402   3.427  21.217  0.00  0.00    +0.000 HD
ENDBRANCH   8   9
ENDBRANCH   7   8
ENDBRANCH   4   7
ENDBRANCH   1   2
BRANCH   1  13
ATOM     11  C   UNL     1       1.906   8.840  18.465  0.00  0.00    +0.000 C 
ATOM     12  O   UNL     1       2.169   9.247  17.348  0.00  0.00    +0.000 OA
ATOM     13  N   UNL     1       2.256   7.610  18.934  0.00  0.00    +0.000 N 
ATOM     14  H   UNL     1       1.936   7.368  19.861  0.00  0.00    +0.000 HD
BRANCH  11  15
ATOM     15  O   UNL     1       1.260   9.529  19.437  0.00  0.00    +0.000 OA
BRANCH  15  17
ATOM     16  C   UNL     1      -0.713  10.727  20.324  0.00  0.00    +0.000 C 
ATOM     17  C   UNL     1       0.180  10.450  19.114  0.00  0.00    +0.000 C 
ATOM     18  C   UNL     1      -0.649   9.966  17.916  0.00  0.00    +0.000 C 
ATOM     19  C   UNL     1       0.876  11.768  18.717  0.00  0.00    +0.000 C 
ENDBRANCH  15  17
ENDBRANCH  11  15
ENDBRANCH   1  13
BRANCH   1  20
ATOM     20  C   UNL     1       4.521   6.613  18.372  0.00  0.00    +0.000 C 
BRANCH  20  21
ATOM     21  C   UNL     1       5.328   5.864  17.334  0.00  0.00    +0.000 A 
ATOM     22  C   UNL     1       6.433   5.084  17.702  0.00  0.00    +0.000 A 
ATOM     23  C   UNL     1       7.217   4.463  16.726  0.00  0.00    +0.000 A 
ATOM     24  C   UNL     1       6.904   4.615  15.377  0.00  0.00    +0.000 A 
ATOM     25  C   UNL     1       5.783   5.352  15.003  0.00  0.00    +0.000 A 
ATOM     26  C   UNL     1       4.991   5.961  15.977  0.00  0.00    +0.000 A 
ENDBRANCH  20  21
ENDBRANCH   1  20
TORSDOF 9
ENDMDL
MODEL 9
REMARK VINA RESULT:      -6.8      1.524      5.036
REMARK  Name = 
REMARK  12 active torsions:
REMARK  status: ('A' for Active; 'I' for Inactive)
REMARK    1  A    between atoms: C_1  and  C_2
REMARK    2  A    between atoms: C_2  and  C_3
REMARK    3  A    between atoms: C_2  and  C_4
REMARK    4  A    between atoms: C_2  and  O_5
REMARK    5  A    between atoms: O_5  and  C_6
REMARK    6  A    between atoms: N_8  and  C_9
REMARK    7  A    between atoms: C_9  and  C_10
REMARK    8  A    between atoms: C_9  and  C_17
REMARK    9  A    between atoms: C_10  and  C_11
REMARK   10  A    between atoms: C_19  and  C_20
REMARK   11  A    between atoms: C_20  and  C_21
REMARK   12  A    between atoms: C_21  and  O_22
REMARK                            x       y       z     vdW  Elec       q    Type
REMARK                         _______ _______ _______ _____ _____    ______ ____
ROOT
ATOM      1  C   UNL     1       3.584   7.100  18.116  0.00  0.00    +0.000 C 
ENDROOT
BRANCH   1   2
ATOM      2  C   UNL     1       2.497   8.110  18.357  0.00  0.00    +0.000 A 
ATOM      3  N   UNL     1       1.795   8.329  19.451  0.00  0.00    +0.000 NA
ATOM      4  C   UNL     1       0.953   9.337  19.055  0.00  0.00    +0.000 A 
ATOM      5  N   UNL     1       1.128   9.759  17.797  0.00  0.00    +0.000 NA
ATOM      6  O   UNL     1       2.170   8.951  17.331  0.00  0.00    +0.000 OA
BRANCH   4   7
ATOM      7  C   UNL     1      -0.057   9.942  19.970  0.00  0.00    +0.000 C 
BRANCH   7   8
ATOM      8  C   UNL     1       0.101   9.483  21.419  0.00  0.00    +0.000 C 
BRANCH   8   9
ATOM      9  O   UNL     1      -0.456   8.186  21.622  0.00  0.00    +0.000 OA
ATOM     10  H   UNL     1       0.128   7.735  22.261  0.00  0.00    +0.000 HD
ENDBRANCH   8   9
ENDBRANCH   7   8
ENDBRANCH   4   7
ENDBRANCH   1   2
BRANCH   1  13
ATOM     11  C   UNL     1       3.445   4.784  19.044  0.00  0.00    +0.000 C 
ATOM     12  O   UNL     1       4.403   4.904  19.785  0.00  0.00    +0.000 OA
ATOM     13  N   UNL     1       2.989   5.766  18.217  0.00  0.00    +0.000 N 
ATOM     14  H   UNL     1       2.154   5.564  17.687  0.00  0.00    +0.000 HD
BRANCH  11  15
ATOM     15  O   UNL     1       2.690   3.670  18.884  0.00  0.00    +0.000 OA
BRANCH  15  17
ATOM     16  C   UNL     1       0.529   2.501  19.161  0.00  0.00    +0.000 C 
ATOM     17  C   UNL     1       1.621   3.346  19.817  0.00  0.00    +0.000 C 
ATOM     18  C   UNL     1       1.030   4.602  20.472  0.00  0.00    +0.000 C 
ATOM     19  C   UNL     1       2.290   2.498  20.919  0.00  0.00    +0.000 C 
ENDBRANCH  15  17
ENDBRANCH  11  15
ENDBRANCH   1  13
BRANCH   1  20
ATOM     20  C   UNL     1       4.342   7.371  16.790  0.00  0.00    +0.000 C 
BRANCH  20  21
ATOM     21  C   UNL     1       5.365   6.325  16.401  0.00  0.00    +0.000 A 
ATOM     22  C   UNL     1       5.228   5.585  15.218  0.00  0.00    +0.000 A 
ATOM     23  C   UNL     1       6.135   4.568  14.911  0.00  0.00    +0.000 A 
ATOM     24  C   UNL     1       7.185   4.281  15.782  0.00  0.00    +0.000 A 
ATOM     25  C   UNL     1       7.355   5.040  16.937  0.00  0.00    +0.000 A 
ATOM     26  C   UNL     1       6.458   6.065  17.238  0.00  0.00    +0.000 A 
ENDBRANCH  20  21
ENDBRANCH   1  20
TORSDOF 9
ENDMDL
