MODEL 1
REMARK VINA RESULT:      -5.7      0.000      0.000
REMARK  Name = 
REMARK  7 active torsions:
REMARK  status: ('A' for Active; 'I' for Inactive)
REMARK    1  A    between atoms: C_1  and  C_2
REMARK    2  A    between atoms: C_2  and  C_3
REMARK    3  A    between atoms: C_2  and  N_4
REMARK    4  A    between atoms: N_4  and  C_5
REMARK    5  A    between atoms: C_5  and  C_6
REMARK    6  A    between atoms: C_5  and  C_7
REMARK    7  A    between atoms: C_7  and  C_8
REMARK                            x       y       z     vdW  Elec       q    Type
REMARK                         _______ _______ _______ _____ _____    ______ ____
ROOT
ATOM      1  C   UNL     1       2.722   3.213  18.679  0.00  0.00    +0.000 C 
ATOM      2  C   UNL     1       3.097   1.750  18.411  0.00  0.00    +0.000 C 
ENDROOT
BRANCH   1   3
ATOM      3  N   UNL     1       1.301   3.366  19.038  0.00  0.00    +0.000 NA
ATOM      4  H   UNL     1       0.836   3.961  18.354  0.00  0.00    +0.000 HD
BRANCH   3   6
ATOM      5  C   UNL     1       1.475   2.862  21.473  0.00  0.00    +0.000 C 
ATOM      6  C   UNL     1       1.026   3.849  20.395  0.00  0.00    +0.000 C 
ATOM      7  C   UNL     1       1.747   5.188  20.586  0.00  0.00    +0.000 C 
ENDBRANCH   3   6
ENDBRANCH   1   3
BRANCH   1   8
ATOM      8  C   UNL     1       3.113   4.132  17.487  0.00  0.00    +0.000 C 
BRANCH   8   9
ATOM      9  C   UNL     1       4.595   4.364  17.301  0.00  0.00    +0.000 A 
ATOM     10  C   UNL     1       5.194   4.147  16.053  0.00  0.00    +0.000 A 
ATOM     11  C   UNL     1       6.572   4.289  15.897  0.00  0.00    +0.000 A 
ATOM     12  C   UNL     1       7.365   4.652  16.983  0.00  0.00    +0.000 A 
ATOM     13  C   UNL     1       6.776   4.897  18.224  0.00  0.00    +0.000 A 
ATOM     14  C   UNL     1       5.398   4.764  18.378  0.00  0.00    +0.000 A 
ENDBRANCH   8   9
ENDBRANCH   1   8
TORSDOF 4
ENDMDL
MODEL 2
REMARK VINA RESULT:      -5.7      0.609      1.520
REMARK  Name = 
REMARK  7 active torsions:
REMARK  status: ('A' for Active; 'I' for Inactive)
REMARK    1  A    between atoms: C_1  and  C_2
REMARK    2  A    between atoms: C_2  and  C_3
REMARK    3  A    between atoms: C_2  and  N_4
REMARK    4  A    between atoms: N_4  and  C_5
REMARK    5  A    between atoms: C_5  and  C_6
REMARK    6  A    between atoms: C_5  and  C_7
REMARK    7  A    between atoms: C_7  and  C_8
REMARK                            x       y       z     vdW  Elec       q    Type
REMARK                         _______ _______ _______ _____ _____    ______ ____
ROOT
ATOM      1  C   UNL     1       2.857   3.230  18.726  0.00  0.00    +0.000 C 
ATOM      2  C   UNL     1       3.074   1.761  18.340  0.00  0.00    +0.000 C 
ENDROOT
BRANCH   1   3
ATOM      3  N   UNL     1       1.436   3.535  18.973  0.00  0.00    +0.000 NA
ATOM      4  H   UNL     1       1.120   4.251  18.321  0.00  0.00    +0.000 HD
BRANCH   3   6
ATOM      5  C   UNL     1       1.414   2.818  21.361  0.00  0.00    +0.000 C 
ATOM      6  C   UNL     1       1.087   3.915  20.346  0.00  0.00    +0.000 C 
ATOM      7  C   UNL     1       1.853   5.194  20.701  0.00  0.00    +0.000 C 
ENDBRANCH   3   6
ENDBRANCH   1   3
BRANCH   1   8
ATOM      8  C   UNL     1       3.474   4.195  17.675  0.00  0.00    +0.000 C 
BRANCH   8   9
ATOM      9  C   UNL     1       4.932   4.537  17.880  0.00  0.00    +0.000 A 
ATOM     10  C   UNL     1       5.366   5.094  19.090  0.00  0.00    +0.000 A 
ATOM     11  C   UNL     1       6.695   5.479  19.255  0.00  0.00    +0.000 A 
ATOM     12  C   UNL     1       7.606   5.307  18.215  0.00  0.00    +0.000 A 
ATOM     13  C   UNL     1       7.193   4.728  17.016  0.00  0.00    +0.000 A 
ATOM     14  C   UNL     1       5.866   4.336  16.853  0.00  0.00    +0.000 A 
ENDBRANCH   8   9
ENDBRANCH   1   8
TORSDOF 4
ENDMDL
MODEL 3
REMARK VINA RESULT:      -5.7      1.759      5.562
REMARK  Name = 
REMARK  7 active torsions:
REMARK  status: ('A' for Active; 'I' for Inactive)
REMARK    1  A    between atoms: C_1  and  C_2
REMARK    2  A    between atoms: C_2  and  C_3
REMARK    3  A    between atoms: C_2  and  N_4
REMARK    4  A    between atoms: N_4  and  C_5
REMARK    5  A    between atoms: C_5  and  C_6
REMARK    6  A    between atoms: C_5  and  C_7
REMARK    7  A    between atoms: C_7  and  C_8
REMARK                            x       y       z     vdW  Elec       q    Type
REMARK                         _______ _______ _______ _____ _____    ______ ____
ROOT
ATOM      1  C   UNL     1       4.175   5.816  17.972  0.00  0.00    +0.000 C 
ATOM      2  C   UNL     1       4.566   7.031  17.121  0.00  0.00    +0.000 C 
ENDROOT
BRANCH   1   3
ATOM      3  N   UNL     1       4.894   4.597  17.563  0.00  0.00    +0.000 NA
ATOM      4  H   UNL     1       5.164   4.064  18.388  0.00  0.00    +0.000 HD
BRANCH   3   6
ATOM      5  C   UNL     1       7.384   4.591  17.421  0.00  0.00    +0.000 C 
ATOM      6  C   UNL     1       6.056   4.795  16.690  0.00  0.00    +0.000 C 
ATOM      7  C   UNL     1       5.953   3.813  15.519  0.00  0.00    +0.000 C 
ENDBRANCH   3   6
ENDBRANCH   1   3
BRANCH   1   8
ATOM      8  C   UNL     1       2.636   5.597  17.983  0.00  0.00    +0.000 C 
BRANCH   8   9
ATOM      9  C   UNL     1       2.120   4.646  19.039  0.00  0.00    +0.000 A 
ATOM     10  C   UNL     1       2.437   4.847  20.389  0.00  0.00    +0.000 A 
ATOM     11  C   UNL     1       2.025   3.931  21.355  0.00  0.00    +0.000 A 
ATOM     12  C   UNL     1       1.289   2.808  20.985  0.00  0.00    +0.000 A 
ATOM     13  C   UNL     1       0.944   2.612  19.647  0.00  0.00    +0.000 A 
ATOM     14  C   UNL     1       1.348   3.531  18.682  0.00  0.00    +0.000 A 
ENDBRANCH   8   9
ENDBRANCH   1   8
TORSDOF 4
ENDMDL
MODEL 4
REMARK VINA RESULT:      -5.6      2.243      4.980
REMARK  Name = 
REMARK  7 active torsions:
REMARK  status: ('A' for Active; 'I' for Inactive)
REMARK    1  A    between atoms: C_1  and  C_2
REMARK    2  A    between atoms: C_2  and  C_3
REMARK    3  A    between atoms: C_2  and  N_4
REMARK    4  A    between atoms: N_4  and  C_5
REMARK    5  A    between atoms: C_5  and  C_6
REMARK    6  A    between atoms: C_5  and  C_7
REMARK    7  A    between atoms: C_7  and  C_8
REMARK                            x       y       z     vdW  Elec       q    Type
REMARK                         _______ _______ _______ _____ _____    ______ ____
ROOT
ATOM      1  C   UNL     1       5.773   4.496  16.337  0.00  0.00    +0.000 C 
ATOM      2  C   UNL     1       6.177   3.941  14.965  0.00  0.00    +0.000 C 
ENDROOT
BRANCH   1   3
ATOM      3  N   UNL     1       6.759   4.167  17.382  0.00  0.00    +0.000 NA
ATOM      4  H   UNL     1       6.314   3.618  18.115  0.00  0.00    +0.000 HD
BRANCH   3   6
ATOM      5  C   UNL     1       7.270   6.600  17.187  0.00  0.00    +0.000 C 
ATOM      6  C   UNL     1       7.478   5.303  17.970  0.00  0.00    +0.000 C 
ATOM      7  C   UNL     1       6.993   5.485  19.412  0.00  0.00    +0.000 C 
ENDBRANCH   3   6
ENDBRANCH   1   3
BRANCH   1   8
ATOM      8  C   UNL     1       4.341   4.041  16.738  0.00  0.00    +0.000 C 
BRANCH   8   9
ATOM      9  C   UNL     1       3.637   4.917  17.748  0.00  0.00    +0.000 A 
ATOM     10  C   UNL     1       3.474   6.288  17.506  0.00  0.00    +0.000 A 
ATOM     11  C   UNL     1       2.892   7.111  18.467  0.00  0.00    +0.000 A 
ATOM     12  C   UNL     1       2.464   6.576  19.680  0.00  0.00    +0.000 A 
ATOM     13  C   UNL     1       2.596   5.208  19.922  0.00  0.00    +0.000 A 
ATOM     14  C   UNL     1       3.170   4.383  18.957  0.00  0.00    +0.000 A 
ENDBRANCH   8   9
ENDBRANCH   1   8
TORSDOF 4
ENDMDL
MODEL 5
REMARK VINA RESULT:      -5.6      1.975      5.402
REMARK  Name = 
REMARK  7 active torsions:
REMARK  status: ('A' for Active; 'I' for Inactive)
REMARK    1  A    between atoms: C_1  and  C_2
REMARK    2  A    between atoms: C_2  and  C_3
REMARK    3  A    between atoms: C_2  and  N_4
REMARK    4  A    between atoms: N_4  and  C_5
REMARK    5  A    between atoms: C_5  and  C_6
REMARK    6  A    between atoms: C_5  and  C_7
REMARK    7  A    between atoms: C_7  and  C_8
REMARK                            x       y       z     vdW  Elec       q    Type
REMARK                         _______ _______ _______ _____ _____    ______ ____
ROOT
ATOM      1  C   UNL     1       5.280   4.398  17.914  0.00  0.00    +0.000 C 
ATOM      2  C   UNL     1       4.426   3.985  16.708  0.00  0.00    +0.000 C 
ENDROOT
BRANCH   1   3
ATOM      3  N   UNL     1       6.723   4.331  17.621  0.00  0.00    +0.000 NA
ATOM      4  H   UNL     1       7.155   3.602  18.185  0.00  0.00    +0.000 HD
BRANCH   3   6
ATOM      5  C   UNL     1       6.673   6.801  17.285  0.00  0.00    +0.000 C 
ATOM      6  C   UNL     1       7.469   5.586  17.764  0.00  0.00    +0.000 C 
ATOM      7  C   UNL     1       7.841   5.760  19.240  0.00  0.00    +0.000 C 
ENDBRANCH   3   6
ENDBRANCH   1   3
BRANCH   1   8
ATOM      8  C   UNL     1       4.915   3.575  19.182  0.00  0.00    +0.000 C 
BRANCH   8   9
ATOM      9  C   UNL     1       3.491   3.720  19.666  0.00  0.00    +0.000 A 
ATOM     10  C   UNL     1       2.627   2.617  19.665  0.00  0.00    +0.000 A 
ATOM     11  C   UNL     1       1.293   2.765  20.041  0.00  0.00    +0.000 A 
ATOM     12  C   UNL     1       0.808   4.013  20.424  0.00  0.00    +0.000 A 
ATOM     13  C   UNL     1       1.665   5.113  20.455  0.00  0.00    +0.000 A 
ATOM     14  C   UNL     1       3.001   4.965  20.088  0.00  0.00    +0.000 A 
ENDBRANCH   8   9
ENDBRANCH   1   8
TORSDOF 4
ENDMDL
MODEL 6
REMARK VINA RESULT:      -5.6      2.271      5.164
REMARK  Name = 
REMARK  7 active torsions:
REMARK  status: ('A' for Active; 'I' for Inactive)
REMARK    1  A    between atoms: C_1  and  C_2
REMARK    2  A    between atoms: C_2  and  C_3
REMARK    3  A    between atoms: C_2  and  N_4
REMARK    4  A    between atoms: N_4  and  C_5
REMARK    5  A    between atoms: C_5  and  C_6
REMARK    6  A    between atoms: C_5  and  C_7
REMARK    7  A    between atoms: C_7  and  C_8
REMARK                            x       y       z     vdW  Elec       q    Type
REMARK                         _______ _______ _______ _____ _____    ______ ____
ROOT
ATOM      1  C   UNL     1       5.824   4.681  16.482  0.00  0.00    +0.000 C 
ATOM      2  C   UNL     1       5.968   5.216  15.052  0.00  0.00    +0.000 C 
ENDROOT
BRANCH   1   3
ATOM      3  N   UNL     1       7.131   4.486  17.136  0.00  0.00    +0.000 NA
ATOM      4  H   UNL     1       7.211   3.524  17.462  0.00  0.00    +0.000 HD
BRANCH   3   6
ATOM      5  C   UNL     1       7.576   6.862  17.746  0.00  0.00    +0.000 C 
ATOM      6  C   UNL     1       7.453   5.415  18.224  0.00  0.00    +0.000 C 
ATOM      7  C   UNL     1       6.353   5.312  19.287  0.00  0.00    +0.000 C 
ENDBRANCH   3   6
ENDBRANCH   1   3
BRANCH   1   8
ATOM      8  C   UNL     1       4.963   3.387  16.525  0.00  0.00    +0.000 C 
BRANCH   8   9
ATOM      9  C   UNL     1       3.682   3.482  17.321  0.00  0.00    +0.000 A 
ATOM     10  C   UNL     1       3.021   2.320  17.740  0.00  0.00    +0.000 A 
ATOM     11  C   UNL     1       1.802   2.403  18.409  0.00  0.00    +0.000 A 
ATOM     12  C   UNL     1       1.231   3.647  18.671  0.00  0.00    +0.000 A 
ATOM     13  C   UNL     1       1.894   4.812  18.284  0.00  0.00    +0.000 A 
ATOM     14  C   UNL     1       3.117   4.729  17.622  0.00  0.00    +0.000 A 
ENDBRANCH   8   9
ENDBRANCH   1   8
TORSDOF 4
ENDMDL
MODEL 7
REMARK VINA RESULT:      -5.6      1.759      5.548
REMARK  Name = 
REMARK  7 active torsions:
REMARK  status: ('A' for Active; 'I' for Inactive)
REMARK    1  A    between atoms: C_1  and  C_2
REMARK    2  A    between atoms: C_2  and  C_3
REMARK    3  A    between atoms: C_2  and  N_4
REMARK    4  A    between atoms: N_4  and  C_5
REMARK    5  A    between atoms: C_5  and  C_6
REMARK    6  A    between atoms: C_5  and  C_7
REMARK    7  A    between atoms: C_7  and  C_8
REMARK                            x       y       z     vdW  Elec       q    Type
REMARK                         _______ _______ _______ _____ _____    ______ ____
ROOT
ATOM      1  C   UNL     1       4.376   5.008  17.411  0.00  0.00    +0.000 C 
ATOM      2  C   UNL     1       3.773   6.320  17.929  0.00  0.00    +0.000 C 
ENDROOT
BRANCH   1   3
ATOM      3  N   UNL     1       5.027   5.176  16.099  0.00  0.00    +0.000 NA
ATOM      4  H   UNL     1       4.340   5.056  15.357  0.00  0.00    +0.000 HD
BRANCH   3   6
ATOM      5  C   UNL     1       6.829   4.590  14.479  0.00  0.00    +0.000 C 
ATOM      6  C   UNL     1       6.196   4.327  15.846  0.00  0.00    +0.000 C 
ATOM      7  C   UNL     1       7.226   4.582  16.951  0.00  0.00    +0.000 C 
ENDBRANCH   3   6
ENDBRANCH   1   3
BRANCH   1   8
ATOM      8  C   UNL     1       3.322   3.865  17.385  0.00  0.00    +0.000 C 
BRANCH   8   9
ATOM      9  C   UNL     1       2.685   3.534  18.715  0.00  0.00    +0.000 A 
ATOM     10  C   UNL     1       1.327   3.797  18.934  0.00  0.00    +0.000 A 
ATOM     11  C   UNL     1       0.754   3.562  20.183  0.00  0.00    +0.000 A 
ATOM     12  C   UNL     1       1.530   3.059  21.224  0.00  0.00    +0.000 A 
ATOM     13  C   UNL     1       2.878   2.767  21.010  0.00  0.00    +0.000 A 
ATOM     14  C   UNL     1       3.448   2.994  19.759  0.00  0.00    +0.000 A 
ENDBRANCH   8   9
ENDBRANCH   1   8
TORSDOF 4
ENDMDL
MODEL 8
REMARK VINA RESULT:      -5.6      1.858      5.573
REMARK  Name = 
REMARK  7 active torsions:
REMARK  status: ('A' for Active; 'I' for Inactive)
REMARK    1  A    between atoms: C_1  and  C_2
REMARK    2  A    between atoms: C_2  and  C_3
REMARK    3  A    between atoms: C_2  and  N_4
REMARK    4  A    between atoms: N_4  and  C_5
REMARK    5  A    between atoms: C_5  and  C_6
REMARK    6  A    between atoms: C_5  and  C_7
REMARK    7  A    between atoms: C_7  and  C_8
REMARK                            x       y       z     vdW  Elec       q    Type
REMARK                         _______ _______ _______ _____ _____    ______ ____
ROOT
ATOM      1  C   UNL     1       4.471   5.904  18.070  0.00  0.00    +0.000 C 
ATOM      2  C   UNL     1       4.880   7.029  17.111  0.00  0.00    +0.000 C 
ENDROOT
BRANCH   1   3
ATOM      3  N   UNL     1       5.630   5.115  18.526  0.00  0.00    +0.000 NA
ATOM      4  H   UNL     1       5.616   5.038  19.541  0.00  0.00    +0.000 HD
BRANCH   3   6
ATOM      5  C   UNL     1       7.896   5.875  19.236  0.00  0.00    +0.000 C 
ATOM      6  C   UNL     1       6.945   5.581  18.074  0.00  0.00    +0.000 C 
ATOM      7  C   UNL     1       7.553   4.506  17.167  0.00  0.00    +0.000 C 
ENDBRANCH   3   6
ENDBRANCH   1   3
BRANCH   1   8
ATOM      8  C   UNL     1       3.370   4.997  17.451  0.00  0.00    +0.000 C 
BRANCH   8   9
ATOM      9  C   UNL     1       2.399   4.386  18.435  0.00  0.00    +0.000 A 
ATOM     10  C   UNL     1       2.186   4.984  19.684  0.00  0.00    +0.000 A 
ATOM     11  C   UNL     1       1.349   4.382  20.622  0.00  0.00    +0.000 A 
ATOM     12  C   UNL     1       0.712   3.180  20.321  0.00  0.00    +0.000 A 
ATOM     13  C   UNL     1       0.894   2.590  19.071  0.00  0.00    +0.000 A 
ATOM     14  C   UNL     1       1.725   3.195  18.130  0.00  0.00    +0.000 A 
ENDBRANCH   8   9
ENDBRANCH   1   8
TORSDOF 4
ENDMDL
MODEL 9
REMARK VINA RESULT:      -5.6      2.239      5.429
REMARK  Name = 
REMARK  7 active torsions:
REMARK  status: ('A' for Active; 'I' for Inactive)
REMARK    1  A    between atoms: C_1  and  C_2
REMARK    2  A    between atoms: C_2  and  C_3
REMARK    3  A    between atoms: C_2  and  N_4
REMARK    4  A    between atoms: N_4  and  C_5
REMARK    5  A    between atoms: C_5  and  C_6
REMARK    6  A    between atoms: C_5  and  C_7
REMARK    7  A    between atoms: C_7  and  C_8
REMARK                            x       y       z     vdW  Elec       q    Type
REMARK                         _______ _______ _______ _____ _____    ______ ____
ROOT
ATOM      1  C   UNL     1       4.138   6.264  17.902  0.00  0.00    +0.000 C 
ATOM      2  C   UNL     1       3.245   7.505  17.777  0.00  0.00    +0.000 C 
ENDROOT
BRANCH   1   3
ATOM      3  N   UNL     1       5.400   6.411  17.154  0.00  0.00    +0.000 NA
ATOM      4  H   UNL     1       5.377   5.822  16.323  0.00  0.00    +0.000 HD
BRANCH   3   6
ATOM      5  C   UNL     1       7.313   4.853  17.516  0.00  0.00    +0.000 C 
ATOM      6  C   UNL     1       6.631   6.163  17.912  0.00  0.00    +0.000 C 
ATOM      7  C   UNL     1       7.587   7.337  17.675  0.00  0.00    +0.000 C 
ENDBRANCH   3   6
ENDBRANCH   1   3
BRANCH   1   8
ATOM      8  C   UNL     1       3.379   4.970  17.495  0.00  0.00    +0.000 C 
BRANCH   8   9
ATOM      9  C   UNL     1       2.641   4.268  18.612  0.00  0.00    +0.000 A 
ATOM     10  C   UNL     1       1.431   3.610  18.357  0.00  0.00    +0.000 A 
ATOM     11  C   UNL     1       0.712   3.026  19.398  0.00  0.00    +0.000 A 
ATOM     12  C   UNL     1       1.194   3.089  20.704  0.00  0.00    +0.000 A 
ATOM     13  C   UNL     1       2.411   3.718  20.965  0.00  0.00    +0.000 A 
ATOM     14  C   UNL     1       3.135   4.295  19.924  0.00  0.00    +0.000 A 
ENDBRANCH   8   9
ENDBRANCH   1   8
TORSDOF 4
ENDMDL
