MODEL 1
REMARK VINA RESULT:      -8.2      0.000      0.000
REMARK  Name = 
REMARK  7 active torsions:
REMARK  status: ('A' for Active; 'I' for Inactive)
REMARK    1  A    between atoms: C_1  and  C_2
REMARK    2  A    between atoms: C_5  and  C_6
REMARK    3  A    between atoms: C_6  and  O_8
REMARK    4  A    between atoms: O_8  and  C_9
REMARK    5  A    between atoms: C_9  and  C_10
REMARK    6  A    between atoms: C_9  and  C_11
REMARK    7  A    between atoms: N_13  and  C_14
REMARK                            x       y       z     vdW  Elec       q    Type
REMARK                         _______ _______ _______ _____ _____    ______ ____
ROOT
ATOM      1  C   UNL     1       2.089   5.017  19.355  0.00  0.00    +0.000 C 
ATOM      2  O   UNL     1       1.420   4.896  18.331  0.00  0.00    +0.000 OA
ATOM      3  N   UNL     1       2.461   6.233  19.929  0.00  0.00    +0.000 N 
ATOM      4  H   UNL     1       3.161   6.191  20.658  0.00  0.00    +0.000 HD
ENDROOT
BRANCH   3   5
ATOM      5  C   UNL     1       2.060   7.524  19.475  0.00  0.00    +0.000 A 
ATOM      6  C   UNL     1       2.379   7.940  18.173  0.00  0.00    +0.000 A 
ATOM      7  C   UNL     1       2.050   9.210  17.713  0.00  0.00    +0.000 A 
ATOM      8  C   UNL     1       1.384  10.092  18.548  0.00  0.00    +0.000 A 
ATOM      9  C   UNL     1       1.013   9.710  19.842  0.00  0.00    +0.000 A 
ATOM     10  C   UNL     1       0.333  10.637  20.648  0.00  0.00    +0.000 A 
ATOM     11  C   UNL     1      -0.063  10.310  21.941  0.00  0.00    +0.000 A 
ATOM     12  C   UNL     1       0.214   9.045  22.440  0.00  0.00    +0.000 A 
ATOM     13  C   UNL     1       0.900   8.111  21.652  0.00  0.00    +0.000 A 
ATOM     14  C   UNL     1       1.326   8.409  20.330  0.00  0.00    +0.000 A 
ENDBRANCH   3   5
BRANCH   1  15
ATOM     15  C   UNL     1       2.675   3.783  20.067  0.00  0.00    +0.000 C 
ATOM     16  C   UNL     1       2.218   3.775  21.530  0.00  0.00    +0.000 C 
BRANCH  15  17
ATOM     17  O   UNL     1       4.109   3.828  19.999  0.00  0.00    +0.000 OA
BRANCH  17  18
ATOM     18  C   UNL     1       4.633   3.738  18.748  0.00  0.00    +0.000 C 
ATOM     19  O   UNL     1       4.362   2.872  17.929  0.00  0.00    +0.000 OA
BRANCH  18  24
ATOM     20  C   UNL     1       8.048   8.133  17.619  0.00  0.00    +0.000 C 
ATOM     21  C   UNL     1       7.177   6.950  17.905  0.00  0.00    +0.000 A 
ATOM     22  C   UNL     1       7.538   5.982  18.838  0.00  0.00    +0.000 A 
ATOM     23  N   UNL     1       6.757   4.916  19.145  0.00  0.00    +0.000 NA
ATOM     24  C   UNL     1       5.581   4.846  18.466  0.00  0.00    +0.000 A 
ATOM     25  C   UNL     1       5.221   5.799  17.525  0.00  0.00    +0.000 A 
ATOM     26  N   UNL     1       6.004   6.868  17.228  0.00  0.00    +0.000 NA
ENDBRANCH  18  24
ENDBRANCH  17  18
ENDBRANCH  15  17
ENDBRANCH   1  15
TORSDOF 5
ENDMDL
MODEL 2
REMARK VINA RESULT:      -8.2      0.976      1.088
REMARK  Name = 
REMARK  7 active torsions:
REMARK  status: ('A' for Active; 'I' for Inactive)
REMARK    1  A    between atoms: C_1  and  C_2
REMARK    2  A    between atoms: C_5  and  C_6
REMARK    3  A    between atoms: C_6  and  O_8
REMARK    4  A    between atoms: O_8  and  C_9
REMARK    5  A    between atoms: C_9  and  C_10
REMARK    6  A    between atoms: C_9  and  C_11
REMARK    7  A    between atoms: N_13  and  C_14
REMARK                            x       y       z     vdW  Elec       q    Type
REMARK                         _______ _______ _______ _____ _____    ______ ____
ROOT
ATOM      1  C   UNL     1       1.926   4.254  19.528  0.00  0.00    +0.000 C 
ATOM      2  O   UNL     1       1.162   4.147  18.571  0.00  0.00    +0.000 OA
ATOM      3  N   UNL     1       2.562   5.432  19.917  0.00  0.00    +0.000 N 
ATOM      4  H   UNL     1       3.301   5.341  20.602  0.00  0.00    +0.000 HD
ENDROOT
BRANCH   3   5
ATOM      5  C   UNL     1       2.368   6.716  19.328  0.00  0.00    +0.000 A 
ATOM      6  C   UNL     1       2.916   6.998  18.066  0.00  0.00    +0.000 A 
ATOM      7  C   UNL     1       2.792   8.253  17.482  0.00  0.00    +0.000 A 
ATOM      8  C   UNL     1       2.106   9.257  18.148  0.00  0.00    +0.000 A 
ATOM      9  C   UNL     1       1.513   9.013  19.391  0.00  0.00    +0.000 A 
ATOM     10  C   UNL     1       0.823  10.059  20.024  0.00  0.00    +0.000 A 
ATOM     11  C   UNL     1       0.211   9.873  21.259  0.00  0.00    +0.000 A 
ATOM     12  C   UNL     1       0.278   8.630  21.873  0.00  0.00    +0.000 A 
ATOM     13  C   UNL     1       0.970   7.577  21.259  0.00  0.00    +0.000 A 
ATOM     14  C   UNL     1       1.614   7.730  20.002  0.00  0.00    +0.000 A 
ENDBRANCH   3   5
BRANCH   1  15
ATOM     15  C   UNL     1       2.333   3.020  20.355  0.00  0.00    +0.000 C 
ATOM     16  C   UNL     1       2.032   3.278  21.836  0.00  0.00    +0.000 C 
BRANCH  15  17
ATOM     17  O   UNL     1       3.735   2.765  20.175  0.00  0.00    +0.000 OA
BRANCH  17  18
ATOM     18  C   UNL     1       4.147   2.679  18.883  0.00  0.00    +0.000 C 
ATOM     19  O   UNL     1       3.820   1.806  18.092  0.00  0.00    +0.000 OA
BRANCH  18  24
ATOM     20  C   UNL     1       7.420   7.033  17.275  0.00  0.00    +0.000 C 
ATOM     21  C   UNL     1       6.589   5.868  17.713  0.00  0.00    +0.000 A 
ATOM     22  C   UNL     1       6.498   5.495  19.052  0.00  0.00    +0.000 A 
ATOM     23  N   UNL     1       5.729   4.465  19.486  0.00  0.00    +0.000 NA
ATOM     24  C   UNL     1       5.046   3.802  18.515  0.00  0.00    +0.000 A 
ATOM     25  C   UNL     1       5.144   4.159  17.178  0.00  0.00    +0.000 A 
ATOM     26  N   UNL     1       5.910   5.196  16.750  0.00  0.00    +0.000 NA
ENDBRANCH  18  24
ENDBRANCH  17  18
ENDBRANCH  15  17
ENDBRANCH   1  15
TORSDOF 5
ENDMDL
MODEL 3
REMARK VINA RESULT:      -7.9      3.275      5.854
REMARK  Name = 
REMARK  7 active torsions:
REMARK  status: ('A' for Active; 'I' for Inactive)
REMARK    1  A    between atoms: C_1  and  C_2
REMARK    2  A    between atoms: C_5  and  C_6
REMARK    3  A    between atoms: C_6  and  O_8
REMARK    4  A    between atoms: O_8  and  C_9
REMARK    5  A    between atoms: C_9  and  C_10
REMARK    6  A    between atoms: C_9  and  C_11
REMARK    7  A    between atoms: N_13  and  C_14
REMARK                            x       y       z     vdW  Elec       q    Type
REMARK                         _______ _______ _______ _____ _____    ______ ____
ROOT
ATOM      1  C   UNL     1       5.538   6.550  17.691  0.00  0.00    +0.000 C 
ATOM      2  O   UNL     1       4.722   7.120  16.968  0.00  0.00    +0.000 OA
ATOM      3  N   UNL     1       5.216   5.759  18.793  0.00  0.00    +0.000 N 
ATOM      4  H   UNL     1       5.981   5.505  19.404  0.00  0.00    +0.000 HD
ENDROOT
BRANCH   3   5
ATOM      5  C   UNL     1       3.898   5.414  19.213  0.00  0.00    +0.000 A 
ATOM      6  C   UNL     1       3.118   6.348  19.913  0.00  0.00    +0.000 A 
ATOM      7  C   UNL     1       1.849   6.030  20.382  0.00  0.00    +0.000 A 
ATOM      8  C   UNL     1       1.326   4.768  20.153  0.00  0.00    +0.000 A 
ATOM      9  C   UNL     1       2.051   3.815  19.429  0.00  0.00    +0.000 A 
ATOM     10  C   UNL     1       1.478   2.552  19.216  0.00  0.00    +0.000 A 
ATOM     11  C   UNL     1       2.152   1.568  18.500  0.00  0.00    +0.000 A 
ATOM     12  C   UNL     1       3.410   1.841  17.984  0.00  0.00    +0.000 A 
ATOM     13  C   UNL     1       4.002   3.095  18.194  0.00  0.00    +0.000 A 
ATOM     14  C   UNL     1       3.348   4.123  18.925  0.00  0.00    +0.000 A 
ENDBRANCH   3   5
BRANCH   1  15
ATOM     15  C   UNL     1       7.051   6.747  17.482  0.00  0.00    +0.000 C 
ATOM     16  C   UNL     1       7.396   8.234  17.627  0.00  0.00    +0.000 C 
BRANCH  15  17
ATOM     17  O   UNL     1       7.418   6.282  16.174  0.00  0.00    +0.000 OA
BRANCH  17  18
ATOM     18  C   UNL     1       7.481   4.932  16.036  0.00  0.00    +0.000 C 
ATOM     19  O   UNL     1       8.026   4.166  16.817  0.00  0.00    +0.000 OA
BRANCH  18  24
ATOM     20  C   UNL     1       4.580   3.268  11.445  0.00  0.00    +0.000 C 
ATOM     21  C   UNL     1       5.369   3.677  12.650  0.00  0.00    +0.000 A 
ATOM     22  C   UNL     1       6.716   4.018  12.562  0.00  0.00    +0.000 A 
ATOM     23  N   UNL     1       7.452   4.423  13.628  0.00  0.00    +0.000 NA
ATOM     24  C   UNL     1       6.782   4.469  14.810  0.00  0.00    +0.000 A 
ATOM     25  C   UNL     1       5.443   4.116  14.907  0.00  0.00    +0.000 A 
ATOM     26  N   UNL     1       4.711   3.718  13.835  0.00  0.00    +0.000 NA
ENDBRANCH  18  24
ENDBRANCH  17  18
ENDBRANCH  15  17
ENDBRANCH   1  15
TORSDOF 5
ENDMDL
MODEL 4
REMARK VINA RESULT:      -7.8      1.575      1.897
REMARK  Name = 
REMARK  7 active torsions:
REMARK  status: ('A' for Active; 'I' for Inactive)
REMARK    1  A    between atoms: C_1  and  C_2
REMARK    2  A    between atoms: C_5  and  C_6
REMARK    3  A    between atoms: C_6  and  O_8
REMARK    4  A    between atoms: O_8  and  C_9
REMARK    5  A    between atoms: C_9  and  C_10
REMARK    6  A    between atoms: C_9  and  C_11
REMARK    7  A    between atoms: N_13  and  C_14
REMARK                            x       y       z     vdW  Elec       q    Type
REMARK                         _______ _______ _______ _____ _____    ______ ____
ROOT
ATOM      1  C   UNL     1       2.226   5.842  19.159  0.00  0.00    +0.000 C 
ATOM      2  O   UNL     1       1.706   5.771  18.047  0.00  0.00    +0.000 OA
ATOM      3  N   UNL     1       2.345   7.007  19.914  0.00  0.00    +0.000 N 
ATOM      4  H   UNL     1       2.953   6.961  20.721  0.00  0.00    +0.000 HD
ENDROOT
BRANCH   3   5
ATOM      5  C   UNL     1       1.815   8.284  19.564  0.00  0.00    +0.000 A 
ATOM      6  C   UNL     1       2.072   8.826  18.295  0.00  0.00    +0.000 A 
ATOM      7  C   UNL     1       1.616  10.088  17.936  0.00  0.00    +0.000 A 
ATOM      8  C   UNL     1       0.880  10.837  18.840  0.00  0.00    +0.000 A 
ATOM      9  C   UNL     1       0.567  10.324  20.104  0.00  0.00    +0.000 A 
ATOM     10  C   UNL     1      -0.187  11.117  20.984  0.00  0.00    +0.000 A 
ATOM     11  C   UNL     1      -0.530  10.657  22.251  0.00  0.00    +0.000 A 
ATOM     12  C   UNL     1      -0.124   9.391  22.650  0.00  0.00    +0.000 A 
ATOM     13  C   UNL     1       0.636   8.590  21.787  0.00  0.00    +0.000 A 
ATOM     14  C   UNL     1       1.012   9.027  20.489  0.00  0.00    +0.000 A 
ENDBRANCH   3   5
BRANCH   1  15
ATOM     15  C   UNL     1       2.899   4.611  19.795  0.00  0.00    +0.000 C 
ATOM     16  C   UNL     1       2.400   4.446  21.236  0.00  0.00    +0.000 C 
BRANCH  15  17
ATOM     17  O   UNL     1       4.324   4.787  19.785  0.00  0.00    +0.000 OA
BRANCH  17  18
ATOM     18  C   UNL     1       5.030   3.763  19.236  0.00  0.00    +0.000 C 
ATOM     19  O   UNL     1       5.224   2.676  19.762  0.00  0.00    +0.000 OA
BRANCH  18  24
ATOM     20  C   UNL     1       7.219   4.993  14.142  0.00  0.00    +0.000 C 
ATOM     21  C   UNL     1       6.615   4.696  15.479  0.00  0.00    +0.000 A 
ATOM     22  C   UNL     1       5.296   4.269  15.609  0.00  0.00    +0.000 A 
ATOM     23  N   UNL     1       4.728   3.961  16.802  0.00  0.00    +0.000 NA
ATOM     24  C   UNL     1       5.539   4.106  17.884  0.00  0.00    +0.000 A 
ATOM     25  C   UNL     1       6.849   4.546  17.763  0.00  0.00    +0.000 A 
ATOM     26  N   UNL     1       7.414   4.845  16.565  0.00  0.00    +0.000 NA
ENDBRANCH  18  24
ENDBRANCH  17  18
ENDBRANCH  15  17
ENDBRANCH   1  15
TORSDOF 5
ENDMDL
MODEL 5
REMARK VINA RESULT:      -7.5      1.508      1.788
REMARK  Name = 
REMARK  7 active torsions:
REMARK  status: ('A' for Active; 'I' for Inactive)
REMARK    1  A    between atoms: C_1  and  C_2
REMARK    2  A    between atoms: C_5  and  C_6
REMARK    3  A    between atoms: C_6  and  O_8
REMARK    4  A    between atoms: O_8  and  C_9
REMARK    5  A    between atoms: C_9  and  C_10
REMARK    6  A    between atoms: C_9  and  C_11
REMARK    7  A    between atoms: N_13  and  C_14
REMARK                            x       y       z     vdW  Elec       q    Type
REMARK                         _______ _______ _______ _____ _____    ______ ____
ROOT
ATOM      1  C   UNL     1       1.651   4.279  19.545  0.00  0.00    +0.000 C 
ATOM      2  O   UNL     1       1.098   4.166  18.453  0.00  0.00    +0.000 OA
ATOM      3  N   UNL     1       2.202   5.458  20.046  0.00  0.00    +0.000 N 
ATOM      4  H   UNL     1       2.785   5.369  20.867  0.00  0.00    +0.000 HD
ENDROOT
BRANCH   3   5
ATOM      5  C   UNL     1       2.143   6.736  19.417  0.00  0.00    +0.000 A 
ATOM      6  C   UNL     1       2.737   6.927  18.159  0.00  0.00    +0.000 A 
ATOM      7  C   UNL     1       2.745   8.171  17.539  0.00  0.00    +0.000 A 
ATOM      8  C   UNL     1       2.147   9.254  18.162  0.00  0.00    +0.000 A 
ATOM      9  C   UNL     1       1.511   9.105  19.399  0.00  0.00    +0.000 A 
ATOM     10  C   UNL     1       0.913  10.230  19.989  0.00  0.00    +0.000 A 
ATOM     11  C   UNL     1       0.264  10.139  21.216  0.00  0.00    +0.000 A 
ATOM     12  C   UNL     1       0.201   8.914  21.865  0.00  0.00    +0.000 A 
ATOM     13  C   UNL     1       0.800   7.782  21.295  0.00  0.00    +0.000 A 
ATOM     14  C   UNL     1       1.477   7.837  20.048  0.00  0.00    +0.000 A 
ENDBRANCH   3   5
BRANCH   1  15
ATOM     15  C   UNL     1       1.870   3.051  20.450  0.00  0.00    +0.000 C 
ATOM     16  C   UNL     1       2.432   3.508  21.801  0.00  0.00    +0.000 C 
BRANCH  15  17
ATOM     17  O   UNL     1       2.789   2.148  19.815  0.00  0.00    +0.000 OA
BRANCH  17  18
ATOM     18  C   UNL     1       4.105   2.428  20.012  0.00  0.00    +0.000 C 
ATOM     19  O   UNL     1       4.790   1.998  20.929  0.00  0.00    +0.000 OA
BRANCH  18  24
ATOM     20  C   UNL     1       5.941   5.799  15.826  0.00  0.00    +0.000 C 
ATOM     21  C   UNL     1       5.494   4.903  16.938  0.00  0.00    +0.000 A 
ATOM     22  C   UNL     1       5.856   5.140  18.262  0.00  0.00    +0.000 A 
ATOM     23  N   UNL     1       5.442   4.366  19.296  0.00  0.00    +0.000 NA
ATOM     24  C   UNL     1       4.644   3.320  18.954  0.00  0.00    +0.000 A 
ATOM     25  C   UNL     1       4.292   3.069  17.636  0.00  0.00    +0.000 A 
ATOM     26  N   UNL     1       4.703   3.852  16.605  0.00  0.00    +0.000 NA
ENDBRANCH  18  24
ENDBRANCH  17  18
ENDBRANCH  15  17
ENDBRANCH   1  15
TORSDOF 5
ENDMDL
MODEL 6
REMARK VINA RESULT:      -7.5      1.651      1.968
REMARK  Name = 
REMARK  7 active torsions:
REMARK  status: ('A' for Active; 'I' for Inactive)
REMARK    1  A    between atoms: C_1  and  C_2
REMARK    2  A    between atoms: C_5  and  C_6
REMARK    3  A    between atoms: C_6  and  O_8
REMARK    4  A    between atoms: O_8  and  C_9
REMARK    5  A    between atoms: C_9  and  C_10
REMARK    6  A    between atoms: C_9  and  C_11
REMARK    7  A    between atoms: N_13  and  C_14
REMARK                            x       y       z     vdW  Elec       q    Type
REMARK                         _______ _______ _______ _____ _____    ______ ____
ROOT
ATOM      1  C   UNL     1       2.516   6.511  19.163  0.00  0.00    +0.000 C 
ATOM      2  O   UNL     1       2.852   6.870  18.036  0.00  0.00    +0.000 OA
ATOM      3  N   UNL     1       1.886   7.322  20.107  0.00  0.00    +0.000 N 
ATOM      4  H   UNL     1       1.833   6.959  21.049  0.00  0.00    +0.000 HD
ENDROOT
BRANCH   3   5
ATOM      5  C   UNL     1       1.455   8.664  19.895  0.00  0.00    +0.000 A 
ATOM      6  C   UNL     1       1.761   9.317  18.690  0.00  0.00    +0.000 A 
ATOM      7  C   UNL     1       1.402  10.641  18.468  0.00  0.00    +0.000 A 
ATOM      8  C   UNL     1       0.718  11.343  19.448  0.00  0.00    +0.000 A 
ATOM      9  C   UNL     1       0.359  10.724  20.650  0.00  0.00    +0.000 A 
ATOM     10  C   UNL     1      -0.340  11.473  21.610  0.00  0.00    +0.000 A 
ATOM     11  C   UNL     1      -0.725  10.908  22.821  0.00  0.00    +0.000 A 
ATOM     12  C   UNL     1      -0.418   9.580  23.083  0.00  0.00    +0.000 A 
ATOM     13  C   UNL     1       0.287   8.820  22.139  0.00  0.00    +0.000 A 
ATOM     14  C   UNL     1       0.703   9.363  20.894  0.00  0.00    +0.000 A 
ENDBRANCH   3   5
BRANCH   1  15
ATOM     15  C   UNL     1       2.861   5.102  19.679  0.00  0.00    +0.000 C 
ATOM     16  C   UNL     1       2.158   4.864  21.021  0.00  0.00    +0.000 C 
BRANCH  15  17
ATOM     17  O   UNL     1       4.283   4.987  19.841  0.00  0.00    +0.000 OA
BRANCH  17  18
ATOM     18  C   UNL     1       4.834   3.852  19.338  0.00  0.00    +0.000 C 
ATOM     19  O   UNL     1       4.801   2.752  19.871  0.00  0.00    +0.000 OA
BRANCH  18  24
ATOM     20  C   UNL     1       7.082   4.851  14.218  0.00  0.00    +0.000 C 
ATOM     21  C   UNL     1       6.516   4.560  15.573  0.00  0.00    +0.000 A 
ATOM     22  C   UNL     1       7.284   4.675  16.729  0.00  0.00    +0.000 A 
ATOM     23  N   UNL     1       6.794   4.449  17.973  0.00  0.00    +0.000 NA
ATOM     24  C   UNL     1       5.483   4.089  18.023  0.00  0.00    +0.000 A 
ATOM     25  C   UNL     1       4.716   3.959  16.875  0.00  0.00    +0.000 A 
ATOM     26  N   UNL     1       5.211   4.193  15.632  0.00  0.00    +0.000 NA
ENDBRANCH  18  24
ENDBRANCH  17  18
ENDBRANCH  15  17
ENDBRANCH   1  15
TORSDOF 5
ENDMDL
MODEL 7
REMARK VINA RESULT:      -7.5      1.445      1.802
REMARK  Name = 
REMARK  7 active torsions:
REMARK  status: ('A' for Active; 'I' for Inactive)
REMARK    1  A    between atoms: C_1  and  C_2
REMARK    2  A    between atoms: C_5  and  C_6
REMARK    3  A    between atoms: C_6  and  O_8
REMARK    4  A    between atoms: O_8  and  C_9
REMARK    5  A    between atoms: C_9  and  C_10
REMARK    6  A    between atoms: C_9  and  C_11
REMARK    7  A    between atoms: N_13  and  C_14
REMARK                            x       y       z     vdW  Elec       q    Type
REMARK                         _______ _______ _______ _____ _____    ______ ____
ROOT
ATOM      1  C   UNL     1       1.846   4.472  19.518  0.00  0.00    +0.000 C 
ATOM      2  O   UNL     1       1.209   4.352  18.473  0.00  0.00    +0.000 OA
ATOM      3  N   UNL     1       2.350   5.673  20.014  0.00  0.00    +0.000 N 
ATOM      4  H   UNL     1       3.008   5.604  20.779  0.00  0.00    +0.000 HD
ENDROOT
BRANCH   3   5
ATOM      5  C   UNL     1       2.142   6.963  19.443  0.00  0.00    +0.000 A 
ATOM      6  C   UNL     1       2.630   7.248  18.158  0.00  0.00    +0.000 A 
ATOM      7  C   UNL     1       2.491   8.508  17.589  0.00  0.00    +0.000 A 
ATOM      8  C   UNL     1       1.849   9.514  18.293  0.00  0.00    +0.000 A 
ATOM      9  C   UNL     1       1.313   9.268  19.562  0.00  0.00    +0.000 A 
ATOM     10  C   UNL     1       0.665  10.316  20.234  0.00  0.00    +0.000 A 
ATOM     11  C   UNL     1       0.111  10.127  21.496  0.00  0.00    +0.000 A 
ATOM     12  C   UNL     1       0.196   8.880  22.098  0.00  0.00    +0.000 A 
ATOM     13  C   UNL     1       0.847   7.824  21.445  0.00  0.00    +0.000 A 
ATOM     14  C   UNL     1       1.431   7.980  20.159  0.00  0.00    +0.000 A 
ENDBRANCH   3   5
BRANCH   1  15
ATOM     15  C   UNL     1       2.234   3.237  20.352  0.00  0.00    +0.000 C 
ATOM     16  C   UNL     1       1.342   3.161  21.596  0.00  0.00    +0.000 C 
BRANCH  15  17
ATOM     17  O   UNL     1       3.613   3.337  20.740  0.00  0.00    +0.000 OA
BRANCH  17  18
ATOM     18  C   UNL     1       4.495   2.719  19.911  0.00  0.00    +0.000 C 
ATOM     19  O   UNL     1       5.021   1.635  20.118  0.00  0.00    +0.000 OA
BRANCH  18  24
ATOM     20  C   UNL     1       5.691   5.830  15.312  0.00  0.00    +0.000 C 
ATOM     21  C   UNL     1       5.338   5.016  16.517  0.00  0.00    +0.000 A 
ATOM     22  C   UNL     1       4.571   3.858  16.421  0.00  0.00    +0.000 A 
ATOM     23  N   UNL     1       4.260   3.080  17.488  0.00  0.00    +0.000 NA
ATOM     24  C   UNL     1       4.746   3.514  18.681  0.00  0.00    +0.000 A 
ATOM     25  C   UNL     1       5.499   4.674  18.787  0.00  0.00    +0.000 A 
ATOM     26  N   UNL     1       5.813   5.445  17.713  0.00  0.00    +0.000 NA
ENDBRANCH  18  24
ENDBRANCH  17  18
ENDBRANCH  15  17
ENDBRANCH   1  15
TORSDOF 5
ENDMDL
MODEL 8
REMARK VINA RESULT:      -7.5      3.668      6.847
REMARK  Name = 
REMARK  7 active torsions:
REMARK  status: ('A' for Active; 'I' for Inactive)
REMARK    1  A    between atoms: C_1  and  C_2
REMARK    2  A    between atoms: C_5  and  C_6
REMARK    3  A    between atoms: C_6  and  O_8
REMARK    4  A    between atoms: O_8  and  C_9
REMARK    5  A    between atoms: C_9  and  C_10
REMARK    6  A    between atoms: C_9  and  C_11
REMARK    7  A    between atoms: N_13  and  C_14
REMARK                            x       y       z     vdW  Elec       q    Type
REMARK                         _______ _______ _______ _____ _____    ______ ____
ROOT
ATOM      1  C   UNL     1       1.560   8.490  19.649  0.00  0.00    +0.000 C 
ATOM      2  O   UNL     1       1.419   8.885  18.492  0.00  0.00    +0.000 OA
ATOM      3  N   UNL     1       2.109   7.262  20.015  0.00  0.00    +0.000 N 
ATOM      4  H   UNL     1       1.996   6.988  20.981  0.00  0.00    +0.000 HD
ENDROOT
BRANCH   3   5
ATOM      5  C   UNL     1       2.671   6.303  19.122  0.00  0.00    +0.000 A 
ATOM      6  C   UNL     1       3.680   6.688  18.224  0.00  0.00    +0.000 A 
ATOM      7  C   UNL     1       4.215   5.794  17.304  0.00  0.00    +0.000 A 
ATOM      8  C   UNL     1       3.758   4.487  17.268  0.00  0.00    +0.000 A 
ATOM      9  C   UNL     1       2.780   4.047  18.167  0.00  0.00    +0.000 A 
ATOM     10  C   UNL     1       2.353   2.712  18.098  0.00  0.00    +0.000 A 
ATOM     11  C   UNL     1       1.387   2.219  18.968  0.00  0.00    +0.000 A 
ATOM     12  C   UNL     1       0.840   3.061  19.926  0.00  0.00    +0.000 A 
ATOM     13  C   UNL     1       1.248   4.400  20.004  0.00  0.00    +0.000 A 
ATOM     14  C   UNL     1       2.227   4.941  19.129  0.00  0.00    +0.000 A 
ENDBRANCH   3   5
BRANCH   1  15
ATOM     15  C   UNL     1       1.033   9.319  20.835  0.00  0.00    +0.000 C 
ATOM     16  C   UNL     1       0.078   8.460  21.673  0.00  0.00    +0.000 C 
BRANCH  15  17
ATOM     17  O   UNL     1       0.346  10.479  20.340  0.00  0.00    +0.000 OA
BRANCH  17  18
ATOM     18  C   UNL     1       0.601  11.634  21.010  0.00  0.00    +0.000 C 
ATOM     19  O   UNL     1       0.125  11.943  22.092  0.00  0.00    +0.000 OA
BRANCH  18  24
ATOM     20  C   UNL     1       4.101  14.949  18.007  0.00  0.00    +0.000 C 
ATOM     21  C   UNL     1       3.209  14.059  18.816  0.00  0.00    +0.000 A 
ATOM     22  C   UNL     1       3.197  14.104  20.208  0.00  0.00    +0.000 A 
ATOM     23  N   UNL     1       2.379  13.335  20.970  0.00  0.00    +0.000 NA
ATOM     24  C   UNL     1       1.562  12.496  20.277  0.00  0.00    +0.000 A 
ATOM     25  C   UNL     1       1.580  12.436  18.891  0.00  0.00    +0.000 A 
ATOM     26  N   UNL     1       2.397  13.214  18.134  0.00  0.00    +0.000 NA
ENDBRANCH  18  24
ENDBRANCH  17  18
ENDBRANCH  15  17
ENDBRANCH   1  15
TORSDOF 5
ENDMDL
MODEL 9
REMARK VINA RESULT:      -7.4      1.901      2.393
REMARK  Name = 
REMARK  7 active torsions:
REMARK  status: ('A' for Active; 'I' for Inactive)
REMARK    1  A    between atoms: C_1  and  C_2
REMARK    2  A    between atoms: C_5  and  C_6
REMARK    3  A    between atoms: C_6  and  O_8
REMARK    4  A    between atoms: O_8  and  C_9
REMARK    5  A    between atoms: C_9  and  C_10
REMARK    6  A    between atoms: C_9  and  C_11
REMARK    7  A    between atoms: N_13  and  C_14
REMARK                            x       y       z     vdW  Elec       q    Type
REMARK                         _______ _______ _______ _____ _____    ______ ____
ROOT
ATOM      1  C   UNL     1       2.815   7.191  18.397  0.00  0.00    +0.000 C 
ATOM      2  O   UNL     1       3.349   7.882  17.530  0.00  0.00    +0.000 OA
ATOM      3  N   UNL     1       1.933   7.665  19.367  0.00  0.00    +0.000 N 
ATOM      4  H   UNL     1       1.715   7.033  20.125  0.00  0.00    +0.000 HD
ENDROOT
BRANCH   3   5
ATOM      5  C   UNL     1       1.442   9.000  19.464  0.00  0.00    +0.000 A 
ATOM      6  C   UNL     1       1.646   9.901  18.407  0.00  0.00    +0.000 A 
ATOM      7  C   UNL     1       1.227  11.224  18.486  0.00  0.00    +0.000 A 
ATOM      8  C   UNL     1       0.583  11.674  19.627  0.00  0.00    +0.000 A 
ATOM      9  C   UNL     1       0.325  10.805  20.692  0.00  0.00    +0.000 A 
ATOM     10  C   UNL     1      -0.336  11.305  21.825  0.00  0.00    +0.000 A 
ATOM     11  C   UNL     1      -0.622  10.485  22.911  0.00  0.00    +0.000 A 
ATOM     12  C   UNL     1      -0.252   9.149  22.873  0.00  0.00    +0.000 A 
ATOM     13  C   UNL     1       0.417   8.634  21.754  0.00  0.00    +0.000 A 
ATOM     14  C   UNL     1       0.732   9.441  20.628  0.00  0.00    +0.000 A 
ENDBRANCH   3   5
BRANCH   1  15
ATOM     15  C   UNL     1       3.165   5.699  18.543  0.00  0.00    +0.000 C 
ATOM     16  C   UNL     1       2.074   4.998  19.361  0.00  0.00    +0.000 C 
BRANCH  15  17
ATOM     17  O   UNL     1       4.435   5.568  19.202  0.00  0.00    +0.000 OA
BRANCH  17  18
ATOM     18  C   UNL     1       5.163   4.477  18.845  0.00  0.00    +0.000 C 
ATOM     19  O   UNL     1       5.348   3.490  19.542  0.00  0.00    +0.000 OA
BRANCH  18  24
ATOM     20  C   UNL     1       7.488   5.056  13.695  0.00  0.00    +0.000 C 
ATOM     21  C   UNL     1       6.840   4.909  15.036  0.00  0.00    +0.000 A 
ATOM     22  C   UNL     1       5.905   3.909  15.294  0.00  0.00    +0.000 A 
ATOM     23  N   UNL     1       5.324   3.728  16.506  0.00  0.00    +0.000 NA
ATOM     24  C   UNL     1       5.711   4.605  17.470  0.00  0.00    +0.000 A 
ATOM     25  C   UNL     1       6.631   5.613  17.217  0.00  0.00    +0.000 A 
ATOM     26  N   UNL     1       7.215   5.784  16.003  0.00  0.00    +0.000 NA
ENDBRANCH  18  24
ENDBRANCH  17  18
ENDBRANCH  15  17
ENDBRANCH   1  15
TORSDOF 5
ENDMDL
