MODEL 1
REMARK VINA RESULT:      -7.9      0.000      0.000
REMARK  Name = 
REMARK  2 active torsions:
REMARK  status: ('A' for Active; 'I' for Inactive)
REMARK    1  A    between atoms: O_1  and  C_2
REMARK    2  A    between atoms: C_17  and  O_18
REMARK                            x       y       z     vdW  Elec       q    Type
REMARK                         _______ _______ _______ _____ _____    ______ ____
ROOT
ATOM      1  C   UNL     1       2.474   2.767  20.603  0.00  0.00    +0.000 C 
ATOM      2  C   UNL     1       1.966   4.007  21.275  0.00  0.00    +0.000 C 
ATOM      3  C   UNL     1       1.760   5.147  20.602  0.00  0.00    +0.000 C 
ATOM      4  C   UNL     1       1.457   6.495  21.178  0.00  0.00    +0.000 C 
ATOM      5  C   UNL     1       2.120   7.435  20.167  0.00  0.00    +0.000 C 
ATOM      6  N   UNL     1       2.111   6.724  18.887  0.00  0.00    +0.000 NA
ATOM      7  C   UNL     1       3.057   7.209  17.883  0.00  0.00    +0.000 C 
ATOM      8  C   UNL     1       3.901   6.175  17.152  0.00  0.00    +0.000 A 
ATOM      9  C   UNL     1       4.880   6.601  16.233  0.00  0.00    +0.000 A 
ATOM     10  C   UNL     1       5.662   5.633  15.639  0.00  0.00    +0.000 A 
ATOM     11  C   UNL     1       5.390   4.295  15.787  0.00  0.00    +0.000 A 
ATOM     12  C   UNL     1       4.402   3.839  16.613  0.00  0.00    +0.000 A 
ATOM     13  C   UNL     1       3.764   4.787  17.421  0.00  0.00    +0.000 A 
ATOM     14  C   UNL     1       3.244   4.430  18.796  0.00  0.00    +0.000 C 
ATOM     15  C   UNL     1       2.027   5.289  19.134  0.00  0.00    +0.000 C 
ATOM     16  C   UNL     1       2.933   2.945  19.125  0.00  0.00    +0.000 C 
ATOM     17  O   UNL     1       6.314   3.503  15.170  0.00  0.00    +0.000 OA
ATOM     18  C   UNL     1       7.350   4.484  14.997  0.00  0.00    +0.000 C 
ATOM     19  O   UNL     1       6.823   5.829  14.949  0.00  0.00    +0.000 OA
ENDROOT
BRANCH   1  20
ATOM     20  O   UNL     1       3.594   2.319  21.380  0.00  0.00    +0.000 OA
ATOM     21  H   UNL     1       3.652   1.361  21.190  0.00  0.00    +0.000 HD
ENDBRANCH   1  20
BRANCH  16  22
ATOM     22  O   UNL     1       4.084   2.090  18.937  0.00  0.00    +0.000 OA
ATOM     23  H   UNL     1       4.381   1.822  19.829  0.00  0.00    +0.000 HD
ENDBRANCH  16  22
TORSDOF 2
ENDMDL
MODEL 2
REMARK VINA RESULT:      -7.4      3.097      5.297
REMARK  Name = 
REMARK  2 active torsions:
REMARK  status: ('A' for Active; 'I' for Inactive)
REMARK    1  A    between atoms: O_1  and  C_2
REMARK    2  A    between atoms: C_17  and  O_18
REMARK                            x       y       z     vdW  Elec       q    Type
REMARK                         _______ _______ _______ _____ _____    ______ ____
ROOT
ATOM      1  C   UNL     1       2.607   3.080  19.999  0.00  0.00    +0.000 C 
ATOM      2  C   UNL     1       3.429   2.784  18.781  0.00  0.00    +0.000 C 
ATOM      3  C   UNL     1       4.121   3.735  18.140  0.00  0.00    +0.000 C 
ATOM      4  C   UNL     1       4.806   3.619  16.815  0.00  0.00    +0.000 C 
ATOM      5  C   UNL     1       4.669   5.038  16.255  0.00  0.00    +0.000 C 
ATOM      6  N   UNL     1       4.598   5.926  17.416  0.00  0.00    +0.000 NA
ATOM      7  C   UNL     1       4.036   7.253  17.168  0.00  0.00    +0.000 C 
ATOM      8  C   UNL     1       2.986   7.767  18.142  0.00  0.00    +0.000 A 
ATOM      9  C   UNL     1       2.361   9.006  17.901  0.00  0.00    +0.000 A 
ATOM     10  C   UNL     1       1.373   9.405  18.776  0.00  0.00    +0.000 A 
ATOM     11  C   UNL     1       1.124   8.722  19.942  0.00  0.00    +0.000 A 
ATOM     12  C   UNL     1       1.759   7.552  20.251  0.00  0.00    +0.000 A 
ATOM     13  C   UNL     1       2.577   6.995  19.262  0.00  0.00    +0.000 A 
ATOM     14  C   UNL     1       2.741   5.498  19.125  0.00  0.00    +0.000 C 
ATOM     15  C   UNL     1       4.126   5.172  18.572  0.00  0.00    +0.000 C 
ATOM     16  C   UNL     1       2.450   4.590  20.351  0.00  0.00    +0.000 C 
ATOM     17  O   UNL     1       0.071   9.241  20.636  0.00  0.00    +0.000 OA
ATOM     18  C   UNL     1      -0.510  10.027  19.582  0.00  0.00    +0.000 C 
ATOM     19  O   UNL     1       0.466  10.406  18.585  0.00  0.00    +0.000 OA
ENDROOT
BRANCH   1  20
ATOM     20  O   UNL     1       1.306   2.529  19.749  0.00  0.00    +0.000 OA
ATOM     21  H   UNL     1       1.083   2.836  18.847  0.00  0.00    +0.000 HD
ENDBRANCH   1  20
BRANCH  16  22
ATOM     22  O   UNL     1       1.107   4.765  20.855  0.00  0.00    +0.000 OA
ATOM     23  H   UNL     1       0.752   5.571  20.431  0.00  0.00    +0.000 HD
ENDBRANCH  16  22
TORSDOF 2
ENDMDL
MODEL 3
REMARK VINA RESULT:      -6.7      5.138      7.205
REMARK  Name = 
REMARK  2 active torsions:
REMARK  status: ('A' for Active; 'I' for Inactive)
REMARK    1  A    between atoms: O_1  and  C_2
REMARK    2  A    between atoms: C_17  and  O_18
REMARK                            x       y       z     vdW  Elec       q    Type
REMARK                         _______ _______ _______ _____ _____    ______ ____
ROOT
ATOM      1  C   UNL     1      -1.651  12.094  18.774  0.00  0.00    +0.000 C 
ATOM      2  C   UNL     1      -2.155  12.288  20.172  0.00  0.00    +0.000 C 
ATOM      3  C   UNL     1      -1.453  11.895  21.243  0.00  0.00    +0.000 C 
ATOM      4  C   UNL     1      -1.922  11.841  22.663  0.00  0.00    +0.000 C 
ATOM      5  C   UNL     1      -1.137  10.649  23.218  0.00  0.00    +0.000 C 
ATOM      6  N   UNL     1       0.095  10.574  22.431  0.00  0.00    +0.000 NA
ATOM      7  C   UNL     1       0.794   9.291  22.466  0.00  0.00    +0.000 C 
ATOM      8  C   UNL     1       1.262   8.707  21.141  0.00  0.00    +0.000 A 
ATOM      9  C   UNL     1       1.871   7.436  21.117  0.00  0.00    +0.000 A 
ATOM     10  C   UNL     1       2.224   6.920  19.888  0.00  0.00    +0.000 A 
ATOM     11  C   UNL     1       2.160   7.676  18.743  0.00  0.00    +0.000 A 
ATOM     12  C   UNL     1       1.642   8.941  18.732  0.00  0.00    +0.000 A 
ATOM     13  C   UNL     1       1.043   9.390  19.915  0.00  0.00    +0.000 A 
ATOM     14  C   UNL     1      -0.131  10.343  19.892  0.00  0.00    +0.000 C 
ATOM     15  C   UNL     1      -0.117  11.221  21.141  0.00  0.00    +0.000 C 
ATOM     16  C   UNL     1      -0.359  11.232  18.640  0.00  0.00    +0.000 C 
ATOM     17  O   UNL     1       2.494   6.965  17.628  0.00  0.00    +0.000 OA
ATOM     18  C   UNL     1       2.370   5.642  18.177  0.00  0.00    +0.000 C 
ATOM     19  O   UNL     1       2.562   5.628  19.610  0.00  0.00    +0.000 OA
ENDROOT
BRANCH   1  20
ATOM     20  O   UNL     1      -2.709  11.450  18.050  0.00  0.00    +0.000 OA
ATOM     21  H   UNL     1      -2.801  11.980  17.233  0.00  0.00    +0.000 HD
ENDBRANCH   1  20
BRANCH  16  22
ATOM     22  O   UNL     1      -0.499  10.452  17.432  0.00  0.00    +0.000 OA
ATOM     23  H   UNL     1      -0.520   9.514  17.706  0.00  0.00    +0.000 HD
ENDBRANCH  16  22
TORSDOF 2
ENDMDL
MODEL 4
REMARK VINA RESULT:      -6.3      2.273      3.361
REMARK  Name = 
REMARK  2 active torsions:
REMARK  status: ('A' for Active; 'I' for Inactive)
REMARK    1  A    between atoms: O_1  and  C_2
REMARK    2  A    between atoms: C_17  and  O_18
REMARK                            x       y       z     vdW  Elec       q    Type
REMARK                         _______ _______ _______ _____ _____    ______ ____
ROOT
ATOM      1  C   UNL     1       2.352   7.144  19.849  0.00  0.00    +0.000 C 
ATOM      2  C   UNL     1       1.428   6.044  20.274  0.00  0.00    +0.000 C 
ATOM      3  C   UNL     1       1.774   4.752  20.196  0.00  0.00    +0.000 C 
ATOM      4  C   UNL     1       0.886   3.563  20.390  0.00  0.00    +0.000 C 
ATOM      5  C   UNL     1       1.505   2.537  19.436  0.00  0.00    +0.000 C 
ATOM      6  N   UNL     1       2.924   2.884  19.335  0.00  0.00    +0.000 NA
ATOM      7  C   UNL     1       3.630   2.344  18.174  0.00  0.00    +0.000 C 
ATOM      8  C   UNL     1       4.512   3.296  17.380  0.00  0.00    +0.000 A 
ATOM      9  C   UNL     1       5.149   2.841  16.208  0.00  0.00    +0.000 A 
ATOM     10  C   UNL     1       5.891   3.754  15.488  0.00  0.00    +0.000 A 
ATOM     11  C   UNL     1       6.157   5.010  15.975  0.00  0.00    +0.000 A 
ATOM     12  C   UNL     1       5.618   5.469  17.143  0.00  0.00    +0.000 A 
ATOM     13  C   UNL     1       4.661   4.657  17.762  0.00  0.00    +0.000 A 
ATOM     14  C   UNL     1       3.515   5.248  18.551  0.00  0.00    +0.000 C 
ATOM     15  C   UNL     1       3.101   4.293  19.668  0.00  0.00    +0.000 C 
ATOM     16  C   UNL     1       3.655   6.683  19.127  0.00  0.00    +0.000 C 
ATOM     17  O   UNL     1       6.854   5.777  15.087  0.00  0.00    +0.000 OA
ATOM     18  C   UNL     1       6.618   4.995  13.904  0.00  0.00    +0.000 C 
ATOM     19  O   UNL     1       6.351   3.608  14.213  0.00  0.00    +0.000 OA
ENDROOT
BRANCH   1  20
ATOM     20  O   UNL     1       1.601   7.976  18.952  0.00  0.00    +0.000 OA
ATOM     21  H   UNL     1       0.668   7.815  19.199  0.00  0.00    +0.000 HD
ENDBRANCH   1  20
BRANCH  16  22
ATOM     22  O   UNL     1       3.932   7.661  18.099  0.00  0.00    +0.000 OA
ATOM     23  H   UNL     1       4.165   7.160  17.293  0.00  0.00    +0.000 HD
ENDBRANCH  16  22
TORSDOF 2
ENDMDL
MODEL 5
REMARK VINA RESULT:      -6.2      1.541      2.179
REMARK  Name = 
REMARK  2 active torsions:
REMARK  status: ('A' for Active; 'I' for Inactive)
REMARK    1  A    between atoms: O_1  and  C_2
REMARK    2  A    between atoms: C_17  and  O_18
REMARK                            x       y       z     vdW  Elec       q    Type
REMARK                         _______ _______ _______ _____ _____    ______ ____
ROOT
ATOM      1  C   UNL     1       2.800   1.457  18.113  0.00  0.00    +0.000 C 
ATOM      2  C   UNL     1       1.919   1.878  19.250  0.00  0.00    +0.000 C 
ATOM      3  C   UNL     1       1.542   3.152  19.425  0.00  0.00    +0.000 C 
ATOM      4  C   UNL     1       0.845   3.734  20.615  0.00  0.00    +0.000 C 
ATOM      5  C   UNL     1       1.401   5.161  20.649  0.00  0.00    +0.000 C 
ATOM      6  N   UNL     1       1.747   5.494  19.267  0.00  0.00    +0.000 NA
ATOM      7  C   UNL     1       2.682   6.604  19.094  0.00  0.00    +0.000 C 
ATOM      8  C   UNL     1       3.846   6.404  18.134  0.00  0.00    +0.000 A 
ATOM      9  C   UNL     1       4.816   7.416  17.996  0.00  0.00    +0.000 A 
ATOM     10  C   UNL     1       5.884   7.167  17.160  0.00  0.00    +0.000 A 
ATOM     11  C   UNL     1       5.923   6.059  16.350  0.00  0.00    +0.000 A 
ATOM     12  C   UNL     1       4.966   5.085  16.400  0.00  0.00    +0.000 A 
ATOM     13  C   UNL     1       4.009   5.189  17.417  0.00  0.00    +0.000 A 
ATOM     14  C   UNL     1       3.399   3.960  18.053  0.00  0.00    +0.000 C 
ATOM     15  C   UNL     1       1.976   4.264  18.517  0.00  0.00    +0.000 C 
ATOM     16  C   UNL     1       3.410   2.619  17.272  0.00  0.00    +0.000 C 
ATOM     17  O   UNL     1       7.089   5.966  15.647  0.00  0.00    +0.000 OA
ATOM     18  C   UNL     1       7.873   6.893  16.418  0.00  0.00    +0.000 C 
ATOM     19  O   UNL     1       7.050   7.872  17.092  0.00  0.00    +0.000 OA
ENDROOT
BRANCH   1  20
ATOM     20  O   UNL     1       3.872   0.700  18.694  0.00  0.00    +0.000 OA
ATOM     21  H   UNL     1       3.694   0.729  19.656  0.00  0.00    +0.000 HD
ENDBRANCH   1  20
BRANCH  16  22
ATOM     22  O   UNL     1       4.747   2.211  16.902  0.00  0.00    +0.000 OA
ATOM     23  H   UNL     1       4.788   1.243  17.026  0.00  0.00    +0.000 HD
ENDBRANCH  16  22
TORSDOF 2
ENDMDL
MODEL 6
REMARK VINA RESULT:      -6.2      3.028      5.794
REMARK  Name = 
REMARK  2 active torsions:
REMARK  status: ('A' for Active; 'I' for Inactive)
REMARK    1  A    between atoms: O_1  and  C_2
REMARK    2  A    between atoms: C_17  and  O_18
REMARK                            x       y       z     vdW  Elec       q    Type
REMARK                         _______ _______ _______ _____ _____    ______ ____
ROOT
ATOM      1  C   UNL     1       5.323   5.260  16.968  0.00  0.00    +0.000 C 
ATOM      2  C   UNL     1       5.390   4.025  17.815  0.00  0.00    +0.000 C 
ATOM      3  C   UNL     1       4.379   3.652  18.611  0.00  0.00    +0.000 C 
ATOM      4  C   UNL     1       4.394   2.572  19.647  0.00  0.00    +0.000 C 
ATOM      5  C   UNL     1       3.422   3.118  20.697  0.00  0.00    +0.000 C 
ATOM      6  N   UNL     1       2.484   3.977  19.973  0.00  0.00    +0.000 NA
ATOM      7  C   UNL     1       1.746   4.942  20.786  0.00  0.00    +0.000 C 
ATOM      8  C   UNL     1       1.674   6.377  20.285  0.00  0.00    +0.000 A 
ATOM      9  C   UNL     1       1.041   7.358  21.073  0.00  0.00    +0.000 A 
ATOM     10  C   UNL     1       1.051   8.656  20.608  0.00  0.00    +0.000 A 
ATOM     11  C   UNL     1       1.495   8.966  19.346  0.00  0.00    +0.000 A 
ATOM     12  C   UNL     1       2.051   8.032  18.518  0.00  0.00    +0.000 A 
ATOM     13  C   UNL     1       2.285   6.763  19.062  0.00  0.00    +0.000 A 
ATOM     14  C   UNL     1       3.455   5.917  18.614  0.00  0.00    +0.000 C 
ATOM     15  C   UNL     1       3.106   4.435  18.736  0.00  0.00    +0.000 C 
ATOM     16  C   UNL     1       4.093   6.183  17.224  0.00  0.00    +0.000 C 
ATOM     17  O   UNL     1       1.479  10.308  19.102  0.00  0.00    +0.000 OA
ATOM     18  C   UNL     1       1.369  10.768  20.459  0.00  0.00    +0.000 C 
ATOM     19  O   UNL     1       0.752   9.782  21.319  0.00  0.00    +0.000 OA
ENDROOT
BRANCH   1  20
ATOM     20  O   UNL     1       6.519   6.004  17.247  0.00  0.00    +0.000 OA
ATOM     21  H   UNL     1       7.234   5.468  16.848  0.00  0.00    +0.000 HD
ENDBRANCH   1  20
BRANCH  16  22
ATOM     22  O   UNL     1       4.554   7.545  17.084  0.00  0.00    +0.000 OA
ATOM     23  H   UNL     1       3.803   8.120  17.327  0.00  0.00    +0.000 HD
ENDBRANCH  16  22
TORSDOF 2
ENDMDL
MODEL 7
REMARK VINA RESULT:      -6.1      2.431      5.884
REMARK  Name = 
REMARK  2 active torsions:
REMARK  status: ('A' for Active; 'I' for Inactive)
REMARK    1  A    between atoms: O_1  and  C_2
REMARK    2  A    between atoms: C_17  and  O_18
REMARK                            x       y       z     vdW  Elec       q    Type
REMARK                         _______ _______ _______ _____ _____    ______ ____
ROOT
ATOM      1  C   UNL     1       7.668   5.632  18.185  0.00  0.00    +0.000 C 
ATOM      2  C   UNL     1       7.750   5.163  16.764  0.00  0.00    +0.000 C 
ATOM      3  C   UNL     1       6.657   4.941  16.022  0.00  0.00    +0.000 C 
ATOM      4  C   UNL     1       6.592   4.285  14.679  0.00  0.00    +0.000 C 
ATOM      5  C   UNL     1       5.227   3.592  14.722  0.00  0.00    +0.000 C 
ATOM      6  N   UNL     1       4.400   4.385  15.634  0.00  0.00    +0.000 NA
ATOM      7  C   UNL     1       3.224   3.707  16.178  0.00  0.00    +0.000 C 
ATOM      8  C   UNL     1       2.974   3.822  17.675  0.00  0.00    +0.000 A 
ATOM      9  C   UNL     1       1.898   3.122  18.256  0.00  0.00    +0.000 A 
ATOM     10  C   UNL     1       1.745   3.208  19.624  0.00  0.00    +0.000 A 
ATOM     11  C   UNL     1       2.490   4.079  20.380  0.00  0.00    +0.000 A 
ATOM     12  C   UNL     1       3.498   4.831  19.845  0.00  0.00    +0.000 A 
ATOM     13  C   UNL     1       3.841   4.575  18.513  0.00  0.00    +0.000 A 
ATOM     14  C   UNL     1       5.262   4.731  18.020  0.00  0.00    +0.000 C 
ATOM     15  C   UNL     1       5.264   5.128  16.545  0.00  0.00    +0.000 C 
ATOM     16  C   UNL     1       6.237   5.652  18.802  0.00  0.00    +0.000 C 
ATOM     17  O   UNL     1       2.229   3.967  21.714  0.00  0.00    +0.000 OA
ATOM     18  C   UNL     1       1.570   2.690  21.694  0.00  0.00    +0.000 C 
ATOM     19  O   UNL     1       0.964   2.412  20.410  0.00  0.00    +0.000 OA
ENDROOT
BRANCH   1  20
ATOM     20  O   UNL     1       8.486   4.737  18.952  0.00  0.00    +0.000 OA
ATOM     21  H   UNL     1       8.641   5.213  19.792  0.00  0.00    +0.000 HD
ENDBRANCH   1  20
BRANCH  16  22
ATOM     22  O   UNL     1       6.372   5.257  20.186  0.00  0.00    +0.000 OA
ATOM     23  H   UNL     1       5.466   5.124  20.528  0.00  0.00    +0.000 HD
ENDBRANCH  16  22
TORSDOF 2
ENDMDL
MODEL 8
REMARK VINA RESULT:      -6.1      3.122      5.284
REMARK  Name = 
REMARK  2 active torsions:
REMARK  status: ('A' for Active; 'I' for Inactive)
REMARK    1  A    between atoms: O_1  and  C_2
REMARK    2  A    between atoms: C_17  and  O_18
REMARK                            x       y       z     vdW  Elec       q    Type
REMARK                         _______ _______ _______ _____ _____    ______ ____
ROOT
ATOM      1  C   UNL     1       4.989   4.658  17.511  0.00  0.00    +0.000 C 
ATOM      2  C   UNL     1       4.733   3.779  18.698  0.00  0.00    +0.000 C 
ATOM      3  C   UNL     1       3.621   3.888  19.437  0.00  0.00    +0.000 C 
ATOM      4  C   UNL     1       3.338   3.225  20.748  0.00  0.00    +0.000 C 
ATOM      5  C   UNL     1       2.453   4.259  21.450  0.00  0.00    +0.000 C 
ATOM      6  N   UNL     1       1.771   4.997  20.385  0.00  0.00    +0.000 NA
ATOM      7  C   UNL     1       1.221   6.298  20.764  0.00  0.00    +0.000 C 
ATOM      8  C   UNL     1       1.497   7.475  19.840  0.00  0.00    +0.000 A 
ATOM      9  C   UNL     1       1.054   8.763  20.204  0.00  0.00    +0.000 A 
ATOM     10  C   UNL     1       1.378   9.810  19.367  0.00  0.00    +0.000 A 
ATOM     11  C   UNL     1       1.950   9.598  18.136  0.00  0.00    +0.000 A 
ATOM     12  C   UNL     1       2.331   8.356  17.713  0.00  0.00    +0.000 A 
ATOM     13  C   UNL     1       2.247   7.316  18.645  0.00  0.00    +0.000 A 
ATOM     14  C   UNL     1       3.223   6.161  18.629  0.00  0.00    +0.000 C 
ATOM     15  C   UNL     1       2.548   4.897  19.155  0.00  0.00    +0.000 C 
ATOM     16  C   UNL     1       3.982   5.831  17.315  0.00  0.00    +0.000 C 
ATOM     17  O   UNL     1       2.246  10.763  17.491  0.00  0.00    +0.000 OA
ATOM     18  C   UNL     1       2.163  11.654  18.617  0.00  0.00    +0.000 C 
ATOM     19  O   UNL     1       1.296  11.141  19.654  0.00  0.00    +0.000 OA
ENDROOT
BRANCH   1  20
ATOM     20  O   UNL     1       6.302   5.207  17.694  0.00  0.00    +0.000 OA
ATOM     21  H   UNL     1       6.236   5.719  18.525  0.00  0.00    +0.000 HD
ENDBRANCH   1  20
BRANCH  16  22
ATOM     22  O   UNL     1       4.741   6.957  16.822  0.00  0.00    +0.000 OA
ATOM     23  H   UNL     1       4.114   7.703  16.741  0.00  0.00    +0.000 HD
ENDBRANCH  16  22
TORSDOF 2
ENDMDL
MODEL 9
REMARK VINA RESULT:      -6.0      8.047     11.039
REMARK  Name = 
REMARK  2 active torsions:
REMARK  status: ('A' for Active; 'I' for Inactive)
REMARK    1  A    between atoms: O_1  and  C_2
REMARK    2  A    between atoms: C_17  and  O_18
REMARK                            x       y       z     vdW  Elec       q    Type
REMARK                         _______ _______ _______ _____ _____    ______ ____
ROOT
ATOM      1  C   UNL     1       0.757  10.606  19.377  0.00  0.00    +0.000 C 
ATOM      2  C   UNL     1      -0.007   9.992  18.244  0.00  0.00    +0.000 C 
ATOM      3  C   UNL     1      -1.185  10.480  17.832  0.00  0.00    +0.000 C 
ATOM      4  C   UNL     1      -2.137   9.850  16.864  0.00  0.00    +0.000 C 
ATOM      5  C   UNL     1      -3.495  10.325  17.390  0.00  0.00    +0.000 C 
ATOM      6  N   UNL     1      -3.244  11.601  18.061  0.00  0.00    +0.000 NA
ATOM      7  C   UNL     1      -4.272  12.035  19.007  0.00  0.00    +0.000 C 
ATOM      8  C   UNL     1      -3.811  12.531  20.370  0.00  0.00    +0.000 A 
ATOM      9  C   UNL     1      -4.769  12.885  21.341  0.00  0.00    +0.000 A 
ATOM     10  C   UNL     1      -4.308  13.271  22.582  0.00  0.00    +0.000 A 
ATOM     11  C   UNL     1      -2.971  13.482  22.821  0.00  0.00    +0.000 A 
ATOM     12  C   UNL     1      -2.013  13.220  21.884  0.00  0.00    +0.000 A 
ATOM     13  C   UNL     1      -2.433  12.587  20.708  0.00  0.00    +0.000 A 
ATOM     14  C   UNL     1      -1.532  11.626  19.964  0.00  0.00    +0.000 C 
ATOM     15  C   UNL     1      -1.846  11.665  18.470  0.00  0.00    +0.000 C 
ATOM     16  C   UNL     1       0.004  11.716  20.170  0.00  0.00    +0.000 C 
ATOM     17  O   UNL     1      -2.718  13.800  24.123  0.00  0.00    +0.000 OA
ATOM     18  C   UNL     1      -3.964  13.364  24.693  0.00  0.00    +0.000 C 
ATOM     19  O   UNL     1      -5.040  13.386  23.727  0.00  0.00    +0.000 OA
ENDROOT
BRANCH   1  20
ATOM     20  O   UNL     1       1.073   9.533  20.277  0.00  0.00    +0.000 OA
ATOM     21  H   UNL     1       0.271   9.438  20.829  0.00  0.00    +0.000 HD
ENDBRANCH   1  20
BRANCH  16  22
ATOM     22  O   UNL     1       0.380  11.568  21.558  0.00  0.00    +0.000 OA
ATOM     23  H   UNL     1       0.718  10.657  21.660  0.00  0.00    +0.000 HD
ENDBRANCH  16  22
TORSDOF 2
ENDMDL
