MODEL 1
REMARK VINA RESULT:      -7.0      0.000      0.000
REMARK  Name = 
REMARK  15 active torsions:
REMARK  status: ('A' for Active; 'I' for Inactive)
REMARK    1  A    between atoms: C_1  and  C_2
REMARK    2  A    between atoms: C_7  and  C_8
REMARK    3  A    between atoms: N_10  and  C_11
REMARK    4  A    between atoms: C_11  and  C_12
REMARK    5  A    between atoms: C_12  and  C_13
REMARK    6  A    between atoms: C_13  and  C_14
REMARK    7  A    between atoms: C_14  and  C_15
REMARK    8  A    between atoms: C_15  and  C_16
REMARK    9  A    between atoms: C_15  and  N_17
REMARK   10  A    between atoms: N_17  and  C_18
REMARK   11  A    between atoms: C_18  and  C_19
REMARK   12  A    between atoms: C_19  and  O_20
REMARK   13  A    between atoms: C_19  and  C_21
REMARK   14  A    between atoms: C_24  and  O_25
REMARK   15  A    between atoms: C_26  and  O_27
REMARK                            x       y       z     vdW  Elec       q    Type
REMARK                         _______ _______ _______ _____ _____    ______ ____
ROOT
ATOM      1  C   UNL     1       1.996   4.697  20.053  0.00  0.00    +0.000 C 
ATOM      2  C   UNL     1       0.557   4.244  20.364  0.00  0.00    +0.000 C 
ENDROOT
BRANCH   1   3
ATOM      3  N   UNL     1       2.829   3.492  19.901  0.00  0.00    +0.000 NA
ATOM      4  H   UNL     1       2.345   2.688  20.289  0.00  0.00    +0.000 HD
BRANCH   3   5
ATOM      5  C   UNL     1       3.250   3.221  18.510  0.00  0.00    +0.000 C 
BRANCH   5   6
ATOM      6  C   UNL     1       4.793   3.167  18.302  0.00  0.00    +0.000 C 
BRANCH   6   7
ATOM      7  C   UNL     1       5.538   4.455  17.999  0.00  0.00    +0.000 A 
ATOM      8  C   UNL     1       5.246   5.149  16.804  0.00  0.00    +0.000 A 
ATOM      9  C   UNL     1       5.960   6.295  16.432  0.00  0.00    +0.000 A 
ATOM     10  C   UNL     1       6.985   6.744  17.252  0.00  0.00    +0.000 A 
ATOM     11  C   UNL     1       7.259   6.090  18.448  0.00  0.00    +0.000 A 
ATOM     12  C   UNL     1       6.530   4.975  18.841  0.00  0.00    +0.000 A 
BRANCH  10  13
ATOM     13  O   UNL     1       7.763   7.818  16.921  0.00  0.00    +0.000 OA
ATOM     14  H   UNL     1       7.578   8.531  17.557  0.00  0.00    +0.000 HD
ENDBRANCH  10  13
BRANCH  11  15
ATOM     15  O   UNL     1       8.285   6.521  19.242  0.00  0.00    +0.000 OA
ATOM     16  H   UNL     1       8.436   5.783  19.865  0.00  0.00    +0.000 HD
ENDBRANCH  11  15
ENDBRANCH   6   7
BRANCH   6  17
ATOM     17  O   UNL     1       5.369   2.578  19.479  0.00  0.00    +0.000 OA
ATOM     18  H   UNL     1       4.669   2.614  20.153  0.00  0.00    +0.000 HD
ENDBRANCH   6  17
ENDBRANCH   5   6
ENDBRANCH   3   5
ENDBRANCH   1   3
BRANCH   1  19
ATOM     19  C   UNL     1       2.005   5.631  18.816  0.00  0.00    +0.000 C 
BRANCH  19  20
ATOM     20  C   UNL     1       2.628   6.995  19.118  0.00  0.00    +0.000 C 
BRANCH  20  21
ATOM     21  C   UNL     1       2.947   7.828  17.887  0.00  0.00    +0.000 C 
BRANCH  21  22
ATOM     22  C   UNL     1       1.862   8.897  17.741  0.00  0.00    +0.000 C 
BRANCH  22  25
ATOM     23  C   UNL     1       1.079  10.439  19.491  0.00  0.00    +0.000 C 
ATOM     24  O   UNL     1       1.539  11.418  18.918  0.00  0.00    +0.000 OA
ATOM     25  N   UNL     1       1.204   9.163  18.996  0.00  0.00    +0.000 N 
ATOM     26  H   UNL     1       0.652   8.418  19.387  0.00  0.00    +0.000 HD
BRANCH  23  33
ATOM     27  C   UNL     1      -1.219  12.560  19.950  0.00  0.00    +0.000 C 
ATOM     28  C   UNL     1      -0.746  11.554  20.966  0.00  0.00    +0.000 A 
ATOM     29  C   UNL     1      -1.416  11.545  22.207  0.00  0.00    +0.000 A 
ATOM     30  C   UNL     1      -1.087  10.628  23.207  0.00  0.00    +0.000 A 
ATOM     31  C   UNL     1      -0.074   9.703  22.988  0.00  0.00    +0.000 A 
ATOM     32  C   UNL     1       0.605   9.695  21.775  0.00  0.00    +0.000 A 
ATOM     33  C   UNL     1       0.281  10.612  20.751  0.00  0.00    +0.000 A 
ENDBRANCH  23  33
ENDBRANCH  22  25
ENDBRANCH  21  22
ENDBRANCH  20  21
ENDBRANCH  19  20
ENDBRANCH   1  19
TORSDOF 13
ENDMDL
MODEL 2
REMARK VINA RESULT:      -6.9      1.997      2.822
REMARK  Name = 
REMARK  15 active torsions:
REMARK  status: ('A' for Active; 'I' for Inactive)
REMARK    1  A    between atoms: C_1  and  C_2
REMARK    2  A    between atoms: C_7  and  C_8
REMARK    3  A    between atoms: N_10  and  C_11
REMARK    4  A    between atoms: C_11  and  C_12
REMARK    5  A    between atoms: C_12  and  C_13
REMARK    6  A    between atoms: C_13  and  C_14
REMARK    7  A    between atoms: C_14  and  C_15
REMARK    8  A    between atoms: C_15  and  C_16
REMARK    9  A    between atoms: C_15  and  N_17
REMARK   10  A    between atoms: N_17  and  C_18
REMARK   11  A    between atoms: C_18  and  C_19
REMARK   12  A    between atoms: C_19  and  O_20
REMARK   13  A    between atoms: C_19  and  C_21
REMARK   14  A    between atoms: C_24  and  O_25
REMARK   15  A    between atoms: C_26  and  O_27
REMARK                            x       y       z     vdW  Elec       q    Type
REMARK                         _______ _______ _______ _____ _____    ______ ____
ROOT
ATOM      1  C   UNL     1       2.062   5.405  19.594  0.00  0.00    +0.000 C 
ATOM      2  C   UNL     1       1.546   4.706  18.323  0.00  0.00    +0.000 C 
ENDROOT
BRANCH   1   3
ATOM      3  N   UNL     1       2.937   4.461  20.310  0.00  0.00    +0.000 NA
ATOM      4  H   UNL     1       2.635   4.377  21.276  0.00  0.00    +0.000 HD
BRANCH   3   5
ATOM      5  C   UNL     1       3.031   3.128  19.678  0.00  0.00    +0.000 C 
BRANCH   5   6
ATOM      6  C   UNL     1       4.404   2.828  19.005  0.00  0.00    +0.000 C 
BRANCH   6   7
ATOM      7  C   UNL     1       5.207   3.981  18.431  0.00  0.00    +0.000 A 
ATOM      8  C   UNL     1       5.004   4.351  17.084  0.00  0.00    +0.000 A 
ATOM      9  C   UNL     1       5.774   5.350  16.476  0.00  0.00    +0.000 A 
ATOM     10  C   UNL     1       6.768   5.975  17.215  0.00  0.00    +0.000 A 
ATOM     11  C   UNL     1       6.955   5.644  18.553  0.00  0.00    +0.000 A 
ATOM     12  C   UNL     1       6.169   4.682  19.172  0.00  0.00    +0.000 A 
BRANCH  10  13
ATOM     13  O   UNL     1       7.598   6.915  16.670  0.00  0.00    +0.000 OA
ATOM     14  H   UNL     1       8.127   6.484  15.977  0.00  0.00    +0.000 HD
ENDBRANCH  10  13
BRANCH  11  15
ATOM     15  O   UNL     1       7.950   6.246  19.272  0.00  0.00    +0.000 OA
ATOM     16  H   UNL     1       8.352   5.517  19.785  0.00  0.00    +0.000 HD
ENDBRANCH  11  15
ENDBRANCH   6   7
BRANCH   6  17
ATOM     17  O   UNL     1       5.220   2.145  19.972  0.00  0.00    +0.000 OA
ATOM     18  H   UNL     1       4.816   1.267  20.074  0.00  0.00    +0.000 HD
ENDBRANCH   6  17
ENDBRANCH   5   6
ENDBRANCH   3   5
ENDBRANCH   1   3
BRANCH   1  19
ATOM     19  C   UNL     1       2.747   6.745  19.225  0.00  0.00    +0.000 C 
BRANCH  19  20
ATOM     20  C   UNL     1       2.120   7.402  17.993  0.00  0.00    +0.000 C 
BRANCH  20  21
ATOM     21  C   UNL     1       2.276   8.914  17.939  0.00  0.00    +0.000 C 
BRANCH  21  22
ATOM     22  C   UNL     1       1.454   9.519  19.078  0.00  0.00    +0.000 C 
BRANCH  22  25
ATOM     23  C   UNL     1      -0.487  10.920  18.503  0.00  0.00    +0.000 C 
ATOM     24  O   UNL     1       0.145  11.959  18.646  0.00  0.00    +0.000 OA
ATOM     25  N   UNL     1       0.069   9.679  18.709  0.00  0.00    +0.000 N 
ATOM     26  H   UNL     1      -0.417   8.855  18.396  0.00  0.00    +0.000 HD
BRANCH  23  33
ATOM     27  C   UNL     1      -2.871  12.463  19.890  0.00  0.00    +0.000 C 
ATOM     28  C   UNL     1      -2.976  11.651  18.626  0.00  0.00    +0.000 A 
ATOM     29  C   UNL     1      -4.241  11.614  18.001  0.00  0.00    +0.000 A 
ATOM     30  C   UNL     1      -4.442  10.924  16.804  0.00  0.00    +0.000 A 
ATOM     31  C   UNL     1      -3.382  10.251  16.209  0.00  0.00    +0.000 A 
ATOM     32  C   UNL     1      -2.128  10.269  16.808  0.00  0.00    +0.000 A 
ATOM     33  C   UNL     1      -1.906  10.965  18.016  0.00  0.00    +0.000 A 
ENDBRANCH  23  33
ENDBRANCH  22  25
ENDBRANCH  21  22
ENDBRANCH  20  21
ENDBRANCH  19  20
ENDBRANCH   1  19
TORSDOF 13
ENDMDL
MODEL 3
REMARK VINA RESULT:      -6.9      2.229      7.614
REMARK  Name = 
REMARK  15 active torsions:
REMARK  status: ('A' for Active; 'I' for Inactive)
REMARK    1  A    between atoms: C_1  and  C_2
REMARK    2  A    between atoms: C_7  and  C_8
REMARK    3  A    between atoms: N_10  and  C_11
REMARK    4  A    between atoms: C_11  and  C_12
REMARK    5  A    between atoms: C_12  and  C_13
REMARK    6  A    between atoms: C_13  and  C_14
REMARK    7  A    between atoms: C_14  and  C_15
REMARK    8  A    between atoms: C_15  and  C_16
REMARK    9  A    between atoms: C_15  and  N_17
REMARK   10  A    between atoms: N_17  and  C_18
REMARK   11  A    between atoms: C_18  and  C_19
REMARK   12  A    between atoms: C_19  and  O_20
REMARK   13  A    between atoms: C_19  and  C_21
REMARK   14  A    between atoms: C_24  and  O_25
REMARK   15  A    between atoms: C_26  and  O_27
REMARK                            x       y       z     vdW  Elec       q    Type
REMARK                         _______ _______ _______ _____ _____    ______ ____
ROOT
ATOM      1  C   UNL     1       1.678   5.241  19.803  0.00  0.00    +0.000 C 
ATOM      2  C   UNL     1       3.041   5.135  20.511  0.00  0.00    +0.000 C 
ENDROOT
BRANCH   1   3
ATOM      3  N   UNL     1       1.916   5.689  18.421  0.00  0.00    +0.000 NA
ATOM      4  H   UNL     1       1.035   5.729  17.916  0.00  0.00    +0.000 HD
BRANCH   3   5
ATOM      5  C   UNL     1       2.630   6.979  18.319  0.00  0.00    +0.000 C 
BRANCH   5   6
ATOM      6  C   UNL     1       1.701   8.220  18.166  0.00  0.00    +0.000 C 
BRANCH   6   7
ATOM      7  C   UNL     1       1.180   8.905  19.416  0.00  0.00    +0.000 A 
ATOM      8  C   UNL     1       0.144   9.857  19.293  0.00  0.00    +0.000 A 
ATOM      9  C   UNL     1      -0.319  10.581  20.399  0.00  0.00    +0.000 A 
ATOM     10  C   UNL     1       0.269  10.365  21.637  0.00  0.00    +0.000 A 
ATOM     11  C   UNL     1       1.266   9.407  21.778  0.00  0.00    +0.000 A 
ATOM     12  C   UNL     1       1.703   8.659  20.694  0.00  0.00    +0.000 A 
BRANCH  10  13
ATOM     13  O   UNL     1      -0.090  11.079  22.746  0.00  0.00    +0.000 OA
ATOM     14  H   UNL     1       0.113  10.541  23.530  0.00  0.00    +0.000 HD
ENDBRANCH  10  13
BRANCH  11  15
ATOM     15  O   UNL     1       1.859   9.213  22.995  0.00  0.00    +0.000 OA
ATOM     16  H   UNL     1       2.166  10.102  23.259  0.00  0.00    +0.000 HD
ENDBRANCH  11  15
ENDBRANCH   6   7
BRANCH   6  17
ATOM     17  O   UNL     1       2.404   9.194  17.377  0.00  0.00    +0.000 OA
ATOM     18  H   UNL     1       1.982   9.168  16.501  0.00  0.00    +0.000 HD
ENDBRANCH   6  17
ENDBRANCH   5   6
ENDBRANCH   3   5
ENDBRANCH   1   3
BRANCH   1  19
ATOM     19  C   UNL     1       0.918   3.894  19.908  0.00  0.00    +0.000 C 
BRANCH  19  20
ATOM     20  C   UNL     1       1.317   2.911  18.805  0.00  0.00    +0.000 C 
BRANCH  20  21
ATOM     21  C   UNL     1       2.337   1.867  19.231  0.00  0.00    +0.000 C 
BRANCH  21  22
ATOM     22  C   UNL     1       3.324   1.668  18.080  0.00  0.00    +0.000 C 
BRANCH  22  25
ATOM     23  C   UNL     1       4.481   3.707  17.331  0.00  0.00    +0.000 C 
ATOM     24  O   UNL     1       3.634   3.947  16.480  0.00  0.00    +0.000 OA
ATOM     25  N   UNL     1       4.419   2.604  18.150  0.00  0.00    +0.000 N 
ATOM     26  H   UNL     1       5.017   2.545  18.957  0.00  0.00    +0.000 HD
BRANCH  23  33
ATOM     27  C   UNL     1       5.851   5.516  15.131  0.00  0.00    +0.000 C 
ATOM     28  C   UNL     1       6.224   5.484  16.590  0.00  0.00    +0.000 A 
ATOM     29  C   UNL     1       7.247   6.365  17.001  0.00  0.00    +0.000 A 
ATOM     30  C   UNL     1       7.646   6.447  18.336  0.00  0.00    +0.000 A 
ATOM     31  C   UNL     1       7.033   5.643  19.290  0.00  0.00    +0.000 A 
ATOM     32  C   UNL     1       6.026   4.764  18.909  0.00  0.00    +0.000 A 
ATOM     33  C   UNL     1       5.607   4.672  17.563  0.00  0.00    +0.000 A 
ENDBRANCH  23  33
ENDBRANCH  22  25
ENDBRANCH  21  22
ENDBRANCH  20  21
ENDBRANCH  19  20
ENDBRANCH   1  19
TORSDOF 13
ENDMDL
MODEL 4
REMARK VINA RESULT:      -6.9      2.294      3.150
REMARK  Name = 
REMARK  15 active torsions:
REMARK  status: ('A' for Active; 'I' for Inactive)
REMARK    1  A    between atoms: C_1  and  C_2
REMARK    2  A    between atoms: C_7  and  C_8
REMARK    3  A    between atoms: N_10  and  C_11
REMARK    4  A    between atoms: C_11  and  C_12
REMARK    5  A    between atoms: C_12  and  C_13
REMARK    6  A    between atoms: C_13  and  C_14
REMARK    7  A    between atoms: C_14  and  C_15
REMARK    8  A    between atoms: C_15  and  C_16
REMARK    9  A    between atoms: C_15  and  N_17
REMARK   10  A    between atoms: N_17  and  C_18
REMARK   11  A    between atoms: C_18  and  C_19
REMARK   12  A    between atoms: C_19  and  O_20
REMARK   13  A    between atoms: C_19  and  C_21
REMARK   14  A    between atoms: C_24  and  O_25
REMARK   15  A    between atoms: C_26  and  O_27
REMARK                            x       y       z     vdW  Elec       q    Type
REMARK                         _______ _______ _______ _____ _____    ______ ____
ROOT
ATOM      1  C   UNL     1       2.536   5.908  19.906  0.00  0.00    +0.000 C 
ATOM      2  C   UNL     1       1.449   5.264  20.786  0.00  0.00    +0.000 C 
ENDROOT
BRANCH   1   3
ATOM      3  N   UNL     1       2.638   5.125  18.663  0.00  0.00    +0.000 NA
ATOM      4  H   UNL     1       2.806   5.748  17.877  0.00  0.00    +0.000 HD
BRANCH   3   5
ATOM      5  C   UNL     1       3.659   4.057  18.704  0.00  0.00    +0.000 C 
BRANCH   5   6
ATOM      6  C   UNL     1       3.982   3.419  17.320  0.00  0.00    +0.000 C 
BRANCH   6   7
ATOM      7  C   UNL     1       5.033   4.070  16.440  0.00  0.00    +0.000 A 
ATOM      8  C   UNL     1       5.284   3.528  15.160  0.00  0.00    +0.000 A 
ATOM      9  C   UNL     1       6.298   4.034  14.338  0.00  0.00    +0.000 A 
ATOM     10  C   UNL     1       7.081   5.081  14.804  0.00  0.00    +0.000 A 
ATOM     11  C   UNL     1       6.822   5.646  16.047  0.00  0.00    +0.000 A 
ATOM     12  C   UNL     1       5.793   5.174  16.851  0.00  0.00    +0.000 A 
BRANCH  10  13
ATOM     13  O   UNL     1       8.127   5.583  14.081  0.00  0.00    +0.000 OA
ATOM     14  H   UNL     1       8.054   6.553  14.079  0.00  0.00    +0.000 HD
ENDBRANCH  10  13
BRANCH  11  15
ATOM     15  O   UNL     1       7.610   6.662  16.513  0.00  0.00    +0.000 OA
ATOM     16  H   UNL     1       7.864   6.378  17.413  0.00  0.00    +0.000 HD
ENDBRANCH  11  15
ENDBRANCH   6   7
BRANCH   6  17
ATOM     17  O   UNL     1       4.368   2.054  17.552  0.00  0.00    +0.000 OA
ATOM     18  H   UNL     1       4.718   1.738  16.701  0.00  0.00    +0.000 HD
ENDBRANCH   6  17
ENDBRANCH   5   6
ENDBRANCH   3   5
ENDBRANCH   1   3
BRANCH   1  19
ATOM     19  C   UNL     1       2.220   7.409  19.682  0.00  0.00    +0.000 C 
BRANCH  19  20
ATOM     20  C   UNL     1       2.373   7.827  18.218  0.00  0.00    +0.000 C 
BRANCH  20  21
ATOM     21  C   UNL     1       1.675   9.129  17.859  0.00  0.00    +0.000 C 
BRANCH  21  22
ATOM     22  C   UNL     1       1.125   9.746  19.145  0.00  0.00    +0.000 C 
BRANCH  22  25
ATOM     23  C   UNL     1      -0.738  11.289  18.693  0.00  0.00    +0.000 C 
ATOM     24  O   UNL     1       0.015  12.233  18.488  0.00  0.00    +0.000 OA
ATOM     25  N   UNL     1      -0.282  10.038  19.037  0.00  0.00    +0.000 N 
ATOM     26  H   UNL     1      -0.910   9.252  19.006  0.00  0.00    +0.000 HD
BRANCH  23  33
ATOM     27  C   UNL     1      -2.438  10.116  16.301  0.00  0.00    +0.000 C 
ATOM     28  C   UNL     1      -2.985  10.935  17.441  0.00  0.00    +0.000 A 
ATOM     29  C   UNL     1      -4.378  11.158  17.447  0.00  0.00    +0.000 A 
ATOM     30  C   UNL     1      -4.998  11.869  18.477  0.00  0.00    +0.000 A 
ATOM     31  C   UNL     1      -4.234  12.379  19.520  0.00  0.00    +0.000 A 
ATOM     32  C   UNL     1      -2.859  12.175  19.534  0.00  0.00    +0.000 A 
ATOM     33  C   UNL     1      -2.218  11.454  18.503  0.00  0.00    +0.000 A 
ENDBRANCH  23  33
ENDBRANCH  22  25
ENDBRANCH  21  22
ENDBRANCH  20  21
ENDBRANCH  19  20
ENDBRANCH   1  19
TORSDOF 13
ENDMDL
MODEL 5
REMARK VINA RESULT:      -6.8      1.295      2.322
REMARK  Name = 
REMARK  15 active torsions:
REMARK  status: ('A' for Active; 'I' for Inactive)
REMARK    1  A    between atoms: C_1  and  C_2
REMARK    2  A    between atoms: C_7  and  C_8
REMARK    3  A    between atoms: N_10  and  C_11
REMARK    4  A    between atoms: C_11  and  C_12
REMARK    5  A    between atoms: C_12  and  C_13
REMARK    6  A    between atoms: C_13  and  C_14
REMARK    7  A    between atoms: C_14  and  C_15
REMARK    8  A    between atoms: C_15  and  C_16
REMARK    9  A    between atoms: C_15  and  N_17
REMARK   10  A    between atoms: N_17  and  C_18
REMARK   11  A    between atoms: C_18  and  C_19
REMARK   12  A    between atoms: C_19  and  O_20
REMARK   13  A    between atoms: C_19  and  C_21
REMARK   14  A    between atoms: C_24  and  O_25
REMARK   15  A    between atoms: C_26  and  O_27
REMARK                            x       y       z     vdW  Elec       q    Type
REMARK                         _______ _______ _______ _____ _____    ______ ____
ROOT
ATOM      1  C   UNL     1       1.208   2.359  19.768  0.00  0.00    +0.000 C 
ATOM      2  C   UNL     1       0.506   3.176  18.668  0.00  0.00    +0.000 C 
ENDROOT
BRANCH   1   3
ATOM      3  N   UNL     1       2.381   1.701  19.168  0.00  0.00    +0.000 NA
ATOM      4  H   UNL     1       2.145   0.746  18.912  0.00  0.00    +0.000 HD
BRANCH   3   5
ATOM      5  C   UNL     1       2.951   2.422  18.011  0.00  0.00    +0.000 C 
BRANCH   5   6
ATOM      6  C   UNL     1       4.497   2.605  18.064  0.00  0.00    +0.000 C 
BRANCH   6   7
ATOM      7  C   UNL     1       5.084   3.977  17.784  0.00  0.00    +0.000 A 
ATOM      8  C   UNL     1       4.623   4.702  16.663  0.00  0.00    +0.000 A 
ATOM      9  C   UNL     1       5.186   5.934  16.309  0.00  0.00    +0.000 A 
ATOM     10  C   UNL     1       6.229   6.441  17.070  0.00  0.00    +0.000 A 
ATOM     11  C   UNL     1       6.668   5.754  18.196  0.00  0.00    +0.000 A 
ATOM     12  C   UNL     1       6.089   4.551  18.575  0.00  0.00    +0.000 A 
BRANCH  10  13
ATOM     13  O   UNL     1       6.865   7.607  16.747  0.00  0.00    +0.000 OA
ATOM     14  H   UNL     1       7.740   7.601  17.173  0.00  0.00    +0.000 HD
ENDBRANCH  10  13
BRANCH  11  15
ATOM     15  O   UNL     1       7.711   6.244  18.931  0.00  0.00    +0.000 OA
ATOM     16  H   UNL     1       7.544   7.206  18.977  0.00  0.00    +0.000 HD
ENDBRANCH  11  15
ENDBRANCH   6   7
BRANCH   6  17
ATOM     17  O   UNL     1       4.940   2.180  19.363  0.00  0.00    +0.000 OA
ATOM     18  H   UNL     1       4.762   1.225  19.396  0.00  0.00    +0.000 HD
ENDBRANCH   6  17
ENDBRANCH   5   6
ENDBRANCH   3   5
ENDBRANCH   1   3
BRANCH   1  19
ATOM     19  C   UNL     1       1.545   3.271  20.975  0.00  0.00    +0.000 C 
BRANCH  19  20
ATOM     20  C   UNL     1       1.574   4.754  20.597  0.00  0.00    +0.000 C 
BRANCH  20  21
ATOM     21  C   UNL     1       2.967   5.316  20.359  0.00  0.00    +0.000 C 
BRANCH  21  22
ATOM     22  C   UNL     1       2.860   6.431  19.318  0.00  0.00    +0.000 C 
BRANCH  22  25
ATOM     23  C   UNL     1       1.785   8.625  19.020  0.00  0.00    +0.000 C 
ATOM     24  O   UNL     1       2.443   8.878  18.019  0.00  0.00    +0.000 OA
ATOM     25  N   UNL     1       1.934   7.457  19.730  0.00  0.00    +0.000 N 
ATOM     26  H   UNL     1       1.249   7.201  20.421  0.00  0.00    +0.000 HD
BRANCH  23  33
ATOM     27  C   UNL     1       1.200   9.454  22.013  0.00  0.00    +0.000 C 
ATOM     28  C   UNL     1       0.448   9.952  20.808  0.00  0.00    +0.000 A 
ATOM     29  C   UNL     1      -0.576  10.893  21.046  0.00  0.00    +0.000 A 
ATOM     30  C   UNL     1      -1.311  11.452  19.998  0.00  0.00    +0.000 A 
ATOM     31  C   UNL     1      -1.040  11.075  18.688  0.00  0.00    +0.000 A 
ATOM     32  C   UNL     1      -0.039  10.146  18.429  0.00  0.00    +0.000 A 
ATOM     33  C   UNL     1       0.717   9.576  19.476  0.00  0.00    +0.000 A 
ENDBRANCH  23  33
ENDBRANCH  22  25
ENDBRANCH  21  22
ENDBRANCH  20  21
ENDBRANCH  19  20
ENDBRANCH   1  19
TORSDOF 13
ENDMDL
MODEL 6
REMARK VINA RESULT:      -6.8      1.980      2.795
REMARK  Name = 
REMARK  15 active torsions:
REMARK  status: ('A' for Active; 'I' for Inactive)
REMARK    1  A    between atoms: C_1  and  C_2
REMARK    2  A    between atoms: C_7  and  C_8
REMARK    3  A    between atoms: N_10  and  C_11
REMARK    4  A    between atoms: C_11  and  C_12
REMARK    5  A    between atoms: C_12  and  C_13
REMARK    6  A    between atoms: C_13  and  C_14
REMARK    7  A    between atoms: C_14  and  C_15
REMARK    8  A    between atoms: C_15  and  C_16
REMARK    9  A    between atoms: C_15  and  N_17
REMARK   10  A    between atoms: N_17  and  C_18
REMARK   11  A    between atoms: C_18  and  C_19
REMARK   12  A    between atoms: C_19  and  O_20
REMARK   13  A    between atoms: C_19  and  C_21
REMARK   14  A    between atoms: C_24  and  O_25
REMARK   15  A    between atoms: C_26  and  O_27
REMARK                            x       y       z     vdW  Elec       q    Type
REMARK                         _______ _______ _______ _____ _____    ______ ____
ROOT
ATOM      1  C   UNL     1       2.662   4.516  20.052  0.00  0.00    +0.000 C 
ATOM      2  C   UNL     1       1.715   3.884  21.088  0.00  0.00    +0.000 C 
ENDROOT
BRANCH   1   3
ATOM      3  N   UNL     1       2.471   3.812  18.772  0.00  0.00    +0.000 NA
ATOM      4  H   UNL     1       1.499   3.533  18.674  0.00  0.00    +0.000 HD
BRANCH   3   5
ATOM      5  C   UNL     1       2.911   4.582  17.589  0.00  0.00    +0.000 C 
BRANCH   5   6
ATOM      6  C   UNL     1       4.382   4.310  17.153  0.00  0.00    +0.000 C 
BRANCH   6   7
ATOM      7  C   UNL     1       5.484   5.205  17.692  0.00  0.00    +0.000 A 
ATOM      8  C   UNL     1       5.879   6.332  16.939  0.00  0.00    +0.000 A 
ATOM      9  C   UNL     1       6.945   7.144  17.344  0.00  0.00    +0.000 A 
ATOM     10  C   UNL     1       7.634   6.820  18.504  0.00  0.00    +0.000 A 
ATOM     11  C   UNL     1       7.232   5.733  19.273  0.00  0.00    +0.000 A 
ATOM     12  C   UNL     1       6.152   4.946  18.897  0.00  0.00    +0.000 A 
BRANCH  10  13
ATOM     13  O   UNL     1       8.722   7.531  18.927  0.00  0.00    +0.000 OA
ATOM     14  H   UNL     1       8.636   8.440  18.592  0.00  0.00    +0.000 HD
ENDBRANCH  10  13
BRANCH  11  15
ATOM     15  O   UNL     1       7.927   5.402  20.403  0.00  0.00    +0.000 OA
ATOM     16  H   UNL     1       7.688   4.470  20.571  0.00  0.00    +0.000 HD
ENDBRANCH  11  15
ENDBRANCH   6   7
BRANCH   6  17
ATOM     17  O   UNL     1       4.693   2.950  17.500  0.00  0.00    +0.000 OA
ATOM     18  H   UNL     1       5.432   2.700  16.920  0.00  0.00    +0.000 HD
ENDBRANCH   6  17
ENDBRANCH   5   6
ENDBRANCH   3   5
ENDBRANCH   1   3
BRANCH   1  19
ATOM     19  C   UNL     1       2.421   6.045  19.973  0.00  0.00    +0.000 C 
BRANCH  19  20
ATOM     20  C   UNL     1       1.172   6.480  20.742  0.00  0.00    +0.000 C 
BRANCH  20  21
ATOM     21  C   UNL     1       1.278   7.853  21.389  0.00  0.00    +0.000 C 
BRANCH  21  22
ATOM     22  C   UNL     1       1.470   8.888  20.280  0.00  0.00    +0.000 C 
BRANCH  22  25
ATOM     23  C   UNL     1      -0.023   9.903  18.607  0.00  0.00    +0.000 C 
ATOM     24  O   UNL     1       0.807   9.796  17.713  0.00  0.00    +0.000 OA
ATOM     25  N   UNL     1       0.221   9.499  19.898  0.00  0.00    +0.000 N 
ATOM     26  H   UNL     1      -0.541   9.423  20.551  0.00  0.00    +0.000 HD
BRANCH  23  33
ATOM     27  C   UNL     1      -1.538  12.177  20.196  0.00  0.00    +0.000 C 
ATOM     28  C   UNL     1      -2.080  11.440  18.999  0.00  0.00    +0.000 A 
ATOM     29  C   UNL     1      -3.355  11.831  18.539  0.00  0.00    +0.000 A 
ATOM     30  C   UNL     1      -3.936  11.244  17.413  0.00  0.00    +0.000 A 
ATOM     31  C   UNL     1      -3.255  10.245  16.728  0.00  0.00    +0.000 A 
ATOM     32  C   UNL     1      -2.000   9.838  17.165  0.00  0.00    +0.000 A 
ATOM     33  C   UNL     1      -1.395  10.426  18.298  0.00  0.00    +0.000 A 
ENDBRANCH  23  33
ENDBRANCH  22  25
ENDBRANCH  21  22
ENDBRANCH  20  21
ENDBRANCH  19  20
ENDBRANCH   1  19
TORSDOF 13
ENDMDL
MODEL 7
REMARK VINA RESULT:      -6.8      2.507      3.391
REMARK  Name = 
REMARK  15 active torsions:
REMARK  status: ('A' for Active; 'I' for Inactive)
REMARK    1  A    between atoms: C_1  and  C_2
REMARK    2  A    between atoms: C_7  and  C_8
REMARK    3  A    between atoms: N_10  and  C_11
REMARK    4  A    between atoms: C_11  and  C_12
REMARK    5  A    between atoms: C_12  and  C_13
REMARK    6  A    between atoms: C_13  and  C_14
REMARK    7  A    between atoms: C_14  and  C_15
REMARK    8  A    between atoms: C_15  and  C_16
REMARK    9  A    between atoms: C_15  and  N_17
REMARK   10  A    between atoms: N_17  and  C_18
REMARK   11  A    between atoms: C_18  and  C_19
REMARK   12  A    between atoms: C_19  and  O_20
REMARK   13  A    between atoms: C_19  and  C_21
REMARK   14  A    between atoms: C_24  and  O_25
REMARK   15  A    between atoms: C_26  and  O_27
REMARK                            x       y       z     vdW  Elec       q    Type
REMARK                         _______ _______ _______ _____ _____    ______ ____
ROOT
ATOM      1  C   UNL     1       2.398   4.415  20.770  0.00  0.00    +0.000 C 
ATOM      2  C   UNL     1       1.068   3.640  20.755  0.00  0.00    +0.000 C 
ENDROOT
BRANCH   1   3
ATOM      3  N   UNL     1       3.457   3.511  20.289  0.00  0.00    +0.000 NA
ATOM      4  H   UNL     1       3.040   2.679  19.882  0.00  0.00    +0.000 HD
BRANCH   3   5
ATOM      5  C   UNL     1       4.398   4.137  19.337  0.00  0.00    +0.000 C 
BRANCH   5   6
ATOM      6  C   UNL     1       4.206   3.696  17.855  0.00  0.00    +0.000 C 
BRANCH   6   7
ATOM      7  C   UNL     1       5.243   4.109  16.826  0.00  0.00    +0.000 A 
ATOM      8  C   UNL     1       6.061   5.229  17.092  0.00  0.00    +0.000 A 
ATOM      9  C   UNL     1       6.975   5.707  16.145  0.00  0.00    +0.000 A 
ATOM     10  C   UNL     1       7.064   5.070  14.915  0.00  0.00    +0.000 A 
ATOM     11  C   UNL     1       6.289   3.945  14.655  0.00  0.00    +0.000 A 
ATOM     12  C   UNL     1       5.408   3.444  15.603  0.00  0.00    +0.000 A 
BRANCH  10  13
ATOM     13  O   UNL     1       7.889   5.518  13.922  0.00  0.00    +0.000 OA
ATOM     14  H   UNL     1       7.511   5.245  13.069  0.00  0.00    +0.000 HD
ENDBRANCH  10  13
BRANCH  11  15
ATOM     15  O   UNL     1       6.362   3.334  13.434  0.00  0.00    +0.000 OA
ATOM     16  H   UNL     1       7.283   3.011  13.379  0.00  0.00    +0.000 HD
ENDBRANCH  11  15
ENDBRANCH   6   7
BRANCH   6  17
ATOM     17  O   UNL     1       4.100   2.263  17.840  0.00  0.00    +0.000 OA
ATOM     18  H   UNL     1       4.613   1.975  17.065  0.00  0.00    +0.000 HD
ENDBRANCH   6  17
ENDBRANCH   5   6
ENDBRANCH   3   5
ENDBRANCH   1   3
BRANCH   1  19
ATOM     19  C   UNL     1       2.262   5.721  19.947  0.00  0.00    +0.000 C 
BRANCH  19  20
ATOM     20  C   UNL     1       1.554   6.832  20.725  0.00  0.00    +0.000 C 
BRANCH  20  21
ATOM     21  C   UNL     1       1.760   8.228  20.159  0.00  0.00    +0.000 C 
BRANCH  21  22
ATOM     22  C   UNL     1       0.809   9.181  20.883  0.00  0.00    +0.000 C 
BRANCH  22  25
ATOM     23  C   UNL     1      -0.491  10.609  19.357  0.00  0.00    +0.000 C 
ATOM     24  O   UNL     1       0.371  11.478  19.339  0.00  0.00    +0.000 OA
ATOM     25  N   UNL     1      -0.369   9.458  20.098  0.00  0.00    +0.000 N 
ATOM     26  H   UNL     1      -0.999   8.689  19.936  0.00  0.00    +0.000 HD
BRANCH  23  33
ATOM     27  C   UNL     1      -2.938  12.537  19.893  0.00  0.00    +0.000 C 
ATOM     28  C   UNL     1      -2.806  11.600  18.721  0.00  0.00    +0.000 A 
ATOM     29  C   UNL     1      -3.852  11.621  17.774  0.00  0.00    +0.000 A 
ATOM     30  C   UNL     1      -3.814  10.824  16.628  0.00  0.00    +0.000 A 
ATOM     31  C   UNL     1      -2.730   9.982  16.409  0.00  0.00    +0.000 A 
ATOM     32  C   UNL     1      -1.690   9.940  17.330  0.00  0.00    +0.000 A 
ATOM     33  C   UNL     1      -1.710  10.744  18.492  0.00  0.00    +0.000 A 
ENDBRANCH  23  33
ENDBRANCH  22  25
ENDBRANCH  21  22
ENDBRANCH  20  21
ENDBRANCH  19  20
ENDBRANCH   1  19
TORSDOF 13
ENDMDL
MODEL 8
REMARK VINA RESULT:      -6.8      6.639      9.596
REMARK  Name = 
REMARK  15 active torsions:
REMARK  status: ('A' for Active; 'I' for Inactive)
REMARK    1  A    between atoms: C_1  and  C_2
REMARK    2  A    between atoms: C_7  and  C_8
REMARK    3  A    between atoms: N_10  and  C_11
REMARK    4  A    between atoms: C_11  and  C_12
REMARK    5  A    between atoms: C_12  and  C_13
REMARK    6  A    between atoms: C_13  and  C_14
REMARK    7  A    between atoms: C_14  and  C_15
REMARK    8  A    between atoms: C_15  and  C_16
REMARK    9  A    between atoms: C_15  and  N_17
REMARK   10  A    between atoms: N_17  and  C_18
REMARK   11  A    between atoms: C_18  and  C_19
REMARK   12  A    between atoms: C_19  and  O_20
REMARK   13  A    between atoms: C_19  and  C_21
REMARK   14  A    between atoms: C_24  and  O_25
REMARK   15  A    between atoms: C_26  and  O_27
REMARK                            x       y       z     vdW  Elec       q    Type
REMARK                         _______ _______ _______ _____ _____    ______ ____
ROOT
ATOM      1  C   UNL     1       9.536  11.292  17.848  0.00  0.00    +0.000 C 
ATOM      2  C   UNL     1       8.561  12.469  17.665  0.00  0.00    +0.000 C 
ENDROOT
BRANCH   1   3
ATOM      3  N   UNL     1      10.904  11.835  17.889  0.00  0.00    +0.000 NA
ATOM      4  H   UNL     1      10.919  12.761  17.470  0.00  0.00    +0.000 HD
BRANCH   3   5
ATOM      5  C   UNL     1      11.500  11.869  19.241  0.00  0.00    +0.000 C 
BRANCH   5   6
ATOM      6  C   UNL     1      11.503  13.276  19.910  0.00  0.00    +0.000 C 
BRANCH   6   7
ATOM      7  C   UNL     1      11.308  14.503  19.038  0.00  0.00    +0.000 A 
ATOM      8  C   UNL     1      12.333  14.873  18.140  0.00  0.00    +0.000 A 
ATOM      9  C   UNL     1      12.246  16.041  17.372  0.00  0.00    +0.000 A 
ATOM     10  C   UNL     1      11.132  16.856  17.513  0.00  0.00    +0.000 A 
ATOM     11  C   UNL     1      10.099  16.485  18.368  0.00  0.00    +0.000 A 
ATOM     12  C   UNL     1      10.163  15.309  19.103  0.00  0.00    +0.000 A 
BRANCH  10  13
ATOM     13  O   UNL     1      11.007  18.040  16.842  0.00  0.00    +0.000 OA
ATOM     14  H   UNL     1      11.865  18.247  16.433  0.00  0.00    +0.000 HD
ENDBRANCH  10  13
BRANCH  11  15
ATOM     15  O   UNL     1       9.014  17.301  18.522  0.00  0.00    +0.000 OA
ATOM     16  H   UNL     1       9.397  18.186  18.684  0.00  0.00    +0.000 HD
ENDBRANCH  11  15
ENDBRANCH   6   7
BRANCH   6  17
ATOM     17  O   UNL     1      10.485  13.276  20.925  0.00  0.00    +0.000 OA
ATOM     18  H   UNL     1      10.813  13.876  21.617  0.00  0.00    +0.000 HD
ENDBRANCH   6  17
ENDBRANCH   5   6
ENDBRANCH   3   5
ENDBRANCH   1   3
BRANCH   1  19
ATOM     19  C   UNL     1       9.147  10.467  19.101  0.00  0.00    +0.000 C 
BRANCH  19  20
ATOM     20  C   UNL     1       8.819   9.011  18.765  0.00  0.00    +0.000 C 
BRANCH  20  21
ATOM     21  C   UNL     1       7.676   8.835  17.778  0.00  0.00    +0.000 C 
BRANCH  21  22
ATOM     22  C   UNL     1       7.659   7.374  17.324  0.00  0.00    +0.000 C 
BRANCH  22  25
ATOM     23  C   UNL     1       5.453   6.458  16.734  0.00  0.00    +0.000 C 
ATOM     24  O   UNL     1       5.566   6.782  15.559  0.00  0.00    +0.000 OA
ATOM     25  N   UNL     1       6.421   6.722  17.673  0.00  0.00    +0.000 N 
ATOM     26  H   UNL     1       6.381   6.274  18.573  0.00  0.00    +0.000 HD
BRANCH  23  33
ATOM     27  C   UNL     1       2.846   7.670  18.049  0.00  0.00    +0.000 C 
ATOM     28  C   UNL     1       3.085   6.209  17.772  0.00  0.00    +0.000 A 
ATOM     29  C   UNL     1       2.036   5.324  18.099  0.00  0.00    +0.000 A 
ATOM     30  C   UNL     1       2.133   3.954  17.848  0.00  0.00    +0.000 A 
ATOM     31  C   UNL     1       3.287   3.439  17.270  0.00  0.00    +0.000 A 
ATOM     32  C   UNL     1       4.336   4.290  16.943  0.00  0.00    +0.000 A 
ATOM     33  C   UNL     1       4.252   5.679  17.186  0.00  0.00    +0.000 A 
ENDBRANCH  23  33
ENDBRANCH  22  25
ENDBRANCH  21  22
ENDBRANCH  20  21
ENDBRANCH  19  20
ENDBRANCH   1  19
TORSDOF 13
ENDMDL
MODEL 9
REMARK VINA RESULT:      -6.8      2.162      8.569
REMARK  Name = 
REMARK  15 active torsions:
REMARK  status: ('A' for Active; 'I' for Inactive)
REMARK    1  A    between atoms: C_1  and  C_2
REMARK    2  A    between atoms: C_7  and  C_8
REMARK    3  A    between atoms: N_10  and  C_11
REMARK    4  A    between atoms: C_11  and  C_12
REMARK    5  A    between atoms: C_12  and  C_13
REMARK    6  A    between atoms: C_13  and  C_14
REMARK    7  A    between atoms: C_14  and  C_15
REMARK    8  A    between atoms: C_15  and  C_16
REMARK    9  A    between atoms: C_15  and  N_17
REMARK   10  A    between atoms: N_17  and  C_18
REMARK   11  A    between atoms: C_18  and  C_19
REMARK   12  A    between atoms: C_19  and  O_20
REMARK   13  A    between atoms: C_19  and  C_21
REMARK   14  A    between atoms: C_24  and  O_25
REMARK   15  A    between atoms: C_26  and  O_27
REMARK                            x       y       z     vdW  Elec       q    Type
REMARK                         _______ _______ _______ _____ _____    ______ ____
ROOT
ATOM      1  C   UNL     1       2.407   6.820  19.759  0.00  0.00    +0.000 C 
ATOM      2  C   UNL     1       2.415   6.424  18.271  0.00  0.00    +0.000 C 
ENDROOT
BRANCH   1   3
ATOM      3  N   UNL     1       2.045   8.245  19.849  0.00  0.00    +0.000 NA
ATOM      4  H   UNL     1       1.646   8.555  18.968  0.00  0.00    +0.000 HD
BRANCH   3   5
ATOM      5  C   UNL     1       1.137   8.567  20.970  0.00  0.00    +0.000 C 
BRANCH   5   6
ATOM      6  C   UNL     1       0.690  10.058  21.030  0.00  0.00    +0.000 C 
BRANCH   6   7
ATOM      7  C   UNL     1      -0.181  10.608  19.915  0.00  0.00    +0.000 A 
ATOM      8  C   UNL     1      -1.025   9.724  19.207  0.00  0.00    +0.000 A 
ATOM      9  C   UNL     1      -1.786  10.158  18.115  0.00  0.00    +0.000 A 
ATOM     10  C   UNL     1      -1.694  11.484  17.715  0.00  0.00    +0.000 A 
ATOM     11  C   UNL     1      -0.893  12.372  18.425  0.00  0.00    +0.000 A 
ATOM     12  C   UNL     1      -0.165  11.957  19.532  0.00  0.00    +0.000 A 
BRANCH  10  13
ATOM     13  O   UNL     1      -2.361  11.962  16.622  0.00  0.00    +0.000 OA
ATOM     14  H   UNL     1      -1.755  11.932  15.862  0.00  0.00    +0.000 HD
ENDBRANCH  10  13
BRANCH  11  15
ATOM     15  O   UNL     1      -0.786  13.672  18.015  0.00  0.00    +0.000 OA
ATOM     16  H   UNL     1      -0.401  13.612  17.119  0.00  0.00    +0.000 HD
ENDBRANCH  11  15
ENDBRANCH   6   7
BRANCH   6  17
ATOM     17  O   UNL     1       0.004  10.256  22.278  0.00  0.00    +0.000 OA
ATOM     18  H   UNL     1       0.289  11.131  22.591  0.00  0.00    +0.000 HD
ENDBRANCH   6  17
ENDBRANCH   5   6
ENDBRANCH   3   5
ENDBRANCH   1   3
BRANCH   1  19
ATOM     19  C   UNL     1       1.467   5.879  20.555  0.00  0.00    +0.000 C 
BRANCH  19  20
ATOM     20  C   UNL     1       2.145   4.561  20.935  0.00  0.00    +0.000 C 
BRANCH  20  21
ATOM     21  C   UNL     1       1.364   3.316  20.544  0.00  0.00    +0.000 C 
BRANCH  21  22
ATOM     22  C   UNL     1       2.276   2.429  19.695  0.00  0.00    +0.000 C 
BRANCH  22  25
ATOM     23  C   UNL     1       4.428   3.314  18.892  0.00  0.00    +0.000 C 
ATOM     24  O   UNL     1       5.053   2.788  19.804  0.00  0.00    +0.000 OA
ATOM     25  N   UNL     1       3.063   3.205  18.769  0.00  0.00    +0.000 N 
ATOM     26  H   UNL     1       2.614   3.482  17.912  0.00  0.00    +0.000 HD
BRANCH  23  33
ATOM     27  C   UNL     1       6.672   5.495  19.335  0.00  0.00    +0.000 C 
ATOM     28  C   UNL     1       6.161   5.029  17.997  0.00  0.00    +0.000 A 
ATOM     29  C   UNL     1       6.767   5.596  16.856  0.00  0.00    +0.000 A 
ATOM     30  C   UNL     1       6.399   5.208  15.566  0.00  0.00    +0.000 A 
ATOM     31  C   UNL     1       5.410   4.248  15.390  0.00  0.00    +0.000 A 
ATOM     32  C   UNL     1       4.794   3.678  16.499  0.00  0.00    +0.000 A 
ATOM     33  C   UNL     1       5.158   4.056  17.810  0.00  0.00    +0.000 A 
ENDBRANCH  23  33
ENDBRANCH  22  25
ENDBRANCH  21  22
ENDBRANCH  20  21
ENDBRANCH  19  20
ENDBRANCH   1  19
TORSDOF 13
ENDMDL
