MODEL 1
REMARK VINA RESULT:      -7.7      0.000      0.000
REMARK  Name = 
REMARK  2 active torsions:
REMARK  status: ('A' for Active; 'I' for Inactive)
REMARK    1  A    between atoms: N_2  and  C_4
REMARK    2  A    between atoms: C_9  and  N_10
REMARK                            x       y       z     vdW  Elec       q    Type
REMARK                         _______ _______ _______ _____ _____    ______ ____
ROOT
ATOM      1  C   UNL     1       2.586   4.022  20.807  0.00  0.00    +0.000 A 
ATOM      2  C   UNL     1       1.636   5.038  20.682  0.00  0.00    +0.000 A 
ATOM      3  C   UNL     1       1.905   6.119  19.845  0.00  0.00    +0.000 A 
ATOM      4  C   UNL     1       3.104   6.191  19.117  0.00  0.00    +0.000 A 
ATOM      5 CL   UNL     1       3.194   7.499  17.986  0.00  0.00    +0.000 Cl
ATOM      6  C   UNL     1       4.076   5.176  19.251  0.00  0.00    +0.000 A 
ATOM      7  C   UNL     1       3.807   4.097  20.118  0.00  0.00    +0.000 A 
ENDROOT
BRANCH   6   8
ATOM      8  N   UNL     1       5.337   5.209  18.567  0.00  0.00    +0.000 N 
ATOM      9  C   UNL     1       6.552   5.479  19.166  0.00  0.00    +0.000 A 
ATOM     10  C   UNL     1       7.556   5.404  18.231  0.00  0.00    +0.000 A 
ATOM     11  C   UNL     1       6.965   5.025  17.006  0.00  0.00    +0.000 A 
ATOM     12  C   UNL     1       7.498   4.778  15.723  0.00  0.00    +0.000 A 
ATOM     13  C   UNL     1       6.653   4.415  14.675  0.00  0.00    +0.000 A 
ATOM     14  C   UNL     1       5.284   4.322  14.884  0.00  0.00    +0.000 A 
ATOM     15  C   UNL     1       4.728   4.585  16.142  0.00  0.00    +0.000 A 
ATOM     16  C   UNL     1       5.582   4.903  17.217  0.00  0.00    +0.000 A 
ENDBRANCH   6   8
BRANCH   1  18
ATOM     17  O   UNL     1       3.239   2.109  21.948  0.00  0.00    +0.000 OA
ATOM     18  N   UNL     1       2.296   2.858  21.656  0.00  0.00    +0.000 N 
ATOM     19  O   UNL     1       1.128   2.701  22.038  0.00  0.00    +0.000 OA
ENDBRANCH   1  18
TORSDOF 2
ENDMDL
MODEL 2
REMARK VINA RESULT:      -7.4      3.299      5.999
REMARK  Name = 
REMARK  2 active torsions:
REMARK  status: ('A' for Active; 'I' for Inactive)
REMARK    1  A    between atoms: N_2  and  C_4
REMARK    2  A    between atoms: C_9  and  N_10
REMARK                            x       y       z     vdW  Elec       q    Type
REMARK                         _______ _______ _______ _____ _____    ______ ____
ROOT
ATOM      1  C   UNL     1       6.131   5.445  16.604  0.00  0.00    +0.000 A 
ATOM      2  C   UNL     1       5.870   6.816  16.608  0.00  0.00    +0.000 A 
ATOM      3  C   UNL     1       4.649   7.273  17.101  0.00  0.00    +0.000 A 
ATOM      4  C   UNL     1       3.690   6.378  17.606  0.00  0.00    +0.000 A 
ATOM      5 CL   UNL     1       2.316   7.124  18.349  0.00  0.00    +0.000 Cl
ATOM      6  C   UNL     1       3.941   4.989  17.589  0.00  0.00    +0.000 A 
ATOM      7  C   UNL     1       5.169   4.533  17.068  0.00  0.00    +0.000 A 
ENDROOT
BRANCH   6   8
ATOM      8  N   UNL     1       2.990   4.020  18.052  0.00  0.00    +0.000 N 
ATOM      9  C   UNL     1       2.360   3.088  17.252  0.00  0.00    +0.000 A 
ATOM     10  C   UNL     1       1.535   2.301  18.018  0.00  0.00    +0.000 A 
ATOM     11  C   UNL     1       1.681   2.716  19.360  0.00  0.00    +0.000 A 
ATOM     12  C   UNL     1       1.107   2.266  20.567  0.00  0.00    +0.000 A 
ATOM     13  C   UNL     1       1.444   2.884  21.771  0.00  0.00    +0.000 A 
ATOM     14  C   UNL     1       2.322   3.959  21.782  0.00  0.00    +0.000 A 
ATOM     15  C   UNL     1       2.886   4.439  20.593  0.00  0.00    +0.000 A 
ATOM     16  C   UNL     1       2.589   3.787  19.380  0.00  0.00    +0.000 A 
ENDBRANCH   6   8
BRANCH   1  18
ATOM     17  O   UNL     1       8.096   4.244  16.889  0.00  0.00    +0.000 OA
ATOM     18  N   UNL     1       7.431   4.955  16.124  0.00  0.00    +0.000 N 
ATOM     19  O   UNL     1       7.777   5.273  14.978  0.00  0.00    +0.000 OA
ENDBRANCH   1  18
TORSDOF 2
ENDMDL
MODEL 3
REMARK VINA RESULT:      -7.4      3.618      6.160
REMARK  Name = 
REMARK  2 active torsions:
REMARK  status: ('A' for Active; 'I' for Inactive)
REMARK    1  A    between atoms: N_2  and  C_4
REMARK    2  A    between atoms: C_9  and  N_10
REMARK                            x       y       z     vdW  Elec       q    Type
REMARK                         _______ _______ _______ _____ _____    ______ ____
ROOT
ATOM      1  C   UNL     1       5.611   5.511  16.831  0.00  0.00    +0.000 A 
ATOM      2  C   UNL     1       5.229   4.256  16.354  0.00  0.00    +0.000 A 
ATOM      3  C   UNL     1       4.003   3.724  16.750  0.00  0.00    +0.000 A 
ATOM      4  C   UNL     1       3.145   4.438  17.603  0.00  0.00    +0.000 A 
ATOM      5 CL   UNL     1       1.587   3.719  17.840  0.00  0.00    +0.000 Cl
ATOM      6  C   UNL     1       3.533   5.701  18.102  0.00  0.00    +0.000 A 
ATOM      7  C   UNL     1       4.784   6.221  17.716  0.00  0.00    +0.000 A 
ENDROOT
BRANCH   6   8
ATOM      8  N   UNL     1       2.722   6.463  19.008  0.00  0.00    +0.000 N 
ATOM      9  C   UNL     1       2.341   6.046  20.268  0.00  0.00    +0.000 A 
ATOM     10  C   UNL     1       1.593   7.025  20.874  0.00  0.00    +0.000 A 
ATOM     11  C   UNL     1       1.537   8.124  19.988  0.00  0.00    +0.000 A 
ATOM     12  C   UNL     1       0.936   9.397  20.080  0.00  0.00    +0.000 A 
ATOM     13  C   UNL     1       1.045  10.297  19.021  0.00  0.00    +0.000 A 
ATOM     14  C   UNL     1       1.720   9.934  17.864  0.00  0.00    +0.000 A 
ATOM     15  C   UNL     1       2.305   8.667  17.739  0.00  0.00    +0.000 A 
ATOM     16  C   UNL     1       2.242   7.772  18.825  0.00  0.00    +0.000 A 
ENDBRANCH   6   8
BRANCH   1  18
ATOM     17  O   UNL     1       7.293   7.103  16.988  0.00  0.00    +0.000 OA
ATOM     18  N   UNL     1       6.884   6.098  16.390  0.00  0.00    +0.000 N 
ATOM     19  O   UNL     1       7.477   5.546  15.452  0.00  0.00    +0.000 OA
ENDBRANCH   1  18
TORSDOF 2
ENDMDL
MODEL 4
REMARK VINA RESULT:      -7.2      2.551      2.893
REMARK  Name = 
REMARK  2 active torsions:
REMARK  status: ('A' for Active; 'I' for Inactive)
REMARK    1  A    between atoms: N_2  and  C_4
REMARK    2  A    between atoms: C_9  and  N_10
REMARK                            x       y       z     vdW  Elec       q    Type
REMARK                         _______ _______ _______ _____ _____    ______ ____
ROOT
ATOM      1  C   UNL     1       2.188   6.396  20.104  0.00  0.00    +0.000 A 
ATOM      2  C   UNL     1       1.596   5.226  20.583  0.00  0.00    +0.000 A 
ATOM      3  C   UNL     1       2.258   4.011  20.413  0.00  0.00    +0.000 A 
ATOM      4  C   UNL     1       3.514   3.952  19.785  0.00  0.00    +0.000 A 
ATOM      5 CL   UNL     1       4.278   2.399  19.827  0.00  0.00    +0.000 Cl
ATOM      6  C   UNL     1       4.111   5.129  19.284  0.00  0.00    +0.000 A 
ATOM      7  C   UNL     1       3.424   6.350  19.439  0.00  0.00    +0.000 A 
ENDROOT
BRANCH   6   8
ATOM      8  N   UNL     1       5.371   5.133  18.598  0.00  0.00    +0.000 N 
ATOM      9  C   UNL     1       6.595   5.355  19.198  0.00  0.00    +0.000 A 
ATOM     10  C   UNL     1       7.594   5.262  18.261  0.00  0.00    +0.000 A 
ATOM     11  C   UNL     1       6.990   4.921  17.031  0.00  0.00    +0.000 A 
ATOM     12  C   UNL     1       7.513   4.677  15.743  0.00  0.00    +0.000 A 
ATOM     13  C   UNL     1       6.655   4.357  14.692  0.00  0.00    +0.000 A 
ATOM     14  C   UNL     1       5.284   4.304  14.902  0.00  0.00    +0.000 A 
ATOM     15  C   UNL     1       4.739   4.566  16.165  0.00  0.00    +0.000 A 
ATOM     16  C   UNL     1       5.604   4.840  17.243  0.00  0.00    +0.000 A 
ENDBRANCH   6   8
BRANCH   1  18
ATOM     17  O   UNL     1       0.867   7.836  21.356  0.00  0.00    +0.000 OA
ATOM     18  N   UNL     1       1.517   7.687  20.312  0.00  0.00    +0.000 N 
ATOM     19  O   UNL     1       1.652   8.553  19.437  0.00  0.00    +0.000 OA
ENDBRANCH   1  18
TORSDOF 2
ENDMDL
MODEL 5
REMARK VINA RESULT:      -7.2      3.936      6.351
REMARK  Name = 
REMARK  2 active torsions:
REMARK  status: ('A' for Active; 'I' for Inactive)
REMARK    1  A    between atoms: N_2  and  C_4
REMARK    2  A    between atoms: C_9  and  N_10
REMARK                            x       y       z     vdW  Elec       q    Type
REMARK                         _______ _______ _______ _____ _____    ______ ____
ROOT
ATOM      1  C   UNL     1       6.011   4.298  14.320  0.00  0.00    +0.000 A 
ATOM      2  C   UNL     1       7.304   4.625  14.733  0.00  0.00    +0.000 A 
ATOM      3  C   UNL     1       7.504   5.091  16.031  0.00  0.00    +0.000 A 
ATOM      4  C   UNL     1       6.431   5.218  16.929  0.00  0.00    +0.000 A 
ATOM      5 CL   UNL     1       6.881   5.627  18.550  0.00  0.00    +0.000 Cl
ATOM      6  C   UNL     1       5.119   4.905  16.512  0.00  0.00    +0.000 A 
ATOM      7  C   UNL     1       4.921   4.457  15.191  0.00  0.00    +0.000 A 
ENDROOT
BRANCH   6   8
ATOM      8  N   UNL     1       3.975   5.050  17.366  0.00  0.00    +0.000 N 
ATOM      9  C   UNL     1       3.413   6.257  17.733  0.00  0.00    +0.000 A 
ATOM     10  C   UNL     1       2.319   6.035  18.533  0.00  0.00    +0.000 A 
ATOM     11  C   UNL     1       2.150   4.637  18.639  0.00  0.00    +0.000 A 
ATOM     12  C   UNL     1       1.197   3.837  19.304  0.00  0.00    +0.000 A 
ATOM     13  C   UNL     1       1.284   2.447  19.235  0.00  0.00    +0.000 A 
ATOM     14  C   UNL     1       2.322   1.848  18.536  0.00  0.00    +0.000 A 
ATOM     15  C   UNL     1       3.294   2.620  17.887  0.00  0.00    +0.000 A 
ATOM     16  C   UNL     1       3.183   4.025  17.911  0.00  0.00    +0.000 A 
ENDBRANCH   6   8
BRANCH   1  18
ATOM     17  O   UNL     1       4.624   3.630  12.583  0.00  0.00    +0.000 OA
ATOM     18  N   UNL     1       5.794   3.768  12.966  0.00  0.00    +0.000 N 
ATOM     19  O   UNL     1       6.794   3.503  12.285  0.00  0.00    +0.000 OA
ENDBRANCH   1  18
TORSDOF 2
ENDMDL
MODEL 6
REMARK VINA RESULT:      -7.2      3.796      6.401
REMARK  Name = 
REMARK  2 active torsions:
REMARK  status: ('A' for Active; 'I' for Inactive)
REMARK    1  A    between atoms: N_2  and  C_4
REMARK    2  A    between atoms: C_9  and  N_10
REMARK                            x       y       z     vdW  Elec       q    Type
REMARK                         _______ _______ _______ _____ _____    ______ ____
ROOT
ATOM      1  C   UNL     1       6.005   4.251  14.618  0.00  0.00    +0.000 A 
ATOM      2  C   UNL     1       7.088   5.001  15.081  0.00  0.00    +0.000 A 
ATOM      3  C   UNL     1       7.180   5.291  16.442  0.00  0.00    +0.000 A 
ATOM      4  C   UNL     1       6.212   4.826  17.349  0.00  0.00    +0.000 A 
ATOM      5 CL   UNL     1       6.579   5.113  19.017  0.00  0.00    +0.000 Cl
ATOM      6  C   UNL     1       5.106   4.081  16.884  0.00  0.00    +0.000 A 
ATOM      7  C   UNL     1       5.008   3.812  15.504  0.00  0.00    +0.000 A 
ENDROOT
BRANCH   6   8
ATOM      8  N   UNL     1       4.064   3.612  17.751  0.00  0.00    +0.000 N 
ATOM      9  C   UNL     1       3.710   2.287  17.914  0.00  0.00    +0.000 A 
ATOM     10  C   UNL     1       2.695   2.188  18.834  0.00  0.00    +0.000 A 
ATOM     11  C   UNL     1       2.427   3.490  19.309  0.00  0.00    +0.000 A 
ATOM     12  C   UNL     1       1.516   3.991  20.263  0.00  0.00    +0.000 A 
ATOM     13  C   UNL     1       1.470   5.359  20.531  0.00  0.00    +0.000 A 
ATOM     14  C   UNL     1       2.298   6.233  19.842  0.00  0.00    +0.000 A 
ATOM     15  C   UNL     1       3.194   5.763  18.873  0.00  0.00    +0.000 A 
ATOM     16  C   UNL     1       3.281   4.377  18.634  0.00  0.00    +0.000 A 
ENDBRANCH   6   8
BRANCH   1  18
ATOM     17  O   UNL     1       4.807   3.601  12.740  0.00  0.00    +0.000 OA
ATOM     18  N   UNL     1       5.919   3.906  13.192  0.00  0.00    +0.000 N 
ATOM     19  O   UNL     1       6.962   3.952  12.525  0.00  0.00    +0.000 OA
ENDBRANCH   1  18
TORSDOF 2
ENDMDL
MODEL 7
REMARK VINA RESULT:      -7.2      3.073      5.428
REMARK  Name = 
REMARK  2 active torsions:
REMARK  status: ('A' for Active; 'I' for Inactive)
REMARK    1  A    between atoms: N_2  and  C_4
REMARK    2  A    between atoms: C_9  and  N_10
REMARK                            x       y       z     vdW  Elec       q    Type
REMARK                         _______ _______ _______ _____ _____    ______ ____
ROOT
ATOM      1  C   UNL     1       6.717   5.551  18.119  0.00  0.00    +0.000 A 
ATOM      2  C   UNL     1       6.684   6.586  17.183  0.00  0.00    +0.000 A 
ATOM      3  C   UNL     1       5.477   7.239  16.936  0.00  0.00    +0.000 A 
ATOM      4  C   UNL     1       4.306   6.882  17.625  0.00  0.00    +0.000 A 
ATOM      5 CL   UNL     1       2.947   7.916  17.337  0.00  0.00    +0.000 Cl
ATOM      6  C   UNL     1       4.329   5.825  18.560  0.00  0.00    +0.000 A 
ATOM      7  C   UNL     1       5.548   5.154  18.787  0.00  0.00    +0.000 A 
ENDROOT
BRANCH   6   8
ATOM      8  N   UNL     1       3.161   5.385  19.268  0.00  0.00    +0.000 N 
ATOM      9  C   UNL     1       2.508   6.114  20.242  0.00  0.00    +0.000 A 
ATOM     10  C   UNL     1       1.417   5.412  20.692  0.00  0.00    +0.000 A 
ATOM     11  C   UNL     1       1.345   4.216  19.943  0.00  0.00    +0.000 A 
ATOM     12  C   UNL     1       0.438   3.136  19.953  0.00  0.00    +0.000 A 
ATOM     13  C   UNL     1       0.624   2.062  19.082  0.00  0.00    +0.000 A 
ATOM     14  C   UNL     1       1.716   2.041  18.226  0.00  0.00    +0.000 A 
ATOM     15  C   UNL     1       2.643   3.091  18.215  0.00  0.00    +0.000 A 
ATOM     16  C   UNL     1       2.433   4.202  19.055  0.00  0.00    +0.000 A 
ENDBRANCH   6   8
BRANCH   1  18
ATOM     17  O   UNL     1       8.510   5.094  19.520  0.00  0.00    +0.000 OA
ATOM     18  N   UNL     1       7.991   4.882  18.416  0.00  0.00    +0.000 N 
ATOM     19  O   UNL     1       8.465   4.136  17.547  0.00  0.00    +0.000 OA
ENDBRANCH   1  18
TORSDOF 2
ENDMDL
MODEL 8
REMARK VINA RESULT:      -7.0      3.363      5.948
REMARK  Name = 
REMARK  2 active torsions:
REMARK  status: ('A' for Active; 'I' for Inactive)
REMARK    1  A    between atoms: N_2  and  C_4
REMARK    2  A    between atoms: C_9  and  N_10
REMARK                            x       y       z     vdW  Elec       q    Type
REMARK                         _______ _______ _______ _____ _____    ______ ____
ROOT
ATOM      1  C   UNL     1       5.642   4.912  18.798  0.00  0.00    +0.000 A 
ATOM      2  C   UNL     1       5.030   3.683  18.541  0.00  0.00    +0.000 A 
ATOM      3  C   UNL     1       3.666   3.651  18.255  0.00  0.00    +0.000 A 
ATOM      4  C   UNL     1       2.908   4.833  18.204  0.00  0.00    +0.000 A 
ATOM      5 CL   UNL     1       1.280   4.633  17.650  0.00  0.00    +0.000 Cl
ATOM      6  C   UNL     1       3.517   6.077  18.479  0.00  0.00    +0.000 A 
ATOM      7  C   UNL     1       4.892   6.099  18.791  0.00  0.00    +0.000 A 
ENDROOT
BRANCH   6   8
ATOM      8  N   UNL     1       2.793   7.315  18.483  0.00  0.00    +0.000 N 
ATOM      9  C   UNL     1       2.748   8.207  17.429  0.00  0.00    +0.000 A 
ATOM     10  C   UNL     1       1.946   9.272  17.757  0.00  0.00    +0.000 A 
ATOM     11  C   UNL     1       1.422   9.026  19.046  0.00  0.00    +0.000 A 
ATOM     12  C   UNL     1       0.539   9.751  19.873  0.00  0.00    +0.000 A 
ATOM     13  C   UNL     1       0.195   9.254  21.129  0.00  0.00    +0.000 A 
ATOM     14  C   UNL     1       0.740   8.060  21.580  0.00  0.00    +0.000 A 
ATOM     15  C   UNL     1       1.639   7.335  20.787  0.00  0.00    +0.000 A 
ATOM     16  C   UNL     1       1.951   7.806  19.497  0.00  0.00    +0.000 A 
ENDBRANCH   6   8
BRANCH   1  18
ATOM     17  O   UNL     1       7.459   5.468  20.129  0.00  0.00    +0.000 OA
ATOM     18  N   UNL     1       7.086   4.961  19.062  0.00  0.00    +0.000 N 
ATOM     19  O   UNL     1       7.844   4.483  18.206  0.00  0.00    +0.000 OA
ENDBRANCH   1  18
TORSDOF 2
ENDMDL
MODEL 9
REMARK VINA RESULT:      -7.0      3.418      6.177
REMARK  Name = 
REMARK  2 active torsions:
REMARK  status: ('A' for Active; 'I' for Inactive)
REMARK    1  A    between atoms: N_2  and  C_4
REMARK    2  A    between atoms: C_9  and  N_10
REMARK                            x       y       z     vdW  Elec       q    Type
REMARK                         _______ _______ _______ _____ _____    ______ ____
ROOT
ATOM      1  C   UNL     1       6.060   4.456  15.383  0.00  0.00    +0.000 A 
ATOM      2  C   UNL     1       7.361   4.516  15.886  0.00  0.00    +0.000 A 
ATOM      3  C   UNL     1       7.556   4.878  17.218  0.00  0.00    +0.000 A 
ATOM      4  C   UNL     1       6.468   5.163  18.059  0.00  0.00    +0.000 A 
ATOM      5 CL   UNL     1       6.876   5.407  19.724  0.00  0.00    +0.000 Cl
ATOM      6  C   UNL     1       5.151   5.120  17.551  0.00  0.00    +0.000 A 
ATOM      7  C   UNL     1       4.963   4.777  16.198  0.00  0.00    +0.000 A 
ENDROOT
BRANCH   6   8
ATOM      8  N   UNL     1       3.999   5.439  18.345  0.00  0.00    +0.000 N 
ATOM      9  C   UNL     1       3.298   6.626  18.277  0.00  0.00    +0.000 A 
ATOM     10  C   UNL     1       2.240   6.591  19.151  0.00  0.00    +0.000 A 
ATOM     11  C   UNL     1       2.238   5.317  19.762  0.00  0.00    +0.000 A 
ATOM     12  C   UNL     1       1.388   4.714  20.713  0.00  0.00    +0.000 A 
ATOM     13  C   UNL     1       1.640   3.412  21.145  0.00  0.00    +0.000 A 
ATOM     14  C   UNL     1       2.741   2.718  20.663  0.00  0.00    +0.000 A 
ATOM     15  C   UNL     1       3.613   3.304  19.737  0.00  0.00    +0.000 A 
ATOM     16  C   UNL     1       3.335   4.600  19.258  0.00  0.00    +0.000 A 
ENDBRANCH   6   8
BRANCH   1  18
ATOM     17  O   UNL     1       4.673   4.007  13.577  0.00  0.00    +0.000 OA
ATOM     18  N   UNL     1       5.840   4.038  13.991  0.00  0.00    +0.000 N 
ATOM     19  O   UNL     1       6.836   3.752  13.312  0.00  0.00    +0.000 OA
ENDBRANCH   1  18
TORSDOF 2
ENDMDL
