MODEL 1
REMARK VINA RESULT:      -7.9      0.000      0.000
REMARK  Name = 
REMARK  4 active torsions:
REMARK  status: ('A' for Active; 'I' for Inactive)
REMARK    1  A    between atoms: C_7  and  C_8
REMARK    2  A    between atoms: C_8  and  N_9
REMARK    3  A    between atoms: N_14  and  C_15
REMARK    4  A    between atoms: C_15  and  C_16
REMARK                            x       y       z     vdW  Elec       q    Type
REMARK                         _______ _______ _______ _____ _____    ______ ____
ROOT
ATOM      1  N   UNL     1       5.182   4.379  18.895  0.00  0.00    +0.000 N 
ATOM      2  N   UNL     1       6.064   4.499  19.916  0.00  0.00    +0.000 NA
ATOM      3  N   UNL     1       6.845   5.541  19.655  0.00  0.00    +0.000 NA
ATOM      4  C   UNL     1       6.444   6.081  18.463  0.00  0.00    +0.000 A 
ATOM      5  C   UNL     1       6.945   7.136  17.679  0.00  0.00    +0.000 A 
ATOM      6  N   UNL     1       8.112   7.816  18.023  0.00  0.00    +0.000 N 
ATOM      7  N   UNL     1       6.273   7.428  16.531  0.00  0.00    +0.000 NA
ATOM      8  C   UNL     1       5.207   6.670  16.180  0.00  0.00    +0.000 A 
ATOM      9  N   UNL     1       4.684   5.609  16.831  0.00  0.00    +0.000 NA
ATOM     10  C   UNL     1       5.354   5.383  17.976  0.00  0.00    +0.000 A 
ATOM     11  H   UNL     1       8.380   7.659  18.989  0.00  0.00    +0.000 HD
ENDROOT
BRANCH   1  12
ATOM     12  C   UNL     1       4.460   3.137  18.700  0.00  0.00    +0.000 C 
BRANCH  12  19
ATOM     13 CL   UNL     1       1.691   4.080  17.531  0.00  0.00    +0.000 Cl
ATOM     14  C   UNL     1       1.955   3.448  19.116  0.00  0.00    +0.000 A 
ATOM     15  C   UNL     1       0.857   3.415  19.983  0.00  0.00    +0.000 A 
ATOM     16  C   UNL     1       1.000   2.926  21.280  0.00  0.00    +0.000 A 
ATOM     17  C   UNL     1       2.234   2.446  21.706  0.00  0.00    +0.000 A 
ATOM     18  C   UNL     1       3.333   2.482  20.845  0.00  0.00    +0.000 A 
ATOM     19  C   UNL     1       3.218   3.005  19.543  0.00  0.00    +0.000 A 
ENDBRANCH  12  19
ENDBRANCH   1  12
BRANCH   6  20
ATOM     20  C   UNL     1       8.245   9.173  17.542  0.00  0.00    +0.000 C 
BRANCH  20  21
ATOM     21  C   UNL     1       8.899  10.005  18.611  0.00  0.00    +0.000 C 
ATOM     22  C   UNL     1      10.185  10.757  18.355  0.00  0.00    +0.000 C 
ATOM     23  C   UNL     1       8.895  11.512  18.508  0.00  0.00    +0.000 C 
ENDBRANCH  20  21
ENDBRANCH   6  20
TORSDOF 4
ENDMDL
MODEL 2
REMARK VINA RESULT:      -7.6      1.576      2.635
REMARK  Name = 
REMARK  4 active torsions:
REMARK  status: ('A' for Active; 'I' for Inactive)
REMARK    1  A    between atoms: C_7  and  C_8
REMARK    2  A    between atoms: C_8  and  N_9
REMARK    3  A    between atoms: N_14  and  C_15
REMARK    4  A    between atoms: C_15  and  C_16
REMARK                            x       y       z     vdW  Elec       q    Type
REMARK                         _______ _______ _______ _____ _____    ______ ____
ROOT
ATOM      1  N   UNL     1       5.494   4.752  16.502  0.00  0.00    +0.000 N 
ATOM      2  N   UNL     1       5.237   5.728  15.598  0.00  0.00    +0.000 NA
ATOM      3  N   UNL     1       5.939   6.799  15.950  0.00  0.00    +0.000 NA
ATOM      4  C   UNL     1       6.646   6.489  17.081  0.00  0.00    +0.000 A 
ATOM      5  C   UNL     1       7.487   7.246  17.916  0.00  0.00    +0.000 A 
ATOM      6  N   UNL     1       7.682   8.612  17.717  0.00  0.00    +0.000 N 
ATOM      7  N   UNL     1       8.057   6.600  18.970  0.00  0.00    +0.000 NA
ATOM      8  C   UNL     1       7.753   5.298  19.189  0.00  0.00    +0.000 A 
ATOM      9  N   UNL     1       6.920   4.504  18.483  0.00  0.00    +0.000 NA
ATOM     10  C   UNL     1       6.413   5.171  17.431  0.00  0.00    +0.000 A 
ATOM     11  H   UNL     1       7.393   8.912  16.792  0.00  0.00    +0.000 HD
ENDROOT
BRANCH   1  12
ATOM     12  C   UNL     1       4.606   3.611  16.612  0.00  0.00    +0.000 C 
BRANCH  12  19
ATOM     13 CL   UNL     1       3.852   1.109  18.372  0.00  0.00    +0.000 Cl
ATOM     14  C   UNL     1       3.123   2.671  18.473  0.00  0.00    +0.000 A 
ATOM     15  C   UNL     1       2.056   2.823  19.366  0.00  0.00    +0.000 A 
ATOM     16  C   UNL     1       1.414   4.053  19.492  0.00  0.00    +0.000 A 
ATOM     17  C   UNL     1       1.853   5.141  18.744  0.00  0.00    +0.000 A 
ATOM     18  C   UNL     1       2.914   4.992  17.848  0.00  0.00    +0.000 A 
ATOM     19  C   UNL     1       3.552   3.749  17.680  0.00  0.00    +0.000 A 
ENDBRANCH  12  19
ENDBRANCH   1  12
BRANCH   6  20
ATOM     20  C   UNL     1       8.923   9.173  18.205  0.00  0.00    +0.000 C 
BRANCH  20  21
ATOM     21  C   UNL     1       8.797  10.672  18.237  0.00  0.00    +0.000 C 
ATOM     22  C   UNL     1       9.454  11.499  19.317  0.00  0.00    +0.000 C 
ATOM     23  C   UNL     1       9.990  11.540  17.914  0.00  0.00    +0.000 C 
ENDBRANCH  20  21
ENDBRANCH   6  20
TORSDOF 4
ENDMDL
MODEL 3
REMARK VINA RESULT:      -7.3      1.623      2.182
REMARK  Name = 
REMARK  4 active torsions:
REMARK  status: ('A' for Active; 'I' for Inactive)
REMARK    1  A    between atoms: C_7  and  C_8
REMARK    2  A    between atoms: C_8  and  N_9
REMARK    3  A    between atoms: N_14  and  C_15
REMARK    4  A    between atoms: C_15  and  C_16
REMARK                            x       y       z     vdW  Elec       q    Type
REMARK                         _______ _______ _______ _____ _____    ______ ____
ROOT
ATOM      1  N   UNL     1       3.781   4.914  17.268  0.00  0.00    +0.000 N 
ATOM      2  N   UNL     1       3.194   6.071  17.660  0.00  0.00    +0.000 NA
ATOM      3  N   UNL     1       4.149   6.985  17.787  0.00  0.00    +0.000 NA
ATOM      4  C   UNL     1       5.343   6.398  17.465  0.00  0.00    +0.000 A 
ATOM      5  C   UNL     1       6.670   6.862  17.487  0.00  0.00    +0.000 A 
ATOM      6  N   UNL     1       6.996   8.128  17.971  0.00  0.00    +0.000 N 
ATOM      7  N   UNL     1       7.636   5.998  17.072  0.00  0.00    +0.000 NA
ATOM      8  C   UNL     1       7.285   4.739  16.713  0.00  0.00    +0.000 A 
ATOM      9  N   UNL     1       6.055   4.183  16.709  0.00  0.00    +0.000 NA
ATOM     10  C   UNL     1       5.130   5.084  17.087  0.00  0.00    +0.000 A 
ATOM     11  H   UNL     1       6.187   8.738  18.034  0.00  0.00    +0.000 HD
ENDROOT
BRANCH   1  12
ATOM     12  C   UNL     1       3.074   3.656  17.411  0.00  0.00    +0.000 C 
BRANCH  12  19
ATOM     13 CL   UNL     1       4.981   2.798  19.767  0.00  0.00    +0.000 Cl
ATOM     14  C   UNL     1       3.269   2.992  19.874  0.00  0.00    +0.000 A 
ATOM     15  C   UNL     1       2.664   2.674  21.095  0.00  0.00    +0.000 A 
ATOM     16  C   UNL     1       1.284   2.798  21.250  0.00  0.00    +0.000 A 
ATOM     17  C   UNL     1       0.510   3.263  20.192  0.00  0.00    +0.000 A 
ATOM     18  C   UNL     1       1.109   3.577  18.970  0.00  0.00    +0.000 A 
ATOM     19  C   UNL     1       2.496   3.424  18.783  0.00  0.00    +0.000 A 
ENDBRANCH  12  19
ENDBRANCH   1  12
BRANCH   6  20
ATOM     20  C   UNL     1       8.206   8.732  17.460  0.00  0.00    +0.000 C 
BRANCH  20  21
ATOM     21  C   UNL     1       8.399  10.068  18.124  0.00  0.00    +0.000 C 
ATOM     22  C   UNL     1       9.308  10.234  19.320  0.00  0.00    +0.000 C 
ATOM     23  C   UNL     1       9.714  10.800  17.989  0.00  0.00    +0.000 C 
ENDBRANCH  20  21
ENDBRANCH   6  20
TORSDOF 4
ENDMDL
MODEL 4
REMARK VINA RESULT:      -7.2      5.284      6.824
REMARK  Name = 
REMARK  4 active torsions:
REMARK  status: ('A' for Active; 'I' for Inactive)
REMARK    1  A    between atoms: C_7  and  C_8
REMARK    2  A    between atoms: C_8  and  N_9
REMARK    3  A    between atoms: N_14  and  C_15
REMARK    4  A    between atoms: C_15  and  C_16
REMARK                            x       y       z     vdW  Elec       q    Type
REMARK                         _______ _______ _______ _____ _____    ______ ____
ROOT
ATOM      1  N   UNL     1       2.872   7.382  19.053  0.00  0.00    +0.000 N 
ATOM      2  N   UNL     1       2.999   7.706  17.743  0.00  0.00    +0.000 NA
ATOM      3  N   UNL     1       2.074   8.617  17.462  0.00  0.00    +0.000 NA
ATOM      4  C   UNL     1       1.368   8.870  18.607  0.00  0.00    +0.000 A 
ATOM      5  C   UNL     1       0.250   9.680  18.877  0.00  0.00    +0.000 A 
ATOM      6  N   UNL     1      -0.417  10.370  17.866  0.00  0.00    +0.000 N 
ATOM      7  N   UNL     1      -0.193   9.715  20.164  0.00  0.00    +0.000 NA
ATOM      8  C   UNL     1       0.419   8.944  21.093  0.00  0.00    +0.000 A 
ATOM      9  N   UNL     1       1.457   8.096  20.925  0.00  0.00    +0.000 NA
ATOM     10  C   UNL     1       1.886   8.125  19.650  0.00  0.00    +0.000 A 
ATOM     11  H   UNL     1       0.134  10.440  17.017  0.00  0.00    +0.000 HD
ENDROOT
BRANCH   1  12
ATOM     12  C   UNL     1       3.471   6.163  19.561  0.00  0.00    +0.000 C 
BRANCH  12  19
ATOM     13 CL   UNL     1       3.952   4.435  16.972  0.00  0.00    +0.000 Cl
ATOM     14  C   UNL     1       2.758   4.130  18.181  0.00  0.00    +0.000 A 
ATOM     15  C   UNL     1       1.881   3.063  17.959  0.00  0.00    +0.000 A 
ATOM     16  C   UNL     1       0.886   2.765  18.889  0.00  0.00    +0.000 A 
ATOM     17  C   UNL     1       0.782   3.518  20.054  0.00  0.00    +0.000 A 
ATOM     18  C   UNL     1       1.653   4.587  20.277  0.00  0.00    +0.000 A 
ATOM     19  C   UNL     1       2.641   4.926  19.333  0.00  0.00    +0.000 A 
ENDBRANCH  12  19
ENDBRANCH   1  12
BRANCH   6  20
ATOM     20  C   UNL     1      -1.137  11.563  18.254  0.00  0.00    +0.000 C 
BRANCH  20  21
ATOM     21  C   UNL     1      -2.598  11.227  18.383  0.00  0.00    +0.000 C 
ATOM     22  C   UNL     1      -3.573  11.484  17.257  0.00  0.00    +0.000 C 
ATOM     23  C   UNL     1      -3.183  10.075  17.602  0.00  0.00    +0.000 C 
ENDBRANCH  20  21
ENDBRANCH   6  20
TORSDOF 4
ENDMDL
MODEL 5
REMARK VINA RESULT:      -7.1      1.242      2.180
REMARK  Name = 
REMARK  4 active torsions:
REMARK  status: ('A' for Active; 'I' for Inactive)
REMARK    1  A    between atoms: C_7  and  C_8
REMARK    2  A    between atoms: C_8  and  N_9
REMARK    3  A    between atoms: N_14  and  C_15
REMARK    4  A    between atoms: C_15  and  C_16
REMARK                            x       y       z     vdW  Elec       q    Type
REMARK                         _______ _______ _______ _____ _____    ______ ____
ROOT
ATOM      1  N   UNL     1       5.056   4.622  16.804  0.00  0.00    +0.000 N 
ATOM      2  N   UNL     1       4.819   5.509  15.807  0.00  0.00    +0.000 NA
ATOM      3  N   UNL     1       5.608   6.559  16.004  0.00  0.00    +0.000 NA
ATOM      4  C   UNL     1       6.350   6.325  17.131  0.00  0.00    +0.000 A 
ATOM      5  C   UNL     1       7.282   7.106  17.837  0.00  0.00    +0.000 A 
ATOM      6  N   UNL     1       7.558   8.424  17.476  0.00  0.00    +0.000 N 
ATOM      7  N   UNL     1       7.861   6.541  18.932  0.00  0.00    +0.000 NA
ATOM      8  C   UNL     1       7.482   5.296  19.310  0.00  0.00    +0.000 A 
ATOM      9  N   UNL     1       6.563   4.491  18.735  0.00  0.00    +0.000 NA
ATOM     10  C   UNL     1       6.048   5.074  17.638  0.00  0.00    +0.000 A 
ATOM     11  H   UNL     1       7.241   8.641  16.537  0.00  0.00    +0.000 HD
ENDROOT
BRANCH   1  12
ATOM     12  C   UNL     1       4.101   3.567  17.080  0.00  0.00    +0.000 C 
BRANCH  12  19
ATOM     13 CL   UNL     1       2.325   6.075  17.774  0.00  0.00    +0.000 Cl
ATOM     14  C   UNL     1       2.688   4.769  18.843  0.00  0.00    +0.000 A 
ATOM     15  C   UNL     1       2.211   4.864  20.155  0.00  0.00    +0.000 A 
ATOM     16  C   UNL     1       2.474   3.850  21.074  0.00  0.00    +0.000 A 
ATOM     17  C   UNL     1       3.195   2.728  20.678  0.00  0.00    +0.000 A 
ATOM     18  C   UNL     1       3.678   2.632  19.371  0.00  0.00    +0.000 A 
ATOM     19  C   UNL     1       3.453   3.662  18.438  0.00  0.00    +0.000 A 
ENDBRANCH  12  19
ENDBRANCH   1  12
BRANCH   6  20
ATOM     20  C   UNL     1       8.856   8.944  17.843  0.00  0.00    +0.000 C 
BRANCH  20  21
ATOM     21  C   UNL     1       8.682  10.329  18.405  0.00  0.00    +0.000 C 
ATOM     22  C   UNL     1       9.405  10.774  19.655  0.00  0.00    +0.000 C 
ATOM     23  C   UNL     1       9.811  11.329  18.319  0.00  0.00    +0.000 C 
ENDBRANCH  20  21
ENDBRANCH   6  20
TORSDOF 4
ENDMDL
MODEL 6
REMARK VINA RESULT:      -7.0      3.173      5.090
REMARK  Name = 
REMARK  4 active torsions:
REMARK  status: ('A' for Active; 'I' for Inactive)
REMARK    1  A    between atoms: C_7  and  C_8
REMARK    2  A    between atoms: C_8  and  N_9
REMARK    3  A    between atoms: N_14  and  C_15
REMARK    4  A    between atoms: C_15  and  C_16
REMARK                            x       y       z     vdW  Elec       q    Type
REMARK                         _______ _______ _______ _____ _____    ______ ____
ROOT
ATOM      1  N   UNL     1       5.021   4.042  18.171  0.00  0.00    +0.000 N 
ATOM      2  N   UNL     1       4.299   3.065  17.570  0.00  0.00    +0.000 NA
ATOM      3  N   UNL     1       4.670   3.015  16.296  0.00  0.00    +0.000 NA
ATOM      4  C   UNL     1       5.638   3.963  16.099  0.00  0.00    +0.000 A 
ATOM      5  C   UNL     1       6.331   4.395  14.955  0.00  0.00    +0.000 A 
ATOM      6  N   UNL     1       6.035   3.897  13.687  0.00  0.00    +0.000 N 
ATOM      7  N   UNL     1       7.266   5.370  15.126  0.00  0.00    +0.000 NA
ATOM      8  C   UNL     1       7.443   5.903  16.359  0.00  0.00    +0.000 A 
ATOM      9  N   UNL     1       6.795   5.599  17.503  0.00  0.00    +0.000 NA
ATOM     10  C   UNL     1       5.912   4.606  17.294  0.00  0.00    +0.000 A 
ATOM     11  H   UNL     1       5.496   3.038  13.726  0.00  0.00    +0.000 HD
ENDROOT
BRANCH   1  12
ATOM     12  C   UNL     1       4.586   4.590  19.441  0.00  0.00    +0.000 C 
BRANCH  12  19
ATOM     13 CL   UNL     1       1.825   5.628  18.333  0.00  0.00    +0.000 Cl
ATOM     14  C   UNL     1       2.035   4.432  19.562  0.00  0.00    +0.000 A 
ATOM     15  C   UNL     1       0.879   3.929  20.169  0.00  0.00    +0.000 A 
ATOM     16  C   UNL     1       0.974   2.969  21.175  0.00  0.00    +0.000 A 
ATOM     17  C   UNL     1       2.224   2.493  21.559  0.00  0.00    +0.000 A 
ATOM     18  C   UNL     1       3.380   2.996  20.958  0.00  0.00    +0.000 A 
ATOM     19  C   UNL     1       3.306   3.992  19.966  0.00  0.00    +0.000 A 
ENDBRANCH  12  19
ENDBRANCH   1  12
BRANCH   6  20
ATOM     20  C   UNL     1       7.096   3.934  12.705  0.00  0.00    +0.000 C 
BRANCH  20  21
ATOM     21  C   UNL     1       6.632   3.222  11.463  0.00  0.00    +0.000 C 
ATOM     22  C   UNL     1       7.199   1.881  11.060  0.00  0.00    +0.000 C 
ATOM     23  C   UNL     1       5.790   1.974  11.574  0.00  0.00    +0.000 C 
ENDBRANCH  20  21
ENDBRANCH   6  20
TORSDOF 4
ENDMDL
MODEL 7
REMARK VINA RESULT:      -6.9      1.197      1.625
REMARK  Name = 
REMARK  4 active torsions:
REMARK  status: ('A' for Active; 'I' for Inactive)
REMARK    1  A    between atoms: C_7  and  C_8
REMARK    2  A    between atoms: C_8  and  N_9
REMARK    3  A    between atoms: N_14  and  C_15
REMARK    4  A    between atoms: C_15  and  C_16
REMARK                            x       y       z     vdW  Elec       q    Type
REMARK                         _______ _______ _______ _____ _____    ______ ____
ROOT
ATOM      1  N   UNL     1       5.308   4.318  18.792  0.00  0.00    +0.000 N 
ATOM      2  N   UNL     1       6.129   4.410  19.866  0.00  0.00    +0.000 NA
ATOM      3  N   UNL     1       6.902   5.477  19.692  0.00  0.00    +0.000 NA
ATOM      4  C   UNL     1       6.556   6.061  18.503  0.00  0.00    +0.000 A 
ATOM      5  C   UNL     1       7.077   7.158  17.794  0.00  0.00    +0.000 A 
ATOM      6  N   UNL     1       8.209   7.844  18.231  0.00  0.00    +0.000 N 
ATOM      7  N   UNL     1       6.464   7.486  16.623  0.00  0.00    +0.000 NA
ATOM      8  C   UNL     1       5.434   6.724  16.181  0.00  0.00    +0.000 A 
ATOM      9  N   UNL     1       4.899   5.626  16.757  0.00  0.00    +0.000 NA
ATOM     10  C   UNL     1       5.509   5.364  17.927  0.00  0.00    +0.000 A 
ATOM     11  H   UNL     1       8.426   7.651  19.203  0.00  0.00    +0.000 HD
ENDROOT
BRANCH   1  12
ATOM     12  C   UNL     1       4.624   3.072  18.505  0.00  0.00    +0.000 C 
BRANCH  12  19
ATOM     13 CL   UNL     1       3.723   2.108  21.366  0.00  0.00    +0.000 Cl
ATOM     14  C   UNL     1       2.671   2.615  20.093  0.00  0.00    +0.000 A 
ATOM     15  C   UNL     1       1.295   2.524  20.327  0.00  0.00    +0.000 A 
ATOM     16  C   UNL     1       0.387   2.906  19.341  0.00  0.00    +0.000 A 
ATOM     17  C   UNL     1       0.854   3.403  18.128  0.00  0.00    +0.000 A 
ATOM     18  C   UNL     1       2.227   3.490  17.889  0.00  0.00    +0.000 A 
ATOM     19  C   UNL     1       3.159   3.076  18.859  0.00  0.00    +0.000 A 
ENDBRANCH  12  19
ENDBRANCH   1  12
BRANCH   6  20
ATOM     20  C   UNL     1       8.339   9.223  17.815  0.00  0.00    +0.000 C 
BRANCH  20  21
ATOM     21  C   UNL     1       9.019   9.997  18.911  0.00  0.00    +0.000 C 
ATOM     22  C   UNL     1      10.276  10.796  18.655  0.00  0.00    +0.000 C 
ATOM     23  C   UNL     1       8.978  11.507  18.911  0.00  0.00    +0.000 C 
ENDBRANCH  20  21
ENDBRANCH   6  20
TORSDOF 4
ENDMDL
MODEL 8
REMARK VINA RESULT:      -6.9      3.283      5.250
REMARK  Name = 
REMARK  4 active torsions:
REMARK  status: ('A' for Active; 'I' for Inactive)
REMARK    1  A    between atoms: C_7  and  C_8
REMARK    2  A    between atoms: C_8  and  N_9
REMARK    3  A    between atoms: N_14  and  C_15
REMARK    4  A    between atoms: C_15  and  C_16
REMARK                            x       y       z     vdW  Elec       q    Type
REMARK                         _______ _______ _______ _____ _____    ______ ____
ROOT
ATOM      1  N   UNL     1       4.780   4.385  18.080  0.00  0.00    +0.000 N 
ATOM      2  N   UNL     1       3.963   3.517  17.435  0.00  0.00    +0.000 NA
ATOM      3  N   UNL     1       4.384   3.422  16.179  0.00  0.00    +0.000 NA
ATOM      4  C   UNL     1       5.479   4.232  16.038  0.00  0.00    +0.000 A 
ATOM      5  C   UNL     1       6.277   4.570  14.931  0.00  0.00    +0.000 A 
ATOM      6  N   UNL     1       5.977   4.121  13.645  0.00  0.00    +0.000 N 
ATOM      7  N   UNL     1       7.326   5.409  15.155  0.00  0.00    +0.000 NA
ATOM      8  C   UNL     1       7.515   5.908  16.400  0.00  0.00    +0.000 A 
ATOM      9  N   UNL     1       6.779   5.690  17.511  0.00  0.00    +0.000 NA
ATOM     10  C   UNL     1       5.780   4.826  17.250  0.00  0.00    +0.000 A 
ATOM     11  H   UNL     1       5.325   3.343  13.651  0.00  0.00    +0.000 HD
ENDROOT
BRANCH   1  12
ATOM     12  C   UNL     1       4.364   4.982  19.333  0.00  0.00    +0.000 C 
BRANCH  12  19
ATOM     13 CL   UNL     1       4.738   2.117  20.588  0.00  0.00    +0.000 Cl
ATOM     14  C   UNL     1       3.258   3.003  20.519  0.00  0.00    +0.000 A 
ATOM     15  C   UNL     1       2.108   2.366  20.998  0.00  0.00    +0.000 A 
ATOM     16  C   UNL     1       0.876   3.019  20.965  0.00  0.00    +0.000 A 
ATOM     17  C   UNL     1       0.797   4.318  20.473  0.00  0.00    +0.000 A 
ATOM     18  C   UNL     1       1.941   4.955  19.989  0.00  0.00    +0.000 A 
ATOM     19  C   UNL     1       3.187   4.299  19.981  0.00  0.00    +0.000 A 
ENDBRANCH  12  19
ENDBRANCH   1  12
BRANCH   6  20
ATOM     20  C   UNL     1       7.078   4.018  12.714  0.00  0.00    +0.000 C 
BRANCH  20  21
ATOM     21  C   UNL     1       6.616   3.262  11.498  0.00  0.00    +0.000 C 
ATOM     22  C   UNL     1       7.164   1.896  11.159  0.00  0.00    +0.000 C 
ATOM     23  C   UNL     1       5.752   2.033  11.653  0.00  0.00    +0.000 C 
ENDBRANCH  20  21
ENDBRANCH   6  20
TORSDOF 4
ENDMDL
MODEL 9
REMARK VINA RESULT:      -6.9      3.033      4.784
REMARK  Name = 
REMARK  4 active torsions:
REMARK  status: ('A' for Active; 'I' for Inactive)
REMARK    1  A    between atoms: C_7  and  C_8
REMARK    2  A    between atoms: C_8  and  N_9
REMARK    3  A    between atoms: N_14  and  C_15
REMARK    4  A    between atoms: C_15  and  C_16
REMARK                            x       y       z     vdW  Elec       q    Type
REMARK                         _______ _______ _______ _____ _____    ______ ____
ROOT
ATOM      1  N   UNL     1       4.615   5.030  18.352  0.00  0.00    +0.000 N 
ATOM      2  N   UNL     1       5.019   3.738  18.404  0.00  0.00    +0.000 NA
ATOM      3  N   UNL     1       5.547   3.432  17.224  0.00  0.00    +0.000 NA
ATOM      4  C   UNL     1       5.479   4.545  16.429  0.00  0.00    +0.000 A 
ATOM      5  C   UNL     1       5.819   4.777  15.085  0.00  0.00    +0.000 A 
ATOM      6  N   UNL     1       6.265   3.752  14.253  0.00  0.00    +0.000 N 
ATOM      7  N   UNL     1       5.636   6.040  14.608  0.00  0.00    +0.000 NA
ATOM      8  C   UNL     1       5.097   6.980  15.422  0.00  0.00    +0.000 A 
ATOM      9  N   UNL     1       4.689   6.844  16.702  0.00  0.00    +0.000 NA
ATOM     10  C   UNL     1       4.926   5.594  17.140  0.00  0.00    +0.000 A 
ATOM     11  H   UNL     1       6.566   2.935  14.774  0.00  0.00    +0.000 HD
ENDROOT
BRANCH   1  12
ATOM     12  C   UNL     1       3.673   5.537  19.331  0.00  0.00    +0.000 C 
BRANCH  12  19
ATOM     13 CL   UNL     1       1.370   4.427  17.490  0.00  0.00    +0.000 Cl
ATOM     14  C   UNL     1       1.646   3.987  19.136  0.00  0.00    +0.000 A 
ATOM     15  C   UNL     1       0.726   3.115  19.729  0.00  0.00    +0.000 A 
ATOM     16  C   UNL     1       0.881   2.725  21.058  0.00  0.00    +0.000 A 
ATOM     17  C   UNL     1       1.970   3.188  21.790  0.00  0.00    +0.000 A 
ATOM     18  C   UNL     1       2.887   4.063  21.204  0.00  0.00    +0.000 A 
ATOM     19  C   UNL     1       2.728   4.496  19.874  0.00  0.00    +0.000 A 
ENDBRANCH  12  19
ENDBRANCH   1  12
BRANCH   6  20
ATOM     20  C   UNL     1       7.100   4.132  13.135  0.00  0.00    +0.000 C 
BRANCH  20  21
ATOM     21  C   UNL     1       6.499   3.580  11.871  0.00  0.00    +0.000 C 
ATOM     22  C   UNL     1       6.826   2.189  11.380  0.00  0.00    +0.000 C 
ATOM     23  C   UNL     1       5.463   2.483  11.940  0.00  0.00    +0.000 C 
ENDBRANCH  20  21
ENDBRANCH   6  20
TORSDOF 4
ENDMDL
