MODEL 1
REMARK VINA RESULT:      -7.8      0.000      0.000
REMARK  Name = 
REMARK  4 active torsions:
REMARK  status: ('A' for Active; 'I' for Inactive)
REMARK    1  A    between atoms: C_13  and  C_14
REMARK    2  A    between atoms: C_13  and  C_21
REMARK    3  A    between atoms: C_14  and  C_15
REMARK    4  A    between atoms: C_21  and  C_22
REMARK                            x       y       z     vdW  Elec       q    Type
REMARK                         _______ _______ _______ _____ _____    ______ ____
ROOT
ATOM      1  O   UNL     1       2.321   5.152  20.883  0.00  0.00    +0.000 OA
ATOM      2  C   UNL     1       2.184   6.210  20.272  0.00  0.00    +0.000 C 
ATOM      3  C   UNL     1       1.428   7.376  20.655  0.00  0.00    +0.000 A 
ATOM      4  C   UNL     1       0.662   7.615  21.793  0.00  0.00    +0.000 A 
ATOM      5  C   UNL     1       0.028   8.865  21.883  0.00  0.00    +0.000 A 
ATOM      6  C   UNL     1       0.157   9.838  20.874  0.00  0.00    +0.000 A 
ATOM      7  C   UNL     1       0.935   9.570  19.734  0.00  0.00    +0.000 A 
ATOM      8  C   UNL     1       1.158  10.431  18.648  0.00  0.00    +0.000 A 
ATOM      9  C   UNL     1       1.970  10.020  17.576  0.00  0.00    +0.000 A 
ATOM     10  C   UNL     1       2.579   8.752  17.544  0.00  0.00    +0.000 A 
ATOM     11  C   UNL     1       2.334   7.911  18.630  0.00  0.00    +0.000 A 
ATOM     12  C   UNL     1       1.538   8.341  19.678  0.00  0.00    +0.000 A 
ATOM     13  C   UNL     1       2.853   6.487  18.867  0.00  0.00    +0.000 C 
ENDROOT
BRANCH  13  14
ATOM     14  C   UNL     1       4.397   6.526  19.003  0.00  0.00    +0.000 C 
BRANCH  14  15
ATOM     15  C   UNL     1       5.229   5.936  17.886  0.00  0.00    +0.000 A 
ATOM     16  C   UNL     1       5.005   6.290  16.552  0.00  0.00    +0.000 A 
ATOM     17  C   UNL     1       5.839   5.771  15.571  0.00  0.00    +0.000 A 
ATOM     18  N   UNL     1       6.869   4.937  15.824  0.00  0.00    +0.000 NA
ATOM     19  C   UNL     1       7.062   4.594  17.115  0.00  0.00    +0.000 A 
ATOM     20  C   UNL     1       6.279   5.057  18.163  0.00  0.00    +0.000 A 
ENDBRANCH  14  15
ENDBRANCH  13  14
BRANCH  13  21
ATOM     21  C   UNL     1       2.351   5.492  17.801  0.00  0.00    +0.000 C 
BRANCH  21  22
ATOM     22  C   UNL     1       2.172   4.049  18.219  0.00  0.00    +0.000 A 
ATOM     23  C   UNL     1       0.916   3.526  18.531  0.00  0.00    +0.000 A 
ATOM     24  C   UNL     1       0.815   2.178  18.843  0.00  0.00    +0.000 A 
ATOM     25  N   UNL     1       1.863   1.327  18.866  0.00  0.00    +0.000 NA
ATOM     26  C   UNL     1       3.072   1.855  18.579  0.00  0.00    +0.000 A 
ATOM     27  C   UNL     1       3.275   3.190  18.263  0.00  0.00    +0.000 A 
ENDBRANCH  21  22
ENDBRANCH  13  21
TORSDOF 4
ENDMDL
MODEL 2
REMARK VINA RESULT:      -7.8      0.234      1.297
REMARK  Name = 
REMARK  4 active torsions:
REMARK  status: ('A' for Active; 'I' for Inactive)
REMARK    1  A    between atoms: C_13  and  C_14
REMARK    2  A    between atoms: C_13  and  C_21
REMARK    3  A    between atoms: C_14  and  C_15
REMARK    4  A    between atoms: C_21  and  C_22
REMARK                            x       y       z     vdW  Elec       q    Type
REMARK                         _______ _______ _______ _____ _____    ______ ____
ROOT
ATOM      1  O   UNL     1       2.498   5.027  20.773  0.00  0.00    +0.000 OA
ATOM      2  C   UNL     1       2.349   6.091  20.176  0.00  0.00    +0.000 C 
ATOM      3  C   UNL     1       1.533   7.221  20.545  0.00  0.00    +0.000 A 
ATOM      4  C   UNL     1       0.707   7.409  21.649  0.00  0.00    +0.000 A 
ATOM      5  C   UNL     1       0.023   8.633  21.732  0.00  0.00    +0.000 A 
ATOM      6  C   UNL     1       0.162   9.630  20.748  0.00  0.00    +0.000 A 
ATOM      7  C   UNL     1       1.001   9.414  19.641  0.00  0.00    +0.000 A 
ATOM      8  C   UNL     1       1.241  10.304  18.583  0.00  0.00    +0.000 A 
ATOM      9  C   UNL     1       2.117   9.944  17.543  0.00  0.00    +0.000 A 
ATOM     10  C   UNL     1       2.773   8.700  17.516  0.00  0.00    +0.000 A 
ATOM     11  C   UNL     1       2.510   7.829  18.574  0.00  0.00    +0.000 A 
ATOM     12  C   UNL     1       1.652   8.209  19.591  0.00  0.00    +0.000 A 
ATOM     13  C   UNL     1       3.072   6.421  18.809  0.00  0.00    +0.000 C 
ENDROOT
BRANCH  13  14
ATOM     14  C   UNL     1       4.605   6.514  19.018  0.00  0.00    +0.000 C 
BRANCH  14  15
ATOM     15  C   UNL     1       5.509   5.954  17.942  0.00  0.00    +0.000 A 
ATOM     16  C   UNL     1       6.542   5.065  18.254  0.00  0.00    +0.000 A 
ATOM     17  C   UNL     1       7.301   4.530  17.223  0.00  0.00    +0.000 A 
ATOM     18  N   UNL     1       7.103   4.812  15.919  0.00  0.00    +0.000 NA
ATOM     19  C   UNL     1       6.111   5.682  15.636  0.00  0.00    +0.000 A 
ATOM     20  C   UNL     1       5.303   6.273  16.597  0.00  0.00    +0.000 A 
ENDBRANCH  14  15
ENDBRANCH  13  14
BRANCH  13  21
ATOM     21  C   UNL     1       2.657   5.430  17.703  0.00  0.00    +0.000 C 
BRANCH  21  22
ATOM     22  C   UNL     1       2.383   3.999  18.111  0.00  0.00    +0.000 A 
ATOM     23  C   UNL     1       3.416   3.075  18.285  0.00  0.00    +0.000 A 
ATOM     24  C   UNL     1       3.100   1.797  18.723  0.00  0.00    +0.000 A 
ATOM     25  N   UNL     1       1.845   1.382  18.997  0.00  0.00    +0.000 NA
ATOM     26  C   UNL     1       0.859   2.283  18.806  0.00  0.00    +0.000 A 
ATOM     27  C   UNL     1       1.073   3.579  18.365  0.00  0.00    +0.000 A 
ENDBRANCH  21  22
ENDBRANCH  13  21
TORSDOF 4
ENDMDL
MODEL 3
REMARK VINA RESULT:      -7.7      6.229      8.595
REMARK  Name = 
REMARK  4 active torsions:
REMARK  status: ('A' for Active; 'I' for Inactive)
REMARK    1  A    between atoms: C_13  and  C_14
REMARK    2  A    between atoms: C_13  and  C_21
REMARK    3  A    between atoms: C_14  and  C_15
REMARK    4  A    between atoms: C_21  and  C_22
REMARK                            x       y       z     vdW  Elec       q    Type
REMARK                         _______ _______ _______ _____ _____    ______ ____
ROOT
ATOM      1  O   UNL     1      -0.996  13.104  18.078  0.00  0.00    +0.000 OA
ATOM      2  C   UNL     1      -0.868  12.370  19.056  0.00  0.00    +0.000 C 
ATOM      3  C   UNL     1      -1.383  12.555  20.390  0.00  0.00    +0.000 A 
ATOM      4  C   UNL     1      -2.144  13.591  20.923  0.00  0.00    +0.000 A 
ATOM      5  C   UNL     1      -2.495  13.491  22.280  0.00  0.00    +0.000 A 
ATOM      6  C   UNL     1      -2.099  12.396  23.071  0.00  0.00    +0.000 A 
ATOM      7  C   UNL     1      -1.328  11.364  22.508  0.00  0.00    +0.000 A 
ATOM      8  C   UNL     1      -0.858  10.215  23.163  0.00  0.00    +0.000 A 
ATOM      9  C   UNL     1      -0.098   9.263  22.459  0.00  0.00    +0.000 A 
ATOM     10  C   UNL     1       0.220   9.419  21.098  0.00  0.00    +0.000 A 
ATOM     11  C   UNL     1      -0.250  10.575  20.472  0.00  0.00    +0.000 A 
ATOM     12  C   UNL     1      -1.004  11.493  21.183  0.00  0.00    +0.000 A 
ATOM     13  C   UNL     1      -0.060  11.013  19.015  0.00  0.00    +0.000 C 
ENDROOT
BRANCH  13  14
ATOM     14  C   UNL     1      -0.763   9.994  18.082  0.00  0.00    +0.000 C 
BRANCH  14  15
ATOM     15  C   UNL     1      -2.126  10.350  17.531  0.00  0.00    +0.000 A 
ATOM     16  C   UNL     1      -3.250  10.407  18.360  0.00  0.00    +0.000 A 
ATOM     17  C   UNL     1      -4.465  10.803  17.816  0.00  0.00    +0.000 A 
ATOM     18  N   UNL     1      -4.634  11.143  16.523  0.00  0.00    +0.000 NA
ATOM     19  C   UNL     1      -3.542  11.068  15.733  0.00  0.00    +0.000 A 
ATOM     20  C   UNL     1      -2.288  10.679  16.182  0.00  0.00    +0.000 A 
ENDBRANCH  14  15
ENDBRANCH  13  14
BRANCH  13  21
ATOM     21  C   UNL     1       1.422  11.254  18.662  0.00  0.00    +0.000 C 
BRANCH  21  22
ATOM     22  C   UNL     1       2.030  12.581  19.061  0.00  0.00    +0.000 A 
ATOM     23  C   UNL     1       2.235  12.921  20.399  0.00  0.00    +0.000 A 
ATOM     24  C   UNL     1       2.856  14.126  20.693  0.00  0.00    +0.000 A 
ATOM     25  N   UNL     1       3.281  15.004  19.758  0.00  0.00    +0.000 NA
ATOM     26  C   UNL     1       3.058  14.666  18.471  0.00  0.00    +0.000 A 
ATOM     27  C   UNL     1       2.439  13.489  18.079  0.00  0.00    +0.000 A 
ENDBRANCH  21  22
ENDBRANCH  13  21
TORSDOF 4
ENDMDL
MODEL 4
REMARK VINA RESULT:      -7.6      1.360      4.505
REMARK  Name = 
REMARK  4 active torsions:
REMARK  status: ('A' for Active; 'I' for Inactive)
REMARK    1  A    between atoms: C_13  and  C_14
REMARK    2  A    between atoms: C_13  and  C_21
REMARK    3  A    between atoms: C_14  and  C_15
REMARK    4  A    between atoms: C_21  and  C_22
REMARK                            x       y       z     vdW  Elec       q    Type
REMARK                         _______ _______ _______ _____ _____    ______ ____
ROOT
ATOM      1  O   UNL     1       3.547   7.793  16.476  0.00  0.00    +0.000 OA
ATOM      2  C   UNL     1       2.939   7.849  17.544  0.00  0.00    +0.000 C 
ATOM      3  C   UNL     1       2.310   8.991  18.158  0.00  0.00    +0.000 A 
ATOM      4  C   UNL     1       2.223  10.310  17.724  0.00  0.00    +0.000 A 
ATOM      5  C   UNL     1       1.539  11.212  18.556  0.00  0.00    +0.000 A 
ATOM      6  C   UNL     1       0.964  10.807  19.776  0.00  0.00    +0.000 A 
ATOM      7  C   UNL     1       1.068   9.468  20.193  0.00  0.00    +0.000 A 
ATOM      8  C   UNL     1       0.553   8.915  21.375  0.00  0.00    +0.000 A 
ATOM      9  C   UNL     1       0.735   7.548  21.652  0.00  0.00    +0.000 A 
ATOM     10  C   UNL     1       1.430   6.695  20.776  0.00  0.00    +0.000 A 
ATOM     11  C   UNL     1       1.942   7.271  19.613  0.00  0.00    +0.000 A 
ATOM     12  C   UNL     1       1.742   8.616  19.357  0.00  0.00    +0.000 A 
ATOM     13  C   UNL     1       2.737   6.598  18.487  0.00  0.00    +0.000 C 
ENDROOT
BRANCH  13  14
ATOM     14  C   UNL     1       1.841   5.539  17.795  0.00  0.00    +0.000 C 
BRANCH  14  15
ATOM     15  C   UNL     1       1.928   4.106  18.271  0.00  0.00    +0.000 A 
ATOM     16  C   UNL     1       2.656   3.149  17.558  0.00  0.00    +0.000 A 
ATOM     17  C   UNL     1       2.759   1.863  18.072  0.00  0.00    +0.000 A 
ATOM     18  N   UNL     1       2.197   1.471  19.233  0.00  0.00    +0.000 NA
ATOM     19  C   UNL     1       1.486   2.404  19.903  0.00  0.00    +0.000 A 
ATOM     20  C   UNL     1       1.322   3.711  19.467  0.00  0.00    +0.000 A 
ENDBRANCH  14  15
ENDBRANCH  13  14
BRANCH  13  21
ATOM     21  C   UNL     1       4.089   6.040  18.975  0.00  0.00    +0.000 C 
BRANCH  21  22
ATOM     22  C   UNL     1       5.216   5.954  17.968  0.00  0.00    +0.000 A 
ATOM     23  C   UNL     1       5.179   5.053  16.902  0.00  0.00    +0.000 A 
ATOM     24  C   UNL     1       6.215   5.071  15.979  0.00  0.00    +0.000 A 
ATOM     25  N   UNL     1       7.269   5.913  16.044  0.00  0.00    +0.000 NA
ATOM     26  C   UNL     1       7.296   6.763  17.091  0.00  0.00    +0.000 A 
ATOM     27  C   UNL     1       6.313   6.815  18.067  0.00  0.00    +0.000 A 
ENDBRANCH  21  22
ENDBRANCH  13  21
TORSDOF 4
ENDMDL
MODEL 5
REMARK VINA RESULT:      -7.6      6.250      8.606
REMARK  Name = 
REMARK  4 active torsions:
REMARK  status: ('A' for Active; 'I' for Inactive)
REMARK    1  A    between atoms: C_13  and  C_14
REMARK    2  A    between atoms: C_13  and  C_21
REMARK    3  A    between atoms: C_14  and  C_15
REMARK    4  A    between atoms: C_21  and  C_22
REMARK                            x       y       z     vdW  Elec       q    Type
REMARK                         _______ _______ _______ _____ _____    ______ ____
ROOT
ATOM      1  O   UNL     1      -0.905  13.166  18.041  0.00  0.00    +0.000 OA
ATOM      2  C   UNL     1      -0.814  12.436  19.026  0.00  0.00    +0.000 C 
ATOM      3  C   UNL     1      -1.331  12.652  20.355  0.00  0.00    +0.000 A 
ATOM      4  C   UNL     1      -2.053  13.723  20.874  0.00  0.00    +0.000 A 
ATOM      5  C   UNL     1      -2.417  13.649  22.228  0.00  0.00    +0.000 A 
ATOM      6  C   UNL     1      -2.072  12.545  23.031  0.00  0.00    +0.000 A 
ATOM      7  C   UNL     1      -1.340  11.478  22.483  0.00  0.00    +0.000 A 
ATOM      8  C   UNL     1      -0.921  10.316  23.150  0.00  0.00    +0.000 A 
ATOM      9  C   UNL     1      -0.195   9.329  22.460  0.00  0.00    +0.000 A 
ATOM     10  C   UNL     1       0.139   9.461  21.100  0.00  0.00    +0.000 A 
ATOM     11  C   UNL     1      -0.279  10.629  20.462  0.00  0.00    +0.000 A 
ATOM     12  C   UNL     1      -1.000  11.583  21.159  0.00  0.00    +0.000 A 
ATOM     13  C   UNL     1      -0.061  11.047  19.002  0.00  0.00    +0.000 C 
ENDROOT
BRANCH  13  14
ATOM     14  C   UNL     1      -0.798  10.049  18.072  0.00  0.00    +0.000 C 
BRANCH  14  15
ATOM     15  C   UNL     1      -2.143  10.454  17.510  0.00  0.00    +0.000 A 
ATOM     16  C   UNL     1      -2.309  10.717  16.147  0.00  0.00    +0.000 A 
ATOM     17  C   UNL     1      -3.577  11.020  15.672  0.00  0.00    +0.000 A 
ATOM     18  N   UNL     1      -4.678  11.076  16.449  0.00  0.00    +0.000 NA
ATOM     19  C   UNL     1      -4.497  10.834  17.765  0.00  0.00    +0.000 A 
ATOM     20  C   UNL     1      -3.270  10.528  18.334  0.00  0.00    +0.000 A 
ENDBRANCH  14  15
ENDBRANCH  13  14
BRANCH  13  21
ATOM     21  C   UNL     1       1.432  11.226  18.659  0.00  0.00    +0.000 C 
BRANCH  21  22
ATOM     22  C   UNL     1       2.079  12.547  19.013  0.00  0.00    +0.000 A 
ATOM     23  C   UNL     1       2.459  13.464  18.032  0.00  0.00    +0.000 A 
ATOM     24  C   UNL     1       2.987  14.684  18.429  0.00  0.00    +0.000 A 
ATOM     25  N   UNL     1       3.161  15.047  19.718  0.00  0.00    +0.000 NA
ATOM     26  C   UNL     1       2.805  14.141  20.651  0.00  0.00    +0.000 A 
ATOM     27  C   UNL     1       2.276  12.894  20.354  0.00  0.00    +0.000 A 
ENDBRANCH  21  22
ENDBRANCH  13  21
TORSDOF 4
ENDMDL
MODEL 6
REMARK VINA RESULT:      -7.5      3.014      5.650
REMARK  Name = 
REMARK  4 active torsions:
REMARK  status: ('A' for Active; 'I' for Inactive)
REMARK    1  A    between atoms: C_13  and  C_14
REMARK    2  A    between atoms: C_13  and  C_21
REMARK    3  A    between atoms: C_14  and  C_15
REMARK    4  A    between atoms: C_21  and  C_22
REMARK                            x       y       z     vdW  Elec       q    Type
REMARK                         _______ _______ _______ _____ _____    ______ ____
ROOT
ATOM      1  O   UNL     1       5.009   7.230  15.423  0.00  0.00    +0.000 OA
ATOM      2  C   UNL     1       4.719   6.506  16.374  0.00  0.00    +0.000 C 
ATOM      3  C   UNL     1       3.812   6.775  17.461  0.00  0.00    +0.000 A 
ATOM      4  C   UNL     1       3.037   7.900  17.728  0.00  0.00    +0.000 A 
ATOM      5  C   UNL     1       2.244   7.869  18.886  0.00  0.00    +0.000 A 
ATOM      6  C   UNL     1       2.227   6.753  19.745  0.00  0.00    +0.000 A 
ATOM      7  C   UNL     1       3.021   5.629  19.454  0.00  0.00    +0.000 A 
ATOM      8  C   UNL     1       3.114   4.449  20.208  0.00  0.00    +0.000 A 
ATOM      9  C   UNL     1       3.954   3.404  19.782  0.00  0.00    +0.000 A 
ATOM     10  C   UNL     1       4.724   3.496  18.610  0.00  0.00    +0.000 A 
ATOM     11  C   UNL     1       4.623   4.683  17.883  0.00  0.00    +0.000 A 
ATOM     12  C   UNL     1       3.783   5.694  18.317  0.00  0.00    +0.000 A 
ATOM     13  C   UNL     1       5.338   5.067  16.582  0.00  0.00    +0.000 C 
ENDROOT
BRANCH  13  14
ATOM     14  C   UNL     1       4.878   4.114  15.449  0.00  0.00    +0.000 C 
BRANCH  14  15
ATOM     15  C   UNL     1       5.659   4.112  14.154  0.00  0.00    +0.000 A 
ATOM     16  C   UNL     1       6.861   4.816  14.031  0.00  0.00    +0.000 A 
ATOM     17  C   UNL     1       7.572   4.728  12.842  0.00  0.00    +0.000 A 
ATOM     18  N   UNL     1       7.175   3.995  11.782  0.00  0.00    +0.000 NA
ATOM     19  C   UNL     1       6.006   3.333  11.912  0.00  0.00    +0.000 A 
ATOM     20  C   UNL     1       5.223   3.363  13.057  0.00  0.00    +0.000 A 
ENDBRANCH  14  15
ENDBRANCH  13  14
BRANCH  13  21
ATOM     21  C   UNL     1       6.869   5.135  16.750  0.00  0.00    +0.000 C 
BRANCH  21  22
ATOM     22  C   UNL     1       7.437   6.296  17.537  0.00  0.00    +0.000 A 
ATOM     23  C   UNL     1       7.914   6.136  18.840  0.00  0.00    +0.000 A 
ATOM     24  C   UNL     1       8.481   7.228  19.480  0.00  0.00    +0.000 A 
ATOM     25  N   UNL     1       8.604   8.451  18.921  0.00  0.00    +0.000 NA
ATOM     26  C   UNL     1       8.121   8.591  17.669  0.00  0.00    +0.000 A 
ATOM     27  C   UNL     1       7.531   7.562  16.951  0.00  0.00    +0.000 A 
ENDBRANCH  21  22
ENDBRANCH  13  21
TORSDOF 4
ENDMDL
MODEL 7
REMARK VINA RESULT:      -7.4      5.412      8.089
REMARK  Name = 
REMARK  4 active torsions:
REMARK  status: ('A' for Active; 'I' for Inactive)
REMARK    1  A    between atoms: C_13  and  C_14
REMARK    2  A    between atoms: C_13  and  C_21
REMARK    3  A    between atoms: C_14  and  C_15
REMARK    4  A    between atoms: C_21  and  C_22
REMARK                            x       y       z     vdW  Elec       q    Type
REMARK                         _______ _______ _______ _____ _____    ______ ____
ROOT
ATOM      1  O   UNL     1       1.967  11.154  18.247  0.00  0.00    +0.000 OA
ATOM      2  C   UNL     1       1.281  11.235  19.264  0.00  0.00    +0.000 C 
ATOM      3  C   UNL     1       0.938  10.195  20.200  0.00  0.00    +0.000 A 
ATOM      4  C   UNL     1       1.280   8.845  20.208  0.00  0.00    +0.000 A 
ATOM      5  C   UNL     1       0.783   8.068  21.267  0.00  0.00    +0.000 A 
ATOM      6  C   UNL     1      -0.024   8.621  22.279  0.00  0.00    +0.000 A 
ATOM      7  C   UNL     1      -0.357   9.987  22.247  0.00  0.00    +0.000 A 
ATOM      8  C   UNL     1      -1.148  10.681  23.176  0.00  0.00    +0.000 A 
ATOM      9  C   UNL     1      -1.388  12.057  23.009  0.00  0.00    +0.000 A 
ATOM     10  C   UNL     1      -0.860  12.781  21.925  0.00  0.00    +0.000 A 
ATOM     11  C   UNL     1      -0.086  12.067  21.010  0.00  0.00    +0.000 A 
ATOM     12  C   UNL     1       0.144  10.715  21.200  0.00  0.00    +0.000 A 
ATOM     13  C   UNL     1       0.609  12.583  19.744  0.00  0.00    +0.000 C 
ENDROOT
BRANCH  13  14
ATOM     14  C   UNL     1       1.694  13.614  20.144  0.00  0.00    +0.000 C 
BRANCH  14  15
ATOM     15  C   UNL     1       2.080  14.675  19.137  0.00  0.00    +0.000 A 
ATOM     16  C   UNL     1       1.467  15.932  19.138  0.00  0.00    +0.000 A 
ATOM     17  C   UNL     1       1.903  16.892  18.235  0.00  0.00    +0.000 A 
ATOM     18  N   UNL     1       2.897  16.691  17.346  0.00  0.00    +0.000 NA
ATOM     19  C   UNL     1       3.468  15.468  17.349  0.00  0.00    +0.000 A 
ATOM     20  C   UNL     1       3.098  14.443  18.208  0.00  0.00    +0.000 A 
ENDBRANCH  14  15
ENDBRANCH  13  14
BRANCH  13  21
ATOM     21  C   UNL     1      -0.393  13.113  18.698  0.00  0.00    +0.000 C 
BRANCH  21  22
ATOM     22  C   UNL     1      -1.583  12.241  18.364  0.00  0.00    +0.000 A 
ATOM     23  C   UNL     1      -1.479  11.163  17.483  0.00  0.00    +0.000 A 
ATOM     24  C   UNL     1      -2.594  10.365  17.271  0.00  0.00    +0.000 A 
ATOM     25  N   UNL     1      -3.789  10.564  17.867  0.00  0.00    +0.000 NA
ATOM     26  C   UNL     1      -3.876  11.621  18.701  0.00  0.00    +0.000 A 
ATOM     27  C   UNL     1      -2.820  12.479  18.971  0.00  0.00    +0.000 A 
ENDBRANCH  21  22
ENDBRANCH  13  21
TORSDOF 4
ENDMDL
MODEL 8
REMARK VINA RESULT:      -7.4      4.888      7.822
REMARK  Name = 
REMARK  4 active torsions:
REMARK  status: ('A' for Active; 'I' for Inactive)
REMARK    1  A    between atoms: C_13  and  C_14
REMARK    2  A    between atoms: C_13  and  C_21
REMARK    3  A    between atoms: C_14  and  C_15
REMARK    4  A    between atoms: C_21  and  C_22
REMARK                            x       y       z     vdW  Elec       q    Type
REMARK                         _______ _______ _______ _____ _____    ______ ____
ROOT
ATOM      1  O   UNL     1       2.187  11.088  17.853  0.00  0.00    +0.000 OA
ATOM      2  C   UNL     1       1.551  10.969  18.900  0.00  0.00    +0.000 C 
ATOM      3  C   UNL     1       1.357   9.788  19.702  0.00  0.00    +0.000 A 
ATOM      4  C   UNL     1       1.820   8.489  19.515  0.00  0.00    +0.000 A 
ATOM      5  C   UNL     1       1.454   7.536  20.480  0.00  0.00    +0.000 A 
ATOM      6  C   UNL     1       0.655   7.872  21.589  0.00  0.00    +0.000 A 
ATOM      7  C   UNL     1       0.198   9.191  21.754  0.00  0.00    +0.000 A 
ATOM      8  C   UNL     1      -0.602   9.679  22.799  0.00  0.00    +0.000 A 
ATOM      9  C   UNL     1      -0.975  11.034  22.829  0.00  0.00    +0.000 A 
ATOM     10  C   UNL     1      -0.575  11.941  21.831  0.00  0.00    +0.000 A 
ATOM     11  C   UNL     1       0.210  11.430  20.797  0.00  0.00    +0.000 A 
ATOM     12  C   UNL     1       0.573  10.094  20.794  0.00  0.00    +0.000 A 
ATOM     13  C   UNL     1       0.786  12.171  19.583  0.00  0.00    +0.000 C 
ENDROOT
BRANCH  13  14
ATOM     14  C   UNL     1       1.793  13.243  20.073  0.00  0.00    +0.000 C 
BRANCH  14  15
ATOM     15  C   UNL     1       2.096  14.411  19.160  0.00  0.00    +0.000 A 
ATOM     16  C   UNL     1       1.380  15.608  19.253  0.00  0.00    +0.000 A 
ATOM     17  C   UNL     1       1.741  16.671  18.437  0.00  0.00    +0.000 A 
ATOM     18  N   UNL     1       2.755  16.626  17.549  0.00  0.00    +0.000 NA
ATOM     19  C   UNL     1       3.427  15.458  17.462  0.00  0.00    +0.000 A 
ATOM     20  C   UNL     1       3.137  14.340  18.230  0.00  0.00    +0.000 A 
ENDBRANCH  14  15
ENDBRANCH  13  14
BRANCH  13  21
ATOM     21  C   UNL     1      -0.315  12.731  18.660  0.00  0.00    +0.000 C 
BRANCH  21  22
ATOM     22  C   UNL     1      -1.523  11.859  18.402  0.00  0.00    +0.000 A 
ATOM     23  C   UNL     1      -2.779  12.171  18.926  0.00  0.00    +0.000 A 
ATOM     24  C   UNL     1      -3.858  11.364  18.596  0.00  0.00    +0.000 A 
ATOM     25  N   UNL     1      -3.773  10.282  17.791  0.00  0.00    +0.000 NA
ATOM     26  C   UNL     1      -2.549   9.986  17.309  0.00  0.00    +0.000 A 
ATOM     27  C   UNL     1      -1.410  10.727  17.588  0.00  0.00    +0.000 A 
ENDBRANCH  21  22
ENDBRANCH  13  21
TORSDOF 4
ENDMDL
MODEL 9
REMARK VINA RESULT:      -7.4      2.191      5.595
REMARK  Name = 
REMARK  4 active torsions:
REMARK  status: ('A' for Active; 'I' for Inactive)
REMARK    1  A    between atoms: C_13  and  C_14
REMARK    2  A    between atoms: C_13  and  C_21
REMARK    3  A    between atoms: C_14  and  C_15
REMARK    4  A    between atoms: C_21  and  C_22
REMARK                            x       y       z     vdW  Elec       q    Type
REMARK                         _______ _______ _______ _____ _____    ______ ____
ROOT
ATOM      1  O   UNL     1       2.227   7.441  20.526  0.00  0.00    +0.000 OA
ATOM      2  C   UNL     1       2.369   6.448  19.815  0.00  0.00    +0.000 C 
ATOM      3  C   UNL     1       2.103   5.069  20.138  0.00  0.00    +0.000 A 
ATOM      4  C   UNL     1       1.627   4.498  21.314  0.00  0.00    +0.000 A 
ATOM      5  C   UNL     1       1.473   3.101  21.328  0.00  0.00    +0.000 A 
ATOM      6  C   UNL     1       1.783   2.309  20.207  0.00  0.00    +0.000 A 
ATOM      7  C   UNL     1       2.265   2.910  19.031  0.00  0.00    +0.000 A 
ATOM      8  C   UNL     1       2.618   2.260  17.839  0.00  0.00    +0.000 A 
ATOM      9  C   UNL     1       3.081   3.004  16.740  0.00  0.00    +0.000 A 
ATOM     10  C   UNL     1       3.213   4.404  16.787  0.00  0.00    +0.000 A 
ATOM     11  C   UNL     1       2.866   5.026  17.987  0.00  0.00    +0.000 A 
ATOM     12  C   UNL     1       2.403   4.274  19.053  0.00  0.00    +0.000 A 
ATOM     13  C   UNL     1       2.909   6.520  18.332  0.00  0.00    +0.000 C 
ENDROOT
BRANCH  13  14
ATOM     14  C   UNL     1       1.904   7.279  17.428  0.00  0.00    +0.000 C 
BRANCH  14  15
ATOM     15  C   UNL     1       1.544   8.702  17.794  0.00  0.00    +0.000 A 
ATOM     16  C   UNL     1       0.248   9.043  18.190  0.00  0.00    +0.000 A 
ATOM     17  C   UNL     1      -0.014  10.350  18.578  0.00  0.00    +0.000 A 
ATOM     18  N   UNL     1       0.915  11.327  18.602  0.00  0.00    +0.000 NA
ATOM     19  C   UNL     1       2.159  10.984  18.203  0.00  0.00    +0.000 A 
ATOM     20  C   UNL     1       2.515   9.708  17.792  0.00  0.00    +0.000 A 
ENDBRANCH  14  15
ENDBRANCH  13  14
BRANCH  13  21
ATOM     21  C   UNL     1       4.339   7.094  18.283  0.00  0.00    +0.000 C 
BRANCH  21  22
ATOM     22  C   UNL     1       5.429   6.213  17.712  0.00  0.00    +0.000 A 
ATOM     23  C   UNL     1       5.714   6.192  16.346  0.00  0.00    +0.000 A 
ATOM     24  C   UNL     1       6.769   5.411  15.897  0.00  0.00    +0.000 A 
ATOM     25  N   UNL     1       7.548   4.659  16.705  0.00  0.00    +0.000 NA
ATOM     26  C   UNL     1       7.245   4.677  18.019  0.00  0.00    +0.000 A 
ATOM     27  C   UNL     1       6.207   5.420  18.561  0.00  0.00    +0.000 A 
ENDBRANCH  21  22
ENDBRANCH  13  21
TORSDOF 4
ENDMDL
