MODEL 1
REMARK VINA RESULT:      -8.4      0.000      0.000
REMARK  Name = 
REMARK  3 active torsions:
REMARK  status: ('A' for Active; 'I' for Inactive)
REMARK    1  A    between atoms: C_1  and  C_2
REMARK    2  A    between atoms: C_5  and  C_6
REMARK    3  A    between atoms: C_14  and  C_15
REMARK                            x       y       z     vdW  Elec       q    Type
REMARK                         _______ _______ _______ _____ _____    ______ ____
ROOT
ATOM      1  C   UNL     1       3.184   5.988  17.769  0.00  0.00    +0.000 C 
ATOM      2  C   UNL     1       4.497   5.854  17.523  0.00  0.00    +0.000 C 
ATOM      3  C   UNL     1       5.535   6.873  17.896  0.00  0.00    +0.000 C 
ATOM      4  S   UNL     1       7.221   6.275  17.659  0.00  0.00    +0.000 S 
ATOM      5  O   UNL     1       8.085   7.027  18.547  0.00  0.00    +0.000 OA
ATOM      6  O   UNL     1       7.495   6.198  16.246  0.00  0.00    +0.000 OA
ATOM      7  O   UNL     1       7.119   4.753  18.249  0.00  0.00    +0.000 OA
ATOM      8  C   UNL     1       5.871   4.092  18.430  0.00  0.00    +0.000 C 
ATOM      9  C   UNL     1       4.859   4.416  17.322  0.00  0.00    +0.000 C 
ATOM     10  C   UNL     1       5.363   3.951  15.949  0.00  0.00    +0.000 C 
ATOM     11  O   UNL     1       3.623   3.730  17.562  0.00  0.00    +0.000 OA
ATOM     12  C   UNL     1       2.609   4.629  17.707  0.00  0.00    +0.000 C 
ATOM     13  O   UNL     1       1.436   4.339  17.848  0.00  0.00    +0.000 OA
ENDROOT
BRANCH   1  18
ATOM     14  C   UNL     1       0.489  10.400  20.386  0.00  0.00    +0.000 C 
ATOM     15  C   UNL     1       1.219   9.285  19.689  0.00  0.00    +0.000 A 
ATOM     16  C   UNL     1       1.497   9.339  18.318  0.00  0.00    +0.000 A 
ATOM     17  C   UNL     1       2.148   8.272  17.675  0.00  0.00    +0.000 A 
ATOM     18  C   UNL     1       2.514   7.131  18.396  0.00  0.00    +0.000 A 
ATOM     19  C   UNL     1       2.236   7.085  19.769  0.00  0.00    +0.000 A 
ATOM     20  C   UNL     1       1.597   8.151  20.411  0.00  0.00    +0.000 A 
ENDBRANCH   1  18
TORSDOF 1
ENDMDL
MODEL 2
REMARK VINA RESULT:      -8.3      0.084      1.080
REMARK  Name = 
REMARK  3 active torsions:
REMARK  status: ('A' for Active; 'I' for Inactive)
REMARK    1  A    between atoms: C_1  and  C_2
REMARK    2  A    between atoms: C_5  and  C_6
REMARK    3  A    between atoms: C_14  and  C_15
REMARK                            x       y       z     vdW  Elec       q    Type
REMARK                         _______ _______ _______ _____ _____    ______ ____
ROOT
ATOM      1  C   UNL     1       3.171   5.958  17.785  0.00  0.00    +0.000 C 
ATOM      2  C   UNL     1       4.482   5.830  17.528  0.00  0.00    +0.000 C 
ATOM      3  C   UNL     1       5.521   6.848  17.903  0.00  0.00    +0.000 C 
ATOM      4  S   UNL     1       7.206   6.256  17.649  0.00  0.00    +0.000 S 
ATOM      5  O   UNL     1       8.075   7.001  18.537  0.00  0.00    +0.000 OA
ATOM      6  O   UNL     1       7.470   6.191  16.233  0.00  0.00    +0.000 OA
ATOM      7  O   UNL     1       7.112   4.728  18.227  0.00  0.00    +0.000 OA
ATOM      8  C   UNL     1       5.866   4.063  18.411  0.00  0.00    +0.000 C 
ATOM      9  C   UNL     1       4.846   4.394  17.313  0.00  0.00    +0.000 C 
ATOM     10  C   UNL     1       5.341   3.942  15.933  0.00  0.00    +0.000 C 
ATOM     11  O   UNL     1       3.613   3.703  17.556  0.00  0.00    +0.000 OA
ATOM     12  C   UNL     1       2.599   4.599  17.715  0.00  0.00    +0.000 C 
ATOM     13  O   UNL     1       1.427   4.305  17.863  0.00  0.00    +0.000 OA
ENDROOT
BRANCH   1  18
ATOM     14  C   UNL     1       0.576  10.556  20.175  0.00  0.00    +0.000 C 
ATOM     15  C   UNL     1       1.218   9.336  19.575  0.00  0.00    +0.000 A 
ATOM     16  C   UNL     1       1.579   8.237  20.364  0.00  0.00    +0.000 A 
ATOM     17  C   UNL     1       2.212   7.120  19.793  0.00  0.00    +0.000 A 
ATOM     18  C   UNL     1       2.503   7.095  18.426  0.00  0.00    +0.000 A 
ATOM     19  C   UNL     1       2.135   8.196  17.640  0.00  0.00    +0.000 A 
ATOM     20  C   UNL     1       1.497   9.305  18.207  0.00  0.00    +0.000 A 
ENDBRANCH   1  18
TORSDOF 1
ENDMDL
MODEL 3
REMARK VINA RESULT:      -7.8      3.329      5.138
REMARK  Name = 
REMARK  3 active torsions:
REMARK  status: ('A' for Active; 'I' for Inactive)
REMARK    1  A    between atoms: C_1  and  C_2
REMARK    2  A    between atoms: C_5  and  C_6
REMARK    3  A    between atoms: C_14  and  C_15
REMARK                            x       y       z     vdW  Elec       q    Type
REMARK                         _______ _______ _______ _____ _____    ______ ____
ROOT
ATOM      1  C   UNL     1       5.396   4.573  17.736  0.00  0.00    +0.000 C 
ATOM      2  C   UNL     1       4.342   4.260  18.506  0.00  0.00    +0.000 C 
ATOM      3  C   UNL     1       3.806   5.135  19.603  0.00  0.00    +0.000 C 
ATOM      4  S   UNL     1       2.236   4.544  20.267  0.00  0.00    +0.000 S 
ATOM      5  O   UNL     1       1.543   5.680  20.841  0.00  0.00    +0.000 OA
ATOM      6  O   UNL     1       2.474   3.351  21.040  0.00  0.00    +0.000 OA
ATOM      7  O   UNL     1       1.437   4.123  18.903  0.00  0.00    +0.000 OA
ATOM      8  C   UNL     1       2.108   3.913  17.665  0.00  0.00    +0.000 C 
ATOM      9  C   UNL     1       3.477   3.239  17.837  0.00  0.00    +0.000 C 
ATOM     10  C   UNL     1       3.340   1.843  18.460  0.00  0.00    +0.000 C 
ATOM     11  O   UNL     1       4.106   3.060  16.561  0.00  0.00    +0.000 OA
ATOM     12  C   UNL     1       5.289   3.736  16.524  0.00  0.00    +0.000 C 
ATOM     13  O   UNL     1       6.077   3.711  15.598  0.00  0.00    +0.000 OA
ENDROOT
BRANCH   1  18
ATOM     14  C   UNL     1       8.777   9.250  18.265  0.00  0.00    +0.000 C 
ATOM     15  C   UNL     1       7.903   8.040  18.082  0.00  0.00    +0.000 A 
ATOM     16  C   UNL     1       6.784   8.067  17.241  0.00  0.00    +0.000 A 
ATOM     17  C   UNL     1       5.957   6.938  17.109  0.00  0.00    +0.000 A 
ATOM     18  C   UNL     1       6.234   5.773  17.830  0.00  0.00    +0.000 A 
ATOM     19  C   UNL     1       7.358   5.750  18.668  0.00  0.00    +0.000 A 
ATOM     20  C   UNL     1       8.186   6.871  18.791  0.00  0.00    +0.000 A 
ENDBRANCH   1  18
TORSDOF 1
ENDMDL
MODEL 4
REMARK VINA RESULT:      -7.8      3.351      5.222
REMARK  Name = 
REMARK  3 active torsions:
REMARK  status: ('A' for Active; 'I' for Inactive)
REMARK    1  A    between atoms: C_1  and  C_2
REMARK    2  A    between atoms: C_5  and  C_6
REMARK    3  A    between atoms: C_14  and  C_15
REMARK                            x       y       z     vdW  Elec       q    Type
REMARK                         _______ _______ _______ _____ _____    ______ ____
ROOT
ATOM      1  C   UNL     1       5.431   4.564  17.729  0.00  0.00    +0.000 C 
ATOM      2  C   UNL     1       4.373   4.236  18.488  0.00  0.00    +0.000 C 
ATOM      3  C   UNL     1       3.845   5.081  19.612  0.00  0.00    +0.000 C 
ATOM      4  S   UNL     1       2.268   4.484  20.255  0.00  0.00    +0.000 S 
ATOM      5  O   UNL     1       1.586   5.609  20.865  0.00  0.00    +0.000 OA
ATOM      6  O   UNL     1       2.494   3.266  20.991  0.00  0.00    +0.000 OA
ATOM      7  O   UNL     1       1.466   4.115  18.878  0.00  0.00    +0.000 OA
ATOM      8  C   UNL     1       2.137   3.938  17.635  0.00  0.00    +0.000 C 
ATOM      9  C   UNL     1       3.499   3.245  17.786  0.00  0.00    +0.000 C 
ATOM     10  C   UNL     1       3.348   1.832  18.364  0.00  0.00    +0.000 C 
ATOM     11  O   UNL     1       4.128   3.102  16.506  0.00  0.00    +0.000 OA
ATOM     12  C   UNL     1       5.317   3.767  16.492  0.00  0.00    +0.000 C 
ATOM     13  O   UNL     1       6.106   3.763  15.565  0.00  0.00    +0.000 OA
ENDROOT
BRANCH   1  18
ATOM     14  C   UNL     1       8.716   9.323  18.101  0.00  0.00    +0.000 C 
ATOM     15  C   UNL     1       7.862   8.086  18.051  0.00  0.00    +0.000 A 
ATOM     16  C   UNL     1       8.203   6.933  18.768  0.00  0.00    +0.000 A 
ATOM     17  C   UNL     1       7.413   5.774  18.681  0.00  0.00    +0.000 A 
ATOM     18  C   UNL     1       6.280   5.751  17.862  0.00  0.00    +0.000 A 
ATOM     19  C   UNL     1       5.942   6.910  17.150  0.00  0.00    +0.000 A 
ATOM     20  C   UNL     1       6.723   8.067  17.243  0.00  0.00    +0.000 A 
ENDBRANCH   1  18
TORSDOF 1
ENDMDL
MODEL 5
REMARK VINA RESULT:      -7.6      1.018      1.025
REMARK  Name = 
REMARK  3 active torsions:
REMARK  status: ('A' for Active; 'I' for Inactive)
REMARK    1  A    between atoms: C_1  and  C_2
REMARK    2  A    between atoms: C_5  and  C_6
REMARK    3  A    between atoms: C_14  and  C_15
REMARK                            x       y       z     vdW  Elec       q    Type
REMARK                         _______ _______ _______ _____ _____    ______ ____
ROOT
ATOM      1  C   UNL     1       2.836   6.131  18.466  0.00  0.00    +0.000 C 
ATOM      2  C   UNL     1       4.029   5.959  17.874  0.00  0.00    +0.000 C 
ATOM      3  C   UNL     1       4.943   7.083  17.472  0.00  0.00    +0.000 C 
ATOM      4  S   UNL     1       6.568   6.507  16.941  0.00  0.00    +0.000 S 
ATOM      5  O   UNL     1       7.508   7.592  17.143  0.00  0.00    +0.000 OA
ATOM      6  O   UNL     1       6.441   5.864  15.658  0.00  0.00    +0.000 OA
ATOM      7  O   UNL     1       6.897   5.362  18.062  0.00  0.00    +0.000 OA
ATOM      8  C   UNL     1       5.881   4.785  18.877  0.00  0.00    +0.000 C 
ATOM      9  C   UNL     1       4.558   4.583  18.126  0.00  0.00    +0.000 C 
ATOM     10  C   UNL     1       4.724   3.613  16.948  0.00  0.00    +0.000 C 
ATOM     11  O   UNL     1       3.575   4.008  18.998  0.00  0.00    +0.000 OA
ATOM     12  C   UNL     1       2.507   4.846  19.114  0.00  0.00    +0.000 C 
ATOM     13  O   UNL     1       1.488   4.594  19.730  0.00  0.00    +0.000 OA
ENDROOT
BRANCH   1  18
ATOM     14  C   UNL     1       0.223  11.093  19.927  0.00  0.00    +0.000 C 
ATOM     15  C   UNL     1       0.932   9.829  19.523  0.00  0.00    +0.000 A 
ATOM     16  C   UNL     1       1.206   9.542  18.181  0.00  0.00    +0.000 A 
ATOM     17  C   UNL     1       1.836   8.340  17.817  0.00  0.00    +0.000 A 
ATOM     18  C   UNL     1       2.187   7.403  18.794  0.00  0.00    +0.000 A 
ATOM     19  C   UNL     1       1.915   7.698  20.138  0.00  0.00    +0.000 A 
ATOM     20  C   UNL     1       1.295   8.899  20.500  0.00  0.00    +0.000 A 
ENDBRANCH   1  18
TORSDOF 1
ENDMDL
MODEL 6
REMARK VINA RESULT:      -7.5      2.216      3.944
REMARK  Name = 
REMARK  3 active torsions:
REMARK  status: ('A' for Active; 'I' for Inactive)
REMARK    1  A    between atoms: C_1  and  C_2
REMARK    2  A    between atoms: C_5  and  C_6
REMARK    3  A    between atoms: C_14  and  C_15
REMARK                            x       y       z     vdW  Elec       q    Type
REMARK                         _______ _______ _______ _____ _____    ______ ____
ROOT
ATOM      1  C   UNL     1       3.265   6.308  18.603  0.00  0.00    +0.000 C 
ATOM      2  C   UNL     1       2.935   5.017  18.765  0.00  0.00    +0.000 C 
ATOM      3  C   UNL     1       1.566   4.537  19.158  0.00  0.00    +0.000 C 
ATOM      4  S   UNL     1       1.391   2.746  19.037  0.00  0.00    +0.000 S 
ATOM      5  O   UNL     1      -0.017   2.451  18.854  0.00  0.00    +0.000 OA
ATOM      6  O   UNL     1       2.146   2.129  20.098  0.00  0.00    +0.000 OA
ATOM      7  O   UNL     1       2.143   2.433  17.618  0.00  0.00    +0.000 OA
ATOM      8  C   UNL     1       3.032   3.365  17.011  0.00  0.00    +0.000 C 
ATOM      9  C   UNL     1       3.888   4.126  18.034  0.00  0.00    +0.000 C 
ATOM     10  C   UNL     1       4.790   3.172  18.830  0.00  0.00    +0.000 C 
ATOM     11  O   UNL     1       4.756   5.051  17.365  0.00  0.00    +0.000 OA
ATOM     12  C   UNL     1       4.488   6.322  17.775  0.00  0.00    +0.000 C 
ATOM     13  O   UNL     1       5.111   7.310  17.434  0.00  0.00    +0.000 OA
ENDROOT
BRANCH   1  18
ATOM     14  C   UNL     1      -0.207  10.847  19.565  0.00  0.00    +0.000 C 
ATOM     15  C   UNL     1       0.723   9.697  19.292  0.00  0.00    +0.000 A 
ATOM     16  C   UNL     1       1.174   9.412  17.998  0.00  0.00    +0.000 A 
ATOM     17  C   UNL     1       2.014   8.312  17.755  0.00  0.00    +0.000 A 
ATOM     18  C   UNL     1       2.400   7.474  18.806  0.00  0.00    +0.000 A 
ATOM     19  C   UNL     1       1.949   7.766  20.101  0.00  0.00    +0.000 A 
ATOM     20  C   UNL     1       1.120   8.867  20.343  0.00  0.00    +0.000 A 
ENDBRANCH   1  18
TORSDOF 1
ENDMDL
MODEL 7
REMARK VINA RESULT:      -7.5      2.221      4.086
REMARK  Name = 
REMARK  3 active torsions:
REMARK  status: ('A' for Active; 'I' for Inactive)
REMARK    1  A    between atoms: C_1  and  C_2
REMARK    2  A    between atoms: C_5  and  C_6
REMARK    3  A    between atoms: C_14  and  C_15
REMARK                            x       y       z     vdW  Elec       q    Type
REMARK                         _______ _______ _______ _____ _____    ______ ____
ROOT
ATOM      1  C   UNL     1       3.274   6.271  18.624  0.00  0.00    +0.000 C 
ATOM      2  C   UNL     1       2.944   4.978  18.774  0.00  0.00    +0.000 C 
ATOM      3  C   UNL     1       1.582   4.495  19.187  0.00  0.00    +0.000 C 
ATOM      4  S   UNL     1       1.401   2.706  19.044  0.00  0.00    +0.000 S 
ATOM      5  O   UNL     1      -0.011   2.416  18.885  0.00  0.00    +0.000 OA
ATOM      6  O   UNL     1       2.176   2.073  20.082  0.00  0.00    +0.000 OA
ATOM      7  O   UNL     1       2.125   2.412  17.607  0.00  0.00    +0.000 OA
ATOM      8  C   UNL     1       3.004   3.351  16.996  0.00  0.00    +0.000 C 
ATOM      9  C   UNL     1       3.881   4.096  18.012  0.00  0.00    +0.000 C 
ATOM     10  C   UNL     1       4.796   3.130  18.777  0.00  0.00    +0.000 C 
ATOM     11  O   UNL     1       4.737   5.029  17.340  0.00  0.00    +0.000 OA
ATOM     12  C   UNL     1       4.480   6.295  17.772  0.00  0.00    +0.000 C 
ATOM     13  O   UNL     1       5.099   7.286  17.433  0.00  0.00    +0.000 OA
ENDROOT
BRANCH   1  18
ATOM     14  C   UNL     1      -0.065  10.944  19.397  0.00  0.00    +0.000 C 
ATOM     15  C   UNL     1       0.770   9.706  19.220  0.00  0.00    +0.000 A 
ATOM     16  C   UNL     1       1.122   8.899  20.308  0.00  0.00    +0.000 A 
ATOM     17  C   UNL     1       1.934   7.766  20.130  0.00  0.00    +0.000 A 
ATOM     18  C   UNL     1       2.415   7.435  18.860  0.00  0.00    +0.000 A 
ATOM     19  C   UNL     1       2.057   8.245  17.773  0.00  0.00    +0.000 A 
ATOM     20  C   UNL     1       1.241   9.368  17.949  0.00  0.00    +0.000 A 
ENDBRANCH   1  18
TORSDOF 1
ENDMDL
MODEL 8
REMARK VINA RESULT:      -7.4      2.401      4.183
REMARK  Name = 
REMARK  3 active torsions:
REMARK  status: ('A' for Active; 'I' for Inactive)
REMARK    1  A    between atoms: C_1  and  C_2
REMARK    2  A    between atoms: C_5  and  C_6
REMARK    3  A    between atoms: C_14  and  C_15
REMARK                            x       y       z     vdW  Elec       q    Type
REMARK                         _______ _______ _______ _____ _____    ______ ____
ROOT
ATOM      1  C   UNL     1       3.644   5.655  19.128  0.00  0.00    +0.000 C 
ATOM      2  C   UNL     1       3.129   4.418  19.220  0.00  0.00    +0.000 C 
ATOM      3  C   UNL     1       1.662   4.105  19.133  0.00  0.00    +0.000 C 
ATOM      4  S   UNL     1       1.329   2.335  19.035  0.00  0.00    +0.000 S 
ATOM      5  O   UNL     1       0.043   2.162  18.388  0.00  0.00    +0.000 OA
ATOM      6  O   UNL     1       1.601   1.735  20.317  0.00  0.00    +0.000 OA
ATOM      7  O   UNL     1       2.476   1.839  17.980  0.00  0.00    +0.000 OA
ATOM      8  C   UNL     1       3.622   2.630  17.679  0.00  0.00    +0.000 C 
ATOM      9  C   UNL     1       4.162   3.384  18.902  0.00  0.00    +0.000 C 
ATOM     10  C   UNL     1       4.621   2.416  20.001  0.00  0.00    +0.000 C 
ATOM     11  O   UNL     1       5.307   4.166  18.537  0.00  0.00    +0.000 OA
ATOM     12  C   UNL     1       5.067   5.486  18.775  0.00  0.00    +0.000 C 
ATOM     13  O   UNL     1       5.881   6.379  18.630  0.00  0.00    +0.000 OA
ENDROOT
BRANCH   1  18
ATOM     14  C   UNL     1       0.619  10.574  18.644  0.00  0.00    +0.000 C 
ATOM     15  C   UNL     1       1.441   9.320  18.753  0.00  0.00    +0.000 A 
ATOM     16  C   UNL     1       2.189   8.839  17.672  0.00  0.00    +0.000 A 
ATOM     17  C   UNL     1       2.923   7.645  17.780  0.00  0.00    +0.000 A 
ATOM     18  C   UNL     1       2.905   6.911  18.969  0.00  0.00    +0.000 A 
ATOM     19  C   UNL     1       2.157   7.399  20.050  0.00  0.00    +0.000 A 
ATOM     20  C   UNL     1       1.434   8.592  19.946  0.00  0.00    +0.000 A 
ENDBRANCH   1  18
TORSDOF 1
ENDMDL
MODEL 9
REMARK VINA RESULT:      -7.3      0.951      1.004
REMARK  Name = 
REMARK  3 active torsions:
REMARK  status: ('A' for Active; 'I' for Inactive)
REMARK    1  A    between atoms: C_1  and  C_2
REMARK    2  A    between atoms: C_5  and  C_6
REMARK    3  A    between atoms: C_14  and  C_15
REMARK                            x       y       z     vdW  Elec       q    Type
REMARK                         _______ _______ _______ _____ _____    ______ ____
ROOT
ATOM      1  C   UNL     1       2.858   5.857  17.991  0.00  0.00    +0.000 C 
ATOM      2  C   UNL     1       4.139   5.459  18.043  0.00  0.00    +0.000 C 
ATOM      3  C   UNL     1       5.213   6.165  18.822  0.00  0.00    +0.000 C 
ATOM      4  S   UNL     1       6.755   5.232  18.892  0.00  0.00    +0.000 S 
ATOM      5  O   UNL     1       7.476   5.658  20.075  0.00  0.00    +0.000 OA
ATOM      6  O   UNL     1       7.378   5.260  17.593  0.00  0.00    +0.000 OA
ATOM      7  O   UNL     1       6.213   3.714  19.171  0.00  0.00    +0.000 OA
ATOM      8  C   UNL     1       4.860   3.337  18.935  0.00  0.00    +0.000 C 
ATOM      9  C   UNL     1       4.262   4.010  17.691  0.00  0.00    +0.000 C 
ATOM     10  C   UNL     1       5.019   3.607  16.418  0.00  0.00    +0.000 C 
ATOM     11  O   UNL     1       2.901   3.599  17.509  0.00  0.00    +0.000 OA
ATOM     12  C   UNL     1       2.075   4.681  17.562  0.00  0.00    +0.000 C 
ATOM     13  O   UNL     1       0.874   4.650  17.369  0.00  0.00    +0.000 OA
ENDROOT
BRANCH   1  18
ATOM     14  C   UNL     1       0.491  10.433  20.645  0.00  0.00    +0.000 C 
ATOM     15  C   UNL     1       1.138   9.273  19.939  0.00  0.00    +0.000 A 
ATOM     16  C   UNL     1       1.440   9.325  18.573  0.00  0.00    +0.000 A 
ATOM     17  C   UNL     1       2.011   8.219  17.921  0.00  0.00    +0.000 A 
ATOM     18  C   UNL     1       2.274   7.041  18.627  0.00  0.00    +0.000 A 
ATOM     19  C   UNL     1       1.973   6.996  19.996  0.00  0.00    +0.000 A 
ATOM     20  C   UNL     1       1.413   8.101  20.647  0.00  0.00    +0.000 A 
ENDBRANCH   1  18
TORSDOF 1
ENDMDL
