MODEL 1
REMARK VINA RESULT:      -7.7      0.000      0.000
REMARK  Name = 
REMARK  12 active torsions:
REMARK  status: ('A' for Active; 'I' for Inactive)
REMARK    1  A    between atoms: C_1  and  C_2
REMARK    2  A    between atoms: C_2  and  C_3
REMARK    3  A    between atoms: C_2  and  C_4
REMARK    4  A    between atoms: C_4  and  N_5
REMARK    5  A    between atoms: C_6  and  N_7
REMARK    6  A    between atoms: C_8  and  C_9
REMARK    7  A    between atoms: C_9  and  C_11
REMARK    8  A    between atoms: C_11  and  S_12
REMARK    9  A    between atoms: S_12  and  C_13
REMARK   10  A    between atoms: C_16  and  C_17
REMARK   11  A    between atoms: N_22  and  C_23
REMARK   12  A    between atoms: N_26  and  C_27
REMARK                            x       y       z     vdW  Elec       q    Type
REMARK                         _______ _______ _______ _____ _____    ______ ____
ROOT
ATOM      1  N   UNL     1       4.880   5.103  18.558  0.00  0.00    +0.000 N 
ATOM      2  C   UNL     1       4.107   6.239  18.303  0.00  0.00    +0.000 A 
ATOM      3  C   UNL     1       2.942   6.429  18.976  0.00  0.00    +0.000 A 
ATOM      4  C   UNL     1       2.463   5.353  19.882  0.00  0.00    +0.000 A 
ATOM      5  O   UNL     1       1.403   5.485  20.490  0.00  0.00    +0.000 OA
ATOM      6  N   UNL     1       3.232   4.216  19.987  0.00  0.00    +0.000 N 
ATOM      7  C   UNL     1       2.772   3.116  20.816  0.00  0.00    +0.000 C 
ATOM      8  C   UNL     1       4.474   4.070  19.401  0.00  0.00    +0.000 A 
ATOM      9  O   UNL     1       5.176   3.079  19.617  0.00  0.00    +0.000 OA
ENDROOT
BRANCH   2  10
ATOM     10  N   UNL     1       4.559   7.149  17.355  0.00  0.00    +0.000 N 
ATOM     11  H   UNL     1       4.991   6.734  16.542  0.00  0.00    +0.000 HD
ATOM     12  H   UNL     1       5.179   7.867  17.755  0.00  0.00    +0.000 HD
ENDBRANCH   2  10
BRANCH   3  13
ATOM     13  C   UNL     1       2.168   7.729  18.801  0.00  0.00    +0.000 C 
ATOM     14  O   UNL     1       1.950   8.159  17.657  0.00  0.00    +0.000 OA
BRANCH  13  15
ATOM     15  C   UNL     1       1.684   8.493  20.029  0.00  0.00    +0.000 C 
BRANCH  15  16
ATOM     16  S   UNL     1       0.767  10.015  19.593  0.00  0.00    +0.000 S 
BRANCH  16  17
ATOM     17  C   UNL     1       0.125  10.487  21.130  0.00  0.00    +0.000 A 
ATOM     18  N   UNL     1       0.506  10.041  22.303  0.00  0.00    +0.000 NA
ATOM     19  N   UNL     1      -0.279  10.657  23.254  0.00  0.00    +0.000 NA
ATOM     20  C   UNL     1      -1.139  11.443  22.632  0.00  0.00    +0.000 A 
ATOM     21  N   UNL     1      -0.889  11.399  21.282  0.00  0.00    +0.000 N 
ATOM     22  C   UNL     1      -1.481  12.207  20.250  0.00  0.00    +0.000 C 
BRANCH  20  23
ATOM     23  C   UNL     1      -2.152  12.212  23.290  0.00  0.00    +0.000 A 
ATOM     24  C   UNL     1      -2.107  13.546  23.662  0.00  0.00    +0.000 A 
ATOM     25  C   UNL     1      -3.338  13.852  24.290  0.00  0.00    +0.000 A 
ATOM     26  C   UNL     1      -4.064  12.687  24.284  0.00  0.00    +0.000 A 
ATOM     27  O   UNL     1      -3.363  11.695  23.679  0.00  0.00    +0.000 OA
ENDBRANCH  20  23
ENDBRANCH  16  17
ENDBRANCH  15  16
ENDBRANCH  13  15
ENDBRANCH   3  13
BRANCH   1  28
ATOM     28  C   UNL     1       6.218   4.954  17.958  0.00  0.00    +0.000 C 
BRANCH  28  30
ATOM     29  C   UNL     1       4.762   3.888  16.202  0.00  0.00    +0.000 C 
ATOM     30  C   UNL     1       6.206   4.165  16.625  0.00  0.00    +0.000 C 
ATOM     31  C   UNL     1       6.934   4.869  15.476  0.00  0.00    +0.000 C 
ENDBRANCH  28  30
ENDBRANCH   1  28
TORSDOF 8
ENDMDL
MODEL 2
REMARK VINA RESULT:      -7.6      0.657      1.197
REMARK  Name = 
REMARK  12 active torsions:
REMARK  status: ('A' for Active; 'I' for Inactive)
REMARK    1  A    between atoms: C_1  and  C_2
REMARK    2  A    between atoms: C_2  and  C_3
REMARK    3  A    between atoms: C_2  and  C_4
REMARK    4  A    between atoms: C_4  and  N_5
REMARK    5  A    between atoms: C_6  and  N_7
REMARK    6  A    between atoms: C_8  and  C_9
REMARK    7  A    between atoms: C_9  and  C_11
REMARK    8  A    between atoms: C_11  and  S_12
REMARK    9  A    between atoms: S_12  and  C_13
REMARK   10  A    between atoms: C_16  and  C_17
REMARK   11  A    between atoms: N_22  and  C_23
REMARK   12  A    between atoms: N_26  and  C_27
REMARK                            x       y       z     vdW  Elec       q    Type
REMARK                         _______ _______ _______ _____ _____    ______ ____
ROOT
ATOM      1  N   UNL     1       4.740   4.832  18.321  0.00  0.00    +0.000 N 
ATOM      2  C   UNL     1       3.972   5.973  18.074  0.00  0.00    +0.000 A 
ATOM      3  C   UNL     1       2.899   6.249  18.861  0.00  0.00    +0.000 A 
ATOM      4  C   UNL     1       2.502   5.254  19.891  0.00  0.00    +0.000 A 
ATOM      5  O   UNL     1       1.523   5.464  20.606  0.00  0.00    +0.000 OA
ATOM      6  N   UNL     1       3.248   4.102  19.990  0.00  0.00    +0.000 N 
ATOM      7  C   UNL     1       2.860   3.078  20.944  0.00  0.00    +0.000 C 
ATOM      8  C   UNL     1       4.409   3.874  19.278  0.00  0.00    +0.000 A 
ATOM      9  O   UNL     1       5.106   2.877  19.483  0.00  0.00    +0.000 OA
ENDROOT
BRANCH   2  10
ATOM     10  N   UNL     1       4.333   6.799  17.017  0.00  0.00    +0.000 N 
ATOM     11  H   UNL     1       4.585   7.741  17.283  0.00  0.00    +0.000 HD
ATOM     12  H   UNL     1       3.627   6.822  16.269  0.00  0.00    +0.000 HD
ENDBRANCH   2  10
BRANCH   3  13
ATOM     13  C   UNL     1       2.143   7.558  18.681  0.00  0.00    +0.000 C 
ATOM     14  O   UNL     1       1.806   7.917  17.541  0.00  0.00    +0.000 OA
BRANCH  13  15
ATOM     15  C   UNL     1       1.823   8.420  19.898  0.00  0.00    +0.000 C 
BRANCH  15  16
ATOM     16  S   UNL     1       0.925   9.953  19.457  0.00  0.00    +0.000 S 
BRANCH  16  17
ATOM     17  C   UNL     1       0.299  10.444  20.994  0.00  0.00    +0.000 A 
ATOM     18  N   UNL     1       0.678   9.997  22.169  0.00  0.00    +0.000 NA
ATOM     19  N   UNL     1      -0.092  10.632  23.120  0.00  0.00    +0.000 NA
ATOM     20  C   UNL     1      -0.940  11.430  22.497  0.00  0.00    +0.000 A 
ATOM     21  N   UNL     1      -0.698  11.374  21.146  0.00  0.00    +0.000 N 
ATOM     22  C   UNL     1      -1.280  12.188  20.113  0.00  0.00    +0.000 C 
BRANCH  20  23
ATOM     23  C   UNL     1      -1.936  12.220  23.156  0.00  0.00    +0.000 A 
ATOM     24  C   UNL     1      -1.857  13.549  23.541  0.00  0.00    +0.000 A 
ATOM     25  C   UNL     1      -3.084  13.884  24.164  0.00  0.00    +0.000 A 
ATOM     26  C   UNL     1      -3.842  12.739  24.142  0.00  0.00    +0.000 A 
ATOM     27  O   UNL     1      -3.164  11.734  23.533  0.00  0.00    +0.000 OA
ENDBRANCH  20  23
ENDBRANCH  16  17
ENDBRANCH  15  16
ENDBRANCH  13  15
ENDBRANCH   3  13
BRANCH   1  28
ATOM     28  C   UNL     1       5.994   4.596  17.584  0.00  0.00    +0.000 C 
BRANCH  28  30
ATOM     29  C   UNL     1       7.443   6.650  17.442  0.00  0.00    +0.000 C 
ATOM     30  C   UNL     1       7.211   5.337  18.192  0.00  0.00    +0.000 C 
ATOM     31  C   UNL     1       7.077   5.636  19.687  0.00  0.00    +0.000 C 
ENDBRANCH  28  30
ENDBRANCH   1  28
TORSDOF 8
ENDMDL
MODEL 3
REMARK VINA RESULT:      -7.5      4.097     10.028
REMARK  Name = 
REMARK  12 active torsions:
REMARK  status: ('A' for Active; 'I' for Inactive)
REMARK    1  A    between atoms: C_1  and  C_2
REMARK    2  A    between atoms: C_2  and  C_3
REMARK    3  A    between atoms: C_2  and  C_4
REMARK    4  A    between atoms: C_4  and  N_5
REMARK    5  A    between atoms: C_6  and  N_7
REMARK    6  A    between atoms: C_8  and  C_9
REMARK    7  A    between atoms: C_9  and  C_11
REMARK    8  A    between atoms: C_11  and  S_12
REMARK    9  A    between atoms: S_12  and  C_13
REMARK   10  A    between atoms: C_16  and  C_17
REMARK   11  A    between atoms: N_22  and  C_23
REMARK   12  A    between atoms: N_26  and  C_27
REMARK                            x       y       z     vdW  Elec       q    Type
REMARK                         _______ _______ _______ _____ _____    ______ ____
ROOT
ATOM      1  N   UNL     1       2.596   6.043  19.914  0.00  0.00    +0.000 N 
ATOM      2  C   UNL     1       3.501   5.945  18.854  0.00  0.00    +0.000 A 
ATOM      3  C   UNL     1       3.696   7.009  18.032  0.00  0.00    +0.000 A 
ATOM      4  C   UNL     1       2.844   8.212  18.215  0.00  0.00    +0.000 A 
ATOM      5  O   UNL     1       2.982   9.184  17.474  0.00  0.00    +0.000 OA
ATOM      6  N   UNL     1       1.897   8.180  19.213  0.00  0.00    +0.000 N 
ATOM      7  C   UNL     1       1.004   9.312  19.389  0.00  0.00    +0.000 C 
ATOM      8  C   UNL     1       1.778   7.152  20.127  0.00  0.00    +0.000 A 
ATOM      9  O   UNL     1       0.990   7.219  21.075  0.00  0.00    +0.000 OA
ENDROOT
BRANCH   2  10
ATOM     10  N   UNL     1       4.180   4.747  18.671  0.00  0.00    +0.000 N 
ATOM     11  H   UNL     1       5.176   4.842  18.529  0.00  0.00    +0.000 HD
ATOM     12  H   UNL     1       3.772   4.167  17.924  0.00  0.00    +0.000 HD
ENDBRANCH   2  10
BRANCH   3  13
ATOM     13  C   UNL     1       4.779   6.952  16.962  0.00  0.00    +0.000 C 
ATOM     14  O   UNL     1       4.457   6.765  15.777  0.00  0.00    +0.000 OA
BRANCH  13  15
ATOM     15  C   UNL     1       6.244   7.108  17.359  0.00  0.00    +0.000 C 
BRANCH  15  16
ATOM     16  S   UNL     1       7.151   5.519  17.336  0.00  0.00    +0.000 S 
BRANCH  16  17
ATOM     17  C   UNL     1       7.138   5.135  15.648  0.00  0.00    +0.000 A 
ATOM     18  N   UNL     1       7.901   5.668  14.723  0.00  0.00    +0.000 NA
ATOM     19  N   UNL     1       7.548   5.098  13.518  0.00  0.00    +0.000 NA
ATOM     20  C   UNL     1       6.559   4.251  13.738  0.00  0.00    +0.000 A 
ATOM     21  N   UNL     1       6.296   4.211  15.085  0.00  0.00    +0.000 N 
ATOM     22  C   UNL     1       5.406   3.321  15.783  0.00  0.00    +0.000 C 
BRANCH  20  23
ATOM     23  C   UNL     1       5.895   3.503  12.714  0.00  0.00    +0.000 A 
ATOM     24  C   UNL     1       6.396   2.455  11.959  0.00  0.00    +0.000 A 
ATOM     25  C   UNL     1       5.373   2.046  11.069  0.00  0.00    +0.000 A 
ATOM     26  C   UNL     1       4.307   2.876  11.314  0.00  0.00    +0.000 A 
ATOM     27  O   UNL     1       4.608   3.752  12.306  0.00  0.00    +0.000 OA
ENDBRANCH  20  23
ENDBRANCH  16  17
ENDBRANCH  15  16
ENDBRANCH  13  15
ENDBRANCH   3  13
BRANCH   1  28
ATOM     28  C   UNL     1       2.483   4.961  20.909  0.00  0.00    +0.000 C 
BRANCH  28  30
ATOM     29  C   UNL     1       1.097   3.753  19.189  0.00  0.00    +0.000 C 
ATOM     30  C   UNL     1       1.254   4.047  20.683  0.00  0.00    +0.000 C 
ATOM     31  C   UNL     1       1.312   2.721  21.446  0.00  0.00    +0.000 C 
ENDBRANCH  28  30
ENDBRANCH   1  28
TORSDOF 8
ENDMDL
MODEL 4
REMARK VINA RESULT:      -7.5      3.186      4.775
REMARK  Name = 
REMARK  12 active torsions:
REMARK  status: ('A' for Active; 'I' for Inactive)
REMARK    1  A    between atoms: C_1  and  C_2
REMARK    2  A    between atoms: C_2  and  C_3
REMARK    3  A    between atoms: C_2  and  C_4
REMARK    4  A    between atoms: C_4  and  N_5
REMARK    5  A    between atoms: C_6  and  N_7
REMARK    6  A    between atoms: C_8  and  C_9
REMARK    7  A    between atoms: C_9  and  C_11
REMARK    8  A    between atoms: C_11  and  S_12
REMARK    9  A    between atoms: S_12  and  C_13
REMARK   10  A    between atoms: C_16  and  C_17
REMARK   11  A    between atoms: N_22  and  C_23
REMARK   12  A    between atoms: N_26  and  C_27
REMARK                            x       y       z     vdW  Elec       q    Type
REMARK                         _______ _______ _______ _____ _____    ______ ____
ROOT
ATOM      1  N   UNL     1       3.097   5.255  19.416  0.00  0.00    +0.000 N 
ATOM      2  C   UNL     1       2.415   6.417  19.783  0.00  0.00    +0.000 A 
ATOM      3  C   UNL     1       2.417   7.493  18.953  0.00  0.00    +0.000 A 
ATOM      4  C   UNL     1       3.253   7.440  17.726  0.00  0.00    +0.000 A 
ATOM      5  O   UNL     1       3.293   8.405  16.965  0.00  0.00    +0.000 OA
ATOM      6  N   UNL     1       3.985   6.297  17.500  0.00  0.00    +0.000 N 
ATOM      7  C   UNL     1       4.860   6.225  16.342  0.00  0.00    +0.000 C 
ATOM      8  C   UNL     1       3.891   5.157  18.274  0.00  0.00    +0.000 A 
ATOM      9  O   UNL     1       4.480   4.117  17.965  0.00  0.00    +0.000 OA
ENDROOT
BRANCH   2  10
ATOM     10  N   UNL     1       1.749   6.437  21.002  0.00  0.00    +0.000 N 
ATOM     11  H   UNL     1       2.187   5.895  21.733  0.00  0.00    +0.000 HD
ATOM     12  H   UNL     1       0.756   6.177  20.919  0.00  0.00    +0.000 HD
ENDBRANCH   2  10
BRANCH   3  13
ATOM     13  C   UNL     1       1.563   8.709  19.287  0.00  0.00    +0.000 C 
ATOM     14  O   UNL     1       1.274   8.946  20.471  0.00  0.00    +0.000 OA
BRANCH  13  15
ATOM     15  C   UNL     1       1.063   9.613  18.164  0.00  0.00    +0.000 C 
BRANCH  15  16
ATOM     16  S   UNL     1       0.154  11.073  18.790  0.00  0.00    +0.000 S 
BRANCH  16  17
ATOM     17  C   UNL     1      -1.431  10.797  18.149  0.00  0.00    +0.000 A 
ATOM     18  N   UNL     1      -1.746   9.970  17.180  0.00  0.00    +0.000 NA
ATOM     19  N   UNL     1      -3.104  10.080  16.970  0.00  0.00    +0.000 NA
ATOM     20  C   UNL     1      -3.577  10.992  17.799  0.00  0.00    +0.000 A 
ATOM     21  N   UNL     1      -2.554  11.443  18.598  0.00  0.00    +0.000 N 
ATOM     22  C   UNL     1      -2.646  12.322  19.733  0.00  0.00    +0.000 C 
BRANCH  20  23
ATOM     23  C   UNL     1      -4.944  11.415  17.839  0.00  0.00    +0.000 A 
ATOM     24  C   UNL     1      -5.980  10.888  18.594  0.00  0.00    +0.000 A 
ATOM     25  C   UNL     1      -7.147  11.629  18.288  0.00  0.00    +0.000 A 
ATOM     26  C   UNL     1      -6.768  12.558  17.350  0.00  0.00    +0.000 A 
ATOM     27  O   UNL     1      -5.444  12.442  17.078  0.00  0.00    +0.000 OA
ENDBRANCH  20  23
ENDBRANCH  16  17
ENDBRANCH  15  16
ENDBRANCH  13  15
ENDBRANCH   3  13
BRANCH   1  28
ATOM     28  C   UNL     1       2.980   4.027  20.223  0.00  0.00    +0.000 C 
BRANCH  28  30
ATOM     29  C   UNL     1       1.278   2.602  19.035  0.00  0.00    +0.000 C 
ATOM     30  C   UNL     1       1.539   3.462  20.273  0.00  0.00    +0.000 C 
ATOM     31  C   UNL     1       1.234   2.636  21.525  0.00  0.00    +0.000 C 
ENDBRANCH  28  30
ENDBRANCH   1  28
TORSDOF 8
ENDMDL
MODEL 5
REMARK VINA RESULT:      -7.2      0.989      1.386
REMARK  Name = 
REMARK  12 active torsions:
REMARK  status: ('A' for Active; 'I' for Inactive)
REMARK    1  A    between atoms: C_1  and  C_2
REMARK    2  A    between atoms: C_2  and  C_3
REMARK    3  A    between atoms: C_2  and  C_4
REMARK    4  A    between atoms: C_4  and  N_5
REMARK    5  A    between atoms: C_6  and  N_7
REMARK    6  A    between atoms: C_8  and  C_9
REMARK    7  A    between atoms: C_9  and  C_11
REMARK    8  A    between atoms: C_11  and  S_12
REMARK    9  A    between atoms: S_12  and  C_13
REMARK   10  A    between atoms: C_16  and  C_17
REMARK   11  A    between atoms: N_22  and  C_23
REMARK   12  A    between atoms: N_26  and  C_27
REMARK                            x       y       z     vdW  Elec       q    Type
REMARK                         _______ _______ _______ _____ _____    ______ ____
ROOT
ATOM      1  N   UNL     1       4.682   5.471  18.423  0.00  0.00    +0.000 N 
ATOM      2  C   UNL     1       3.832   6.560  18.217  0.00  0.00    +0.000 A 
ATOM      3  C   UNL     1       2.693   6.677  18.949  0.00  0.00    +0.000 A 
ATOM      4  C   UNL     1       2.324   5.568  19.867  0.00  0.00    +0.000 A 
ATOM      5  O   UNL     1       1.289   5.633  20.528  0.00  0.00    +0.000 OA
ATOM      6  N   UNL     1       3.163   4.479  19.924  0.00  0.00    +0.000 N 
ATOM      7  C   UNL     1       2.811   3.348  20.765  0.00  0.00    +0.000 C 
ATOM      8  C   UNL     1       4.380   4.410  19.276  0.00  0.00    +0.000 A 
ATOM      9  O   UNL     1       5.150   3.461  19.448  0.00  0.00    +0.000 OA
ENDROOT
BRANCH   2  10
ATOM     10  N   UNL     1       4.182   7.501  17.256  0.00  0.00    +0.000 N 
ATOM     11  H   UNL     1       5.140   7.448  16.940  0.00  0.00    +0.000 HD
ATOM     12  H   UNL     1       3.959   8.465  17.542  0.00  0.00    +0.000 HD
ENDBRANCH   2  10
BRANCH   3  13
ATOM     13  C   UNL     1       1.836   7.929  18.823  0.00  0.00    +0.000 C 
ATOM     14  O   UNL     1       1.418   8.273  17.705  0.00  0.00    +0.000 OA
BRANCH  13  15
ATOM     15  C   UNL     1       1.513   8.753  20.066  0.00  0.00    +0.000 C 
BRANCH  15  16
ATOM     16  S   UNL     1       0.959  10.449  19.660  0.00  0.00    +0.000 S 
BRANCH  16  17
ATOM     17  C   UNL     1       0.039  10.861  21.067  0.00  0.00    +0.000 A 
ATOM     18  N   UNL     1       0.325  10.536  22.307  0.00  0.00    +0.000 NA
ATOM     19  N   UNL     1      -0.678  11.041  23.107  0.00  0.00    +0.000 NA
ATOM     20  C   UNL     1      -1.564  11.637  22.330  0.00  0.00    +0.000 A 
ATOM     21  N   UNL     1      -1.126  11.584  21.029  0.00  0.00    +0.000 N 
ATOM     22  C   UNL     1      -1.698  12.233  19.880  0.00  0.00    +0.000 C 
BRANCH  20  23
ATOM     23  C   UNL     1      -2.774  12.240  22.800  0.00  0.00    +0.000 A 
ATOM     24  C   UNL     1      -3.076  12.662  24.085  0.00  0.00    +0.000 A 
ATOM     25  C   UNL     1      -4.394  13.181  24.063  0.00  0.00    +0.000 A 
ATOM     26  C   UNL     1      -4.833  13.035  22.770  0.00  0.00    +0.000 A 
ATOM     27  O   UNL     1      -3.865  12.476  22.001  0.00  0.00    +0.000 OA
ENDBRANCH  20  23
ENDBRANCH  16  17
ENDBRANCH  15  16
ENDBRANCH  13  15
ENDBRANCH   3  13
BRANCH   1  28
ATOM     28  C   UNL     1       5.995   5.405  17.756  0.00  0.00    +0.000 C 
BRANCH  28  30
ATOM     29  C   UNL     1       8.160   5.359  19.039  0.00  0.00    +0.000 C 
ATOM     30  C   UNL     1       7.079   6.267  18.450  0.00  0.00    +0.000 C 
ATOM     31  C   UNL     1       7.741   7.297  17.531  0.00  0.00    +0.000 C 
ENDBRANCH  28  30
ENDBRANCH   1  28
TORSDOF 8
ENDMDL
MODEL 6
REMARK VINA RESULT:      -7.1      2.548      3.917
REMARK  Name = 
REMARK  12 active torsions:
REMARK  status: ('A' for Active; 'I' for Inactive)
REMARK    1  A    between atoms: C_1  and  C_2
REMARK    2  A    between atoms: C_2  and  C_3
REMARK    3  A    between atoms: C_2  and  C_4
REMARK    4  A    between atoms: C_4  and  N_5
REMARK    5  A    between atoms: C_6  and  N_7
REMARK    6  A    between atoms: C_8  and  C_9
REMARK    7  A    between atoms: C_9  and  C_11
REMARK    8  A    between atoms: C_11  and  S_12
REMARK    9  A    between atoms: S_12  and  C_13
REMARK   10  A    between atoms: C_16  and  C_17
REMARK   11  A    between atoms: N_22  and  C_23
REMARK   12  A    between atoms: N_26  and  C_27
REMARK                            x       y       z     vdW  Elec       q    Type
REMARK                         _______ _______ _______ _____ _____    ______ ____
ROOT
ATOM      1  N   UNL     1       5.749   5.248  16.111  0.00  0.00    +0.000 N 
ATOM      2  C   UNL     1       4.736   4.658  16.870  0.00  0.00    +0.000 A 
ATOM      3  C   UNL     1       4.792   4.708  18.227  0.00  0.00    +0.000 A 
ATOM      4  C   UNL     1       6.002   5.287  18.866  0.00  0.00    +0.000 A 
ATOM      5  O   UNL     1       6.093   5.329  20.092  0.00  0.00    +0.000 OA
ATOM      6  N   UNL     1       7.005   5.743  18.041  0.00  0.00    +0.000 N 
ATOM      7  C   UNL     1       8.229   6.264  18.624  0.00  0.00    +0.000 C 
ATOM      8  C   UNL     1       6.900   5.807  16.665  0.00  0.00    +0.000 A 
ATOM      9  O   UNL     1       7.780   6.329  15.975  0.00  0.00    +0.000 OA
ENDROOT
BRANCH   2  10
ATOM     10  N   UNL     1       3.691   4.029  16.206  0.00  0.00    +0.000 N 
ATOM     11  H   UNL     1       2.846   4.579  16.130  0.00  0.00    +0.000 HD
ATOM     12  H   UNL     1       3.472   3.101  16.593  0.00  0.00    +0.000 HD
ENDBRANCH   2  10
BRANCH   3  13
ATOM     13  C   UNL     1       3.624   4.187  19.054  0.00  0.00    +0.000 C 
ATOM     14  O   UNL     1       3.583   2.985  19.363  0.00  0.00    +0.000 OA
BRANCH  13  15
ATOM     15  C   UNL     1       2.513   5.141  19.480  0.00  0.00    +0.000 C 
BRANCH  15  16
ATOM     16  S   UNL     1       2.654   6.783  18.683  0.00  0.00    +0.000 S 
BRANCH  16  17
ATOM     17  C   UNL     1       1.750   7.778  19.774  0.00  0.00    +0.000 A 
ATOM     18  N   UNL     1       1.428   7.483  21.012  0.00  0.00    +0.000 NA
ATOM     19  N   UNL     1       0.689   8.536  21.507  0.00  0.00    +0.000 NA
ATOM     20  C   UNL     1       0.556   9.434  20.548  0.00  0.00    +0.000 A 
ATOM     21  N   UNL     1       1.252   9.012  19.441  0.00  0.00    +0.000 N 
ATOM     22  C   UNL     1       1.503   9.742  18.228  0.00  0.00    +0.000 C 
BRANCH  20  23
ATOM     23  C   UNL     1      -0.192  10.647  20.676  0.00  0.00    +0.000 A 
ATOM     24  C   UNL     1      -0.081  11.622  21.654  0.00  0.00    +0.000 A 
ATOM     25  C   UNL     1      -1.038  12.625  21.365  0.00  0.00    +0.000 A 
ATOM     26  C   UNL     1      -1.696  12.203  20.236  0.00  0.00    +0.000 A 
ATOM     27  O   UNL     1      -1.191  11.017  19.810  0.00  0.00    +0.000 OA
ENDBRANCH  20  23
ENDBRANCH  16  17
ENDBRANCH  15  16
ENDBRANCH  13  15
ENDBRANCH   3  13
BRANCH   1  28
ATOM     28  C   UNL     1       5.632   5.344  14.645  0.00  0.00    +0.000 C 
BRANCH  28  30
ATOM     29  C   UNL     1       5.583   3.451  12.986  0.00  0.00    +0.000 C 
ATOM     30  C   UNL     1       6.485   4.294  13.892  0.00  0.00    +0.000 C 
ATOM     31  C   UNL     1       7.614   4.893  13.050  0.00  0.00    +0.000 C 
ENDBRANCH  28  30
ENDBRANCH   1  28
TORSDOF 8
ENDMDL
MODEL 7
REMARK VINA RESULT:      -7.1      3.070     10.400
REMARK  Name = 
REMARK  12 active torsions:
REMARK  status: ('A' for Active; 'I' for Inactive)
REMARK    1  A    between atoms: C_1  and  C_2
REMARK    2  A    between atoms: C_2  and  C_3
REMARK    3  A    between atoms: C_2  and  C_4
REMARK    4  A    between atoms: C_4  and  N_5
REMARK    5  A    between atoms: C_6  and  N_7
REMARK    6  A    between atoms: C_8  and  C_9
REMARK    7  A    between atoms: C_9  and  C_11
REMARK    8  A    between atoms: C_11  and  S_12
REMARK    9  A    between atoms: S_12  and  C_13
REMARK   10  A    between atoms: C_16  and  C_17
REMARK   11  A    between atoms: N_22  and  C_23
REMARK   12  A    between atoms: N_26  and  C_27
REMARK                            x       y       z     vdW  Elec       q    Type
REMARK                         _______ _______ _______ _____ _____    ______ ____
ROOT
ATOM      1  N   UNL     1      -4.446  13.013  20.714  0.00  0.00    +0.000 N 
ATOM      2  C   UNL     1      -3.154  12.685  20.296  0.00  0.00    +0.000 A 
ATOM      3  C   UNL     1      -2.971  12.033  19.117  0.00  0.00    +0.000 A 
ATOM      4  C   UNL     1      -4.169  11.579  18.365  0.00  0.00    +0.000 A 
ATOM      5  O   UNL     1      -4.037  10.968  17.306  0.00  0.00    +0.000 OA
ATOM      6  N   UNL     1      -5.405  11.845  18.909  0.00  0.00    +0.000 N 
ATOM      7  C   UNL     1      -6.601  11.369  18.235  0.00  0.00    +0.000 C 
ATOM      8  C   UNL     1      -5.598  12.612  20.040  0.00  0.00    +0.000 A 
ATOM      9  O   UNL     1      -6.730  12.921  20.425  0.00  0.00    +0.000 OA
ENDROOT
BRANCH   2  10
ATOM     10  N   UNL     1      -2.084  13.038  21.108  0.00  0.00    +0.000 N 
ATOM     11  H   UNL     1      -2.100  12.628  22.031  0.00  0.00    +0.000 HD
ATOM     12  H   UNL     1      -1.955  14.057  21.178  0.00  0.00    +0.000 HD
ENDBRANCH   2  10
BRANCH   3  13
ATOM     13  C   UNL     1      -1.561  11.795  18.594  0.00  0.00    +0.000 C 
ATOM     14  O   UNL     1      -0.996  12.683  17.935  0.00  0.00    +0.000 OA
BRANCH  13  15
ATOM     15  C   UNL     1      -0.865  10.465  18.871  0.00  0.00    +0.000 C 
BRANCH  15  16
ATOM     16  S   UNL     1       0.772  10.681  19.660  0.00  0.00    +0.000 S 
BRANCH  16  17
ATOM     17  C   UNL     1       1.239   9.039  19.947  0.00  0.00    +0.000 A 
ATOM     18  N   UNL     1       0.976   8.330  21.021  0.00  0.00    +0.000 NA
ATOM     19  N   UNL     1       1.550   7.089  20.846  0.00  0.00    +0.000 NA
ATOM     20  C   UNL     1       2.172   7.083  19.681  0.00  0.00    +0.000 A 
ATOM     21  N   UNL     1       1.963   8.288  19.057  0.00  0.00    +0.000 N 
ATOM     22  C   UNL     1       2.328   8.660  17.715  0.00  0.00    +0.000 C 
BRANCH  20  23
ATOM     23  C   UNL     1       2.927   5.977  19.176  0.00  0.00    +0.000 A 
ATOM     24  C   UNL     1       2.579   5.092  18.168  0.00  0.00    +0.000 A 
ATOM     25  C   UNL     1       3.640   4.165  18.032  0.00  0.00    +0.000 A 
ATOM     26  C   UNL     1       4.574   4.520  18.974  0.00  0.00    +0.000 A 
ATOM     27  O   UNL     1       4.158   5.613  19.664  0.00  0.00    +0.000 OA
ENDBRANCH  20  23
ENDBRANCH  16  17
ENDBRANCH  15  16
ENDBRANCH  13  15
ENDBRANCH   3  13
BRANCH   1  28
ATOM     28  C   UNL     1      -4.659  13.855  21.906  0.00  0.00    +0.000 C 
BRANCH  28  30
ATOM     29  C   UNL     1      -3.773  13.610  24.249  0.00  0.00    +0.000 C 
ATOM     30  C   UNL     1      -4.753  13.042  23.221  0.00  0.00    +0.000 C 
ATOM     31  C   UNL     1      -6.155  13.010  23.836  0.00  0.00    +0.000 C 
ENDBRANCH  28  30
ENDBRANCH   1  28
TORSDOF 8
ENDMDL
MODEL 8
REMARK VINA RESULT:      -7.0      3.012      4.580
REMARK  Name = 
REMARK  12 active torsions:
REMARK  status: ('A' for Active; 'I' for Inactive)
REMARK    1  A    between atoms: C_1  and  C_2
REMARK    2  A    between atoms: C_2  and  C_3
REMARK    3  A    between atoms: C_2  and  C_4
REMARK    4  A    between atoms: C_4  and  N_5
REMARK    5  A    between atoms: C_6  and  N_7
REMARK    6  A    between atoms: C_8  and  C_9
REMARK    7  A    between atoms: C_9  and  C_11
REMARK    8  A    between atoms: C_11  and  S_12
REMARK    9  A    between atoms: S_12  and  C_13
REMARK   10  A    between atoms: C_16  and  C_17
REMARK   11  A    between atoms: N_22  and  C_23
REMARK   12  A    between atoms: N_26  and  C_27
REMARK                            x       y       z     vdW  Elec       q    Type
REMARK                         _______ _______ _______ _____ _____    ______ ____
ROOT
ATOM      1  N   UNL     1       2.828   4.781  18.754  0.00  0.00    +0.000 N 
ATOM      2  C   UNL     1       2.255   5.953  19.253  0.00  0.00    +0.000 A 
ATOM      3  C   UNL     1       2.521   7.144  18.655  0.00  0.00    +0.000 A 
ATOM      4  C   UNL     1       3.519   7.176  17.554  0.00  0.00    +0.000 A 
ATOM      5  O   UNL     1       3.797   8.241  17.005  0.00  0.00    +0.000 OA
ATOM      6  N   UNL     1       4.121   5.990  17.201  0.00  0.00    +0.000 N 
ATOM      7  C   UNL     1       5.143   5.986  16.169  0.00  0.00    +0.000 C 
ATOM      8  C   UNL     1       3.765   4.762  17.722  0.00  0.00    +0.000 A 
ATOM      9  O   UNL     1       4.253   3.713  17.292  0.00  0.00    +0.000 OA
ENDROOT
BRANCH   2  10
ATOM     10  N   UNL     1       1.422   5.864  20.361  0.00  0.00    +0.000 N 
ATOM     11  H   UNL     1       1.755   5.252  21.093  0.00  0.00    +0.000 HD
ATOM     12  H   UNL     1       0.453   5.620  20.114  0.00  0.00    +0.000 HD
ENDBRANCH   2  10
BRANCH   3  13
ATOM     13  C   UNL     1       1.793   8.401  19.110  0.00  0.00    +0.000 C 
ATOM     14  O   UNL     1       1.693   8.643  20.324  0.00  0.00    +0.000 OA
BRANCH  13  15
ATOM     15  C   UNL     1       1.182   9.340  18.074  0.00  0.00    +0.000 C 
BRANCH  15  16
ATOM     16  S   UNL     1       0.308  10.755  18.836  0.00  0.00    +0.000 S 
BRANCH  16  17
ATOM     17  C   UNL     1      -1.289  10.564  18.195  0.00  0.00    +0.000 A 
ATOM     18  N   UNL     1      -1.647   9.752  17.228  0.00  0.00    +0.000 NA
ATOM     19  N   UNL     1      -2.998   9.935  17.017  0.00  0.00    +0.000 NA
ATOM     20  C   UNL     1      -3.421  10.874  17.842  0.00  0.00    +0.000 A 
ATOM     21  N   UNL     1      -2.375  11.272  18.640  0.00  0.00    +0.000 N 
ATOM     22  C   UNL     1      -2.420  12.159  19.772  0.00  0.00    +0.000 C 
BRANCH  20  23
ATOM     23  C   UNL     1      -4.763  11.371  17.879  0.00  0.00    +0.000 A 
ATOM     24  C   UNL     1      -5.405  12.173  16.949  0.00  0.00    +0.000 A 
ATOM     25  C   UNL     1      -6.717  12.409  17.427  0.00  0.00    +0.000 A 
ATOM     26  C   UNL     1      -6.803  11.754  18.631  0.00  0.00    +0.000 A 
ATOM     27  O   UNL     1      -5.635  11.121  18.910  0.00  0.00    +0.000 OA
ENDBRANCH  20  23
ENDBRANCH  16  17
ENDBRANCH  15  16
ENDBRANCH  13  15
ENDBRANCH   3  13
BRANCH   1  28
ATOM     28  C   UNL     1       2.433   3.465  19.287  0.00  0.00    +0.000 C 
BRANCH  28  30
ATOM     29  C   UNL     1       2.191   2.499  21.599  0.00  0.00    +0.000 C 
ATOM     30  C   UNL     1       3.181   3.080  20.587  0.00  0.00    +0.000 C 
ATOM     31  C   UNL     1       4.322   2.081  20.379  0.00  0.00    +0.000 C 
ENDBRANCH  28  30
ENDBRANCH   1  28
TORSDOF 8
ENDMDL
MODEL 9
REMARK VINA RESULT:      -7.0      2.854      3.669
REMARK  Name = 
REMARK  12 active torsions:
REMARK  status: ('A' for Active; 'I' for Inactive)
REMARK    1  A    between atoms: C_1  and  C_2
REMARK    2  A    between atoms: C_2  and  C_3
REMARK    3  A    between atoms: C_2  and  C_4
REMARK    4  A    between atoms: C_4  and  N_5
REMARK    5  A    between atoms: C_6  and  N_7
REMARK    6  A    between atoms: C_8  and  C_9
REMARK    7  A    between atoms: C_9  and  C_11
REMARK    8  A    between atoms: C_11  and  S_12
REMARK    9  A    between atoms: S_12  and  C_13
REMARK   10  A    between atoms: C_16  and  C_17
REMARK   11  A    between atoms: N_22  and  C_23
REMARK   12  A    between atoms: N_26  and  C_27
REMARK                            x       y       z     vdW  Elec       q    Type
REMARK                         _______ _______ _______ _____ _____    ______ ____
ROOT
ATOM      1  N   UNL     1       4.223   5.529  18.000  0.00  0.00    +0.000 N 
ATOM      2  C   UNL     1       3.523   6.727  18.158  0.00  0.00    +0.000 A 
ATOM      3  C   UNL     1       2.530   6.811  19.083  0.00  0.00    +0.000 A 
ATOM      4  C   UNL     1       2.137   5.580  19.816  0.00  0.00    +0.000 A 
ATOM      5  O   UNL     1       1.229   5.618  20.644  0.00  0.00    +0.000 OA
ATOM      6  N   UNL     1       2.806   4.415  19.514  0.00  0.00    +0.000 N 
ATOM      7  C   UNL     1       2.415   3.177  20.166  0.00  0.00    +0.000 C 
ATOM      8  C   UNL     1       3.894   4.350  18.667  0.00  0.00    +0.000 A 
ATOM      9  O   UNL     1       4.532   3.305  18.516  0.00  0.00    +0.000 OA
ENDROOT
BRANCH   2  10
ATOM     10  N   UNL     1       3.866   7.807  17.355  0.00  0.00    +0.000 N 
ATOM     11  H   UNL     1       4.810   8.144  17.480  0.00  0.00    +0.000 HD
ATOM     12  H   UNL     1       3.200   8.589  17.432  0.00  0.00    +0.000 HD
ENDBRANCH   2  10
BRANCH   3  13
ATOM     13  C   UNL     1       1.858   8.151  19.353  0.00  0.00    +0.000 C 
ATOM     14  O   UNL     1       1.867   8.618  20.503  0.00  0.00    +0.000 OA
BRANCH  13  15
ATOM     15  C   UNL     1       1.169   8.895  18.213  0.00  0.00    +0.000 C 
BRANCH  15  16
ATOM     16  S   UNL     1       0.449  10.490  18.749  0.00  0.00    +0.000 S 
BRANCH  16  17
ATOM     17  C   UNL     1      -1.163  10.369  18.131  0.00  0.00    +0.000 A 
ATOM     18  N   UNL     1      -1.567   9.590  17.154  0.00  0.00    +0.000 NA
ATOM     19  N   UNL     1      -2.913   9.825  16.969  0.00  0.00    +0.000 NA
ATOM     20  C   UNL     1      -3.288  10.763  17.819  0.00  0.00    +0.000 A 
ATOM     21  N   UNL     1      -2.217  11.107  18.607  0.00  0.00    +0.000 N 
ATOM     22  C   UNL     1      -2.211  11.972  19.756  0.00  0.00    +0.000 C 
BRANCH  20  23
ATOM     23  C   UNL     1      -4.611  11.306  17.888  0.00  0.00    +0.000 A 
ATOM     24  C   UNL     1      -5.247  12.129  16.972  0.00  0.00    +0.000 A 
ATOM     25  C   UNL     1      -6.537  12.413  17.482  0.00  0.00    +0.000 A 
ATOM     26  C   UNL     1      -6.616  11.763  18.689  0.00  0.00    +0.000 A 
ATOM     27  O   UNL     1      -5.466  11.090  18.941  0.00  0.00    +0.000 OA
ENDBRANCH  20  23
ENDBRANCH  16  17
ENDBRANCH  15  16
ENDBRANCH  13  15
ENDBRANCH   3  13
BRANCH   1  28
ATOM     28  C   UNL     1       5.403   5.459  17.118  0.00  0.00    +0.000 C 
BRANCH  28  30
ATOM     29  C   UNL     1       7.698   4.616  17.718  0.00  0.00    +0.000 C 
ATOM     30  C   UNL     1       6.730   5.794  17.843  0.00  0.00    +0.000 C 
ATOM     31  C   UNL     1       7.420   7.061  17.329  0.00  0.00    +0.000 C 
ENDBRANCH  28  30
ENDBRANCH   1  28
TORSDOF 8
ENDMDL
