MODEL 1
REMARK VINA RESULT:      -6.3      0.000      0.000
REMARK  Name = 
REMARK  3 active torsions:
REMARK  status: ('A' for Active; 'I' for Inactive)
REMARK    1  A    between atoms: C_2  and  N_3
REMARK    2  A    between atoms: C_9  and  C_11
REMARK    3  A    between atoms: C_14  and  C_15
REMARK                            x       y       z     vdW  Elec       q    Type
REMARK                         _______ _______ _______ _____ _____    ______ ____
ROOT
ATOM      1  C   UNL     1       5.389   4.150  18.643  0.00  0.00    +0.000 A 
ATOM      2  C   UNL     1       6.317   5.146  18.892  0.00  0.00    +0.000 A 
ATOM      3  C   UNL     1       6.817   5.561  17.644  0.00  0.00    +0.000 A 
ATOM      4  C   UNL     1       6.252   4.729  16.699  0.00  0.00    +0.000 A 
ATOM      5  O   UNL     1       5.407   3.835  17.313  0.00  0.00    +0.000 OA
ENDROOT
BRANCH   1  12
ATOM      6  N   UNL     1       2.088   4.972  17.921  0.00  0.00    +0.000 NA
ATOM      7  C   UNL     1       2.199   3.939  18.670  0.00  0.00    +0.000 C 
ATOM      8  S   UNL     1       0.754   2.915  18.767  0.00  0.00    +0.000 S 
ATOM      9  C   UNL     1       1.047   2.645  20.521  0.00  0.00    +0.000 C 
ATOM     10  C   UNL     1       2.555   2.553  20.560  0.00  0.00    +0.000 C 
ATOM     11  N   UNL     1       3.154   3.438  19.562  0.00  0.00    +0.000 N 
ATOM     12  C   UNL     1       4.580   3.446  19.611  0.00  0.00    +0.000 C 
ATOM     13  O   UNL     1       5.142   2.806  20.508  0.00  0.00    +0.000 OA
BRANCH   6  15
ATOM     14  N   UNL     1       3.555   6.973  18.135  0.00  0.00    +0.000 NA
ATOM     15  C   UNL     1       2.905   6.018  18.035  0.00  0.00    +0.000 C 
ENDBRANCH   6  15
ENDBRANCH   1  12
BRANCH   4  16
ATOM     16  C   UNL     1       6.410   4.629  15.254  0.00  0.00    +0.000 A 
ATOM     17  C   UNL     1       5.563   3.822  14.484  0.00  0.00    +0.000 A 
ATOM     18  C   UNL     1       5.812   3.627  13.120  0.00  0.00    +0.000 A 
ATOM     19  C   UNL     1       6.895   4.251  12.515  0.00  0.00    +0.000 A 
ATOM     20 CL   UNL     1       7.242   3.953  10.858  0.00  0.00    +0.000 Cl
ATOM     21  C   UNL     1       7.715   5.101  13.249  0.00  0.00    +0.000 A 
ATOM     22  C   UNL     1       7.472   5.289  14.613  0.00  0.00    +0.000 A 
ENDBRANCH   4  16
TORSDOF 3
ENDMDL
MODEL 2
REMARK VINA RESULT:      -6.1      0.186      1.043
REMARK  Name = 
REMARK  3 active torsions:
REMARK  status: ('A' for Active; 'I' for Inactive)
REMARK    1  A    between atoms: C_2  and  N_3
REMARK    2  A    between atoms: C_9  and  C_11
REMARK    3  A    between atoms: C_14  and  C_15
REMARK                            x       y       z     vdW  Elec       q    Type
REMARK                         _______ _______ _______ _____ _____    ______ ____
ROOT
ATOM      1  C   UNL     1       5.436   4.179  18.685  0.00  0.00    +0.000 A 
ATOM      2  C   UNL     1       6.295   5.230  18.951  0.00  0.00    +0.000 A 
ATOM      3  C   UNL     1       6.859   5.618  17.722  0.00  0.00    +0.000 A 
ATOM      4  C   UNL     1       6.400   4.722  16.779  0.00  0.00    +0.000 A 
ATOM      5  O   UNL     1       5.560   3.811  17.374  0.00  0.00    +0.000 OA
ENDROOT
BRANCH   1  12
ATOM      6  N   UNL     1       2.158   4.990  17.853  0.00  0.00    +0.000 NA
ATOM      7  C   UNL     1       2.247   3.958  18.607  0.00  0.00    +0.000 C 
ATOM      8  S   UNL     1       0.803   2.931  18.660  0.00  0.00    +0.000 S 
ATOM      9  C   UNL     1       1.038   2.665  20.423  0.00  0.00    +0.000 C 
ATOM     10  C   UNL     1       2.545   2.578  20.511  0.00  0.00    +0.000 C 
ATOM     11  N   UNL     1       3.174   3.462  19.532  0.00  0.00    +0.000 N 
ATOM     12  C   UNL     1       4.598   3.474  19.627  0.00  0.00    +0.000 C 
ATOM     13  O   UNL     1       5.132   2.838  20.544  0.00  0.00    +0.000 OA
BRANCH   6  15
ATOM     14  N   UNL     1       3.614   6.995  18.093  0.00  0.00    +0.000 NA
ATOM     15  C   UNL     1       2.968   6.038  17.991  0.00  0.00    +0.000 C 
ENDBRANCH   6  15
ENDBRANCH   1  12
BRANCH   4  16
ATOM     16  C   UNL     1       6.661   4.570  15.353  0.00  0.00    +0.000 A 
ATOM     17  C   UNL     1       7.657   5.319  14.713  0.00  0.00    +0.000 A 
ATOM     18  C   UNL     1       7.803   5.265  13.321  0.00  0.00    +0.000 A 
ATOM     19  C   UNL     1       6.970   4.449  12.565  0.00  0.00    +0.000 A 
ATOM     20 CL   UNL     1       7.103   4.439  10.851  0.00  0.00    +0.000 Cl
ATOM     21  C   UNL     1       6.014   3.655  13.187  0.00  0.00    +0.000 A 
ATOM     22  C   UNL     1       5.861   3.715  14.576  0.00  0.00    +0.000 A 
ENDBRANCH   4  16
TORSDOF 3
ENDMDL
MODEL 3
REMARK VINA RESULT:      -6.1      6.742      9.174
REMARK  Name = 
REMARK  3 active torsions:
REMARK  status: ('A' for Active; 'I' for Inactive)
REMARK    1  A    between atoms: C_2  and  N_3
REMARK    2  A    between atoms: C_9  and  C_11
REMARK    3  A    between atoms: C_14  and  C_15
REMARK                            x       y       z     vdW  Elec       q    Type
REMARK                         _______ _______ _______ _____ _____    ______ ____
ROOT
ATOM      1  C   UNL     1       1.345   9.652  18.357  0.00  0.00    +0.000 A 
ATOM      2  C   UNL     1       1.635  10.993  18.539  0.00  0.00    +0.000 A 
ATOM      3  C   UNL     1       0.405  11.663  18.678  0.00  0.00    +0.000 A 
ATOM      4  C   UNL     1      -0.580  10.719  18.471  0.00  0.00    +0.000 A 
ATOM      5  O   UNL     1      -0.008   9.493  18.233  0.00  0.00    +0.000 OA
ENDROOT
BRANCH   1  12
ATOM      6  N   UNL     1       1.068   7.739  21.248  0.00  0.00    +0.000 NA
ATOM      7  C   UNL     1       1.658   7.125  20.292  0.00  0.00    +0.000 C 
ATOM      8  S   UNL     1       1.760   5.364  20.470  0.00  0.00    +0.000 S 
ATOM      9  C   UNL     1       3.424   5.378  19.790  0.00  0.00    +0.000 C 
ATOM     10  C   UNL     1       3.302   6.444  18.726  0.00  0.00    +0.000 C 
ATOM     11  N   UNL     1       2.376   7.494  19.148  0.00  0.00    +0.000 N 
ATOM     12  C   UNL     1       2.285   8.565  18.210  0.00  0.00    +0.000 C 
ATOM     13  O   UNL     1       3.029   8.548  17.222  0.00  0.00    +0.000 OA
BRANCH   6  15
ATOM     14  N   UNL     1       1.369  10.164  21.723  0.00  0.00    +0.000 NA
ATOM     15  C   UNL     1       1.238   9.042  21.464  0.00  0.00    +0.000 C 
ENDBRANCH   6  15
ENDBRANCH   1  12
BRANCH   4  16
ATOM     16  C   UNL     1      -2.036  10.805  18.439  0.00  0.00    +0.000 A 
ATOM     17  C   UNL     1      -2.801   9.890  17.706  0.00  0.00    +0.000 A 
ATOM     18  C   UNL     1      -4.183  10.067  17.571  0.00  0.00    +0.000 A 
ATOM     19  C   UNL     1      -4.810  11.144  18.184  0.00  0.00    +0.000 A 
ATOM     20 CL   UNL     1      -6.495  11.400  17.958  0.00  0.00    +0.000 Cl
ATOM     21  C   UNL     1      -4.077  12.031  18.964  0.00  0.00    +0.000 A 
ATOM     22  C   UNL     1      -2.695  11.861  19.091  0.00  0.00    +0.000 A 
ENDBRANCH   4  16
TORSDOF 3
ENDMDL
MODEL 4
REMARK VINA RESULT:      -5.9      4.458      7.064
REMARK  Name = 
REMARK  3 active torsions:
REMARK  status: ('A' for Active; 'I' for Inactive)
REMARK    1  A    between atoms: C_2  and  N_3
REMARK    2  A    between atoms: C_9  and  C_11
REMARK    3  A    between atoms: C_14  and  C_15
REMARK                            x       y       z     vdW  Elec       q    Type
REMARK                         _______ _______ _______ _____ _____    ______ ____
ROOT
ATOM      1  C   UNL     1       4.156   5.348  19.593  0.00  0.00    +0.000 A 
ATOM      2  C   UNL     1       3.361   4.524  20.370  0.00  0.00    +0.000 A 
ATOM      3  C   UNL     1       2.176   5.235  20.639  0.00  0.00    +0.000 A 
ATOM      4  C   UNL     1       2.345   6.495  20.104  0.00  0.00    +0.000 A 
ATOM      5  O   UNL     1       3.575   6.582  19.498  0.00  0.00    +0.000 OA
ENDROOT
BRANCH   1  12
ATOM      6  N   UNL     1       3.574   4.304  16.327  0.00  0.00    +0.000 NA
ATOM      7  C   UNL     1       4.795   4.622  16.545  0.00  0.00    +0.000 C 
ATOM      8  S   UNL     1       5.772   4.919  15.095  0.00  0.00    +0.000 S 
ATOM      9  C   UNL     1       7.179   4.099  15.858  0.00  0.00    +0.000 C 
ATOM     10  C   UNL     1       7.043   4.550  17.294  0.00  0.00    +0.000 C 
ATOM     11  N   UNL     1       5.635   4.689  17.663  0.00  0.00    +0.000 N 
ATOM     12  C   UNL     1       5.452   5.039  19.034  0.00  0.00    +0.000 C 
ATOM     13  O   UNL     1       6.448   5.098  19.765  0.00  0.00    +0.000 OA
BRANCH   6  15
ATOM     14  N   UNL     1       2.156   3.107  17.987  0.00  0.00    +0.000 NA
ATOM     15  C   UNL     1       2.829   3.689  17.243  0.00  0.00    +0.000 C 
ENDBRANCH   6  15
ENDBRANCH   1  12
BRANCH   4  16
ATOM     16  C   UNL     1       1.501   7.684  20.097  0.00  0.00    +0.000 A 
ATOM     17  C   UNL     1       1.523   8.584  19.025  0.00  0.00    +0.000 A 
ATOM     18  C   UNL     1       0.814   9.790  19.095  0.00  0.00    +0.000 A 
ATOM     19  C   UNL     1       0.064  10.092  20.224  0.00  0.00    +0.000 A 
ATOM     20 CL   UNL     1      -0.747  11.604  20.337  0.00  0.00    +0.000 Cl
ATOM     21  C   UNL     1      -0.016   9.186  21.275  0.00  0.00    +0.000 A 
ATOM     22  C   UNL     1       0.699   7.986  21.211  0.00  0.00    +0.000 A 
ENDBRANCH   4  16
TORSDOF 3
ENDMDL
MODEL 5
REMARK VINA RESULT:      -5.9      4.434      7.002
REMARK  Name = 
REMARK  3 active torsions:
REMARK  status: ('A' for Active; 'I' for Inactive)
REMARK    1  A    between atoms: C_2  and  N_3
REMARK    2  A    between atoms: C_9  and  C_11
REMARK    3  A    between atoms: C_14  and  C_15
REMARK                            x       y       z     vdW  Elec       q    Type
REMARK                         _______ _______ _______ _____ _____    ______ ____
ROOT
ATOM      1  C   UNL     1       4.168   5.409  19.582  0.00  0.00    +0.000 A 
ATOM      2  C   UNL     1       3.336   4.602  20.337  0.00  0.00    +0.000 A 
ATOM      3  C   UNL     1       2.171   5.346  20.599  0.00  0.00    +0.000 A 
ATOM      4  C   UNL     1       2.386   6.607  20.083  0.00  0.00    +0.000 A 
ATOM      5  O   UNL     1       3.627   6.662  19.495  0.00  0.00    +0.000 OA
ENDROOT
BRANCH   1  12
ATOM      6  N   UNL     1       3.592   4.360  16.317  0.00  0.00    +0.000 NA
ATOM      7  C   UNL     1       4.818   4.651  16.545  0.00  0.00    +0.000 C 
ATOM      8  S   UNL     1       5.815   4.917  15.102  0.00  0.00    +0.000 S 
ATOM      9  C   UNL     1       7.195   4.069  15.883  0.00  0.00    +0.000 C 
ATOM     10  C   UNL     1       7.057   4.531  17.315  0.00  0.00    +0.000 C 
ATOM     11  N   UNL     1       5.649   4.705  17.670  0.00  0.00    +0.000 N 
ATOM     12  C   UNL     1       5.461   5.067  19.037  0.00  0.00    +0.000 C 
ATOM     13  O   UNL     1       6.452   5.107  19.777  0.00  0.00    +0.000 OA
BRANCH   6  15
ATOM     14  N   UNL     1       2.141   3.199  17.973  0.00  0.00    +0.000 NA
ATOM     15  C   UNL     1       2.824   3.768  17.229  0.00  0.00    +0.000 C 
ENDBRANCH   6  15
ENDBRANCH   1  12
BRANCH   4  16
ATOM     16  C   UNL     1       1.581   7.822  20.080  0.00  0.00    +0.000 A 
ATOM     17  C   UNL     1       0.757   8.150  21.164  0.00  0.00    +0.000 A 
ATOM     18  C   UNL     1      -0.113   9.244  21.089  0.00  0.00    +0.000 A 
ATOM     19  C   UNL     1      -0.150  10.027  19.943  0.00  0.00    +0.000 A 
ATOM     20 CL   UNL     1      -1.270  11.326  19.825  0.00  0.00    +0.000 Cl
ATOM     21  C   UNL     1       0.701   9.752  18.878  0.00  0.00    +0.000 A 
ATOM     22  C   UNL     1       1.564   8.654  18.948  0.00  0.00    +0.000 A 
ENDBRANCH   4  16
TORSDOF 3
ENDMDL
MODEL 6
REMARK VINA RESULT:      -5.9      7.937      9.756
REMARK  Name = 
REMARK  3 active torsions:
REMARK  status: ('A' for Active; 'I' for Inactive)
REMARK    1  A    between atoms: C_2  and  N_3
REMARK    2  A    between atoms: C_9  and  C_11
REMARK    3  A    between atoms: C_14  and  C_15
REMARK                            x       y       z     vdW  Elec       q    Type
REMARK                         _______ _______ _______ _____ _____    ______ ____
ROOT
ATOM      1  C   UNL     1      -1.151  11.753  19.828  0.00  0.00    +0.000 A 
ATOM      2  C   UNL     1      -0.045  12.565  20.008  0.00  0.00    +0.000 A 
ATOM      3  C   UNL     1       1.089  11.780  19.726  0.00  0.00    +0.000 A 
ATOM      4  C   UNL     1       0.631  10.501  19.489  0.00  0.00    +0.000 A 
ATOM      5  O   UNL     1      -0.739  10.471  19.592  0.00  0.00    +0.000 OA
ENDROOT
BRANCH   1  12
ATOM      6  N   UNL     1      -1.675  12.321  23.218  0.00  0.00    +0.000 NA
ATOM      7  C   UNL     1      -2.596  12.813  22.475  0.00  0.00    +0.000 C 
ATOM      8  S   UNL     1      -3.622  14.035  23.249  0.00  0.00    +0.000 S 
ATOM      9  C   UNL     1      -5.069  13.369  22.413  0.00  0.00    +0.000 C 
ATOM     10  C   UNL     1      -4.491  13.005  21.065  0.00  0.00    +0.000 C 
ATOM     11  N   UNL     1      -3.106  12.554  21.198  0.00  0.00    +0.000 N 
ATOM     12  C   UNL     1      -2.540  12.125  19.961  0.00  0.00    +0.000 C 
ATOM     13  O   UNL     1      -3.267  12.090  18.961  0.00  0.00    +0.000 OA
BRANCH   6  15
ATOM     14  N   UNL     1      -0.603  10.122  22.758  0.00  0.00    +0.000 NA
ATOM     15  C   UNL     1      -1.086  11.160  22.939  0.00  0.00    +0.000 C 
ENDBRANCH   6  15
ENDBRANCH   1  12
BRANCH   4  16
ATOM     16  C   UNL     1       1.316   9.248  19.193  0.00  0.00    +0.000 A 
ATOM     17  C   UNL     1       1.443   8.244  20.160  0.00  0.00    +0.000 A 
ATOM     18  C   UNL     1       2.221   7.107  19.906  0.00  0.00    +0.000 A 
ATOM     19  C   UNL     1       2.857   6.958  18.680  0.00  0.00    +0.000 A 
ATOM     20 CL   UNL     1       3.869   5.598  18.397  0.00  0.00    +0.000 Cl
ATOM     21  C   UNL     1       2.696   7.917  17.686  0.00  0.00    +0.000 A 
ATOM     22  C   UNL     1       1.927   9.057  17.942  0.00  0.00    +0.000 A 
ENDBRANCH   4  16
TORSDOF 3
ENDMDL
MODEL 7
REMARK VINA RESULT:      -5.9      6.750      9.202
REMARK  Name = 
REMARK  3 active torsions:
REMARK  status: ('A' for Active; 'I' for Inactive)
REMARK    1  A    between atoms: C_2  and  N_3
REMARK    2  A    between atoms: C_9  and  C_11
REMARK    3  A    between atoms: C_14  and  C_15
REMARK                            x       y       z     vdW  Elec       q    Type
REMARK                         _______ _______ _______ _____ _____    ______ ____
ROOT
ATOM      1  C   UNL     1       1.343   9.695  18.385  0.00  0.00    +0.000 A 
ATOM      2  C   UNL     1       1.643  11.023  18.635  0.00  0.00    +0.000 A 
ATOM      3  C   UNL     1       0.418  11.709  18.726  0.00  0.00    +0.000 A 
ATOM      4  C   UNL     1      -0.568  10.793  18.424  0.00  0.00    +0.000 A 
ATOM      5  O   UNL     1      -0.002   9.566  18.174  0.00  0.00    +0.000 OA
ENDROOT
BRANCH   1  12
ATOM      6  N   UNL     1       0.981   7.772  21.260  0.00  0.00    +0.000 NA
ATOM      7  C   UNL     1       1.583   7.156  20.313  0.00  0.00    +0.000 C 
ATOM      8  S   UNL     1       1.660   5.393  20.485  0.00  0.00    +0.000 S 
ATOM      9  C   UNL     1       3.339   5.389  19.841  0.00  0.00    +0.000 C 
ATOM     10  C   UNL     1       3.253   6.462  18.780  0.00  0.00    +0.000 C 
ATOM     11  N   UNL     1       2.331   7.521  19.188  0.00  0.00    +0.000 N 
ATOM     12  C   UNL     1       2.273   8.598  18.253  0.00  0.00    +0.000 C 
ATOM     13  O   UNL     1       3.038   8.576  17.281  0.00  0.00    +0.000 OA
BRANCH   6  15
ATOM     14  N   UNL     1       1.248  10.214  21.663  0.00  0.00    +0.000 NA
ATOM     15  C   UNL     1       1.162   9.072  21.486  0.00  0.00    +0.000 C 
ENDBRANCH   6  15
ENDBRANCH   1  12
BRANCH   4  16
ATOM     16  C   UNL     1      -2.017  10.906  18.308  0.00  0.00    +0.000 A 
ATOM     17  C   UNL     1      -2.725  11.904  18.987  0.00  0.00    +0.000 A 
ATOM     18  C   UNL     1      -4.125  11.916  18.977  0.00  0.00    +0.000 A 
ATOM     19  C   UNL     1      -4.824  10.944  18.272  0.00  0.00    +0.000 A 
ATOM     20 CL   UNL     1      -6.542  10.917  18.319  0.00  0.00    +0.000 Cl
ATOM     21  C   UNL     1      -4.138   9.978  17.544  0.00  0.00    +0.000 A 
ATOM     22  C   UNL     1      -2.741   9.960  17.562  0.00  0.00    +0.000 A 
ENDBRANCH   4  16
TORSDOF 3
ENDMDL
MODEL 8
REMARK VINA RESULT:      -5.8      8.608     10.457
REMARK  Name = 
REMARK  3 active torsions:
REMARK  status: ('A' for Active; 'I' for Inactive)
REMARK    1  A    between atoms: C_2  and  N_3
REMARK    2  A    between atoms: C_9  and  C_11
REMARK    3  A    between atoms: C_14  and  C_15
REMARK                            x       y       z     vdW  Elec       q    Type
REMARK                         _______ _______ _______ _____ _____    ______ ____
ROOT
ATOM      1  C   UNL     1      -1.916  12.189  19.959  0.00  0.00    +0.000 A 
ATOM      2  C   UNL     1      -0.954  13.179  20.054  0.00  0.00    +0.000 A 
ATOM      3  C   UNL     1       0.285  12.575  19.767  0.00  0.00    +0.000 A 
ATOM      4  C   UNL     1       0.037  11.227  19.612  0.00  0.00    +0.000 A 
ATOM      5  O   UNL     1      -1.306  10.980  19.771  0.00  0.00    +0.000 OA
ENDROOT
BRANCH   1  12
ATOM      6  N   UNL     1      -2.430  12.752  23.352  0.00  0.00    +0.000 NA
ATOM      7  C   UNL     1      -3.438  13.071  22.629  0.00  0.00    +0.000 C 
ATOM      8  S   UNL     1      -4.626  14.131  23.409  0.00  0.00    +0.000 S 
ATOM      9  C   UNL     1      -5.969  13.221  22.634  0.00  0.00    +0.000 C 
ATOM     10  C   UNL     1      -5.378  12.920  21.275  0.00  0.00    +0.000 C 
ATOM     11  N   UNL     1      -3.936  12.701  21.374  0.00  0.00    +0.000 N 
ATOM     12  C   UNL     1      -3.342  12.336  20.129  0.00  0.00    +0.000 C 
ATOM     13  O   UNL     1      -4.082  12.160  19.153  0.00  0.00    +0.000 OA
BRANCH   6  15
ATOM     14  N   UNL     1      -1.031  10.742  22.903  0.00  0.00    +0.000 NA
ATOM     15  C   UNL     1      -1.670  11.694  23.078  0.00  0.00    +0.000 C 
ENDBRANCH   6  15
ENDBRANCH   1  12
BRANCH   4  16
ATOM     16  C   UNL     1       0.909  10.088  19.352  0.00  0.00    +0.000 A 
ATOM     17  C   UNL     1       1.507   9.901  18.100  0.00  0.00    +0.000 A 
ATOM     18  C   UNL     1       2.228   8.733  17.824  0.00  0.00    +0.000 A 
ATOM     19  C   UNL     1       2.372   7.756  18.801  0.00  0.00    +0.000 A 
ATOM     20 CL   UNL     1       3.195   6.292  18.436  0.00  0.00    +0.000 Cl
ATOM     21  C   UNL     1       1.834   7.948  20.068  0.00  0.00    +0.000 A 
ATOM     22  C   UNL     1       1.106   9.110  20.342  0.00  0.00    +0.000 A 
ENDBRANCH   4  16
TORSDOF 3
ENDMDL
MODEL 9
REMARK VINA RESULT:      -5.8      7.670      9.575
REMARK  Name = 
REMARK  3 active torsions:
REMARK  status: ('A' for Active; 'I' for Inactive)
REMARK    1  A    between atoms: C_2  and  N_3
REMARK    2  A    between atoms: C_9  and  C_11
REMARK    3  A    between atoms: C_14  and  C_15
REMARK                            x       y       z     vdW  Elec       q    Type
REMARK                         _______ _______ _______ _____ _____    ______ ____
ROOT
ATOM      1  C   UNL     1      -0.929  11.529  19.139  0.00  0.00    +0.000 A 
ATOM      2  C   UNL     1       0.132  12.400  18.968  0.00  0.00    +0.000 A 
ATOM      3  C   UNL     1       1.287  11.612  18.809  0.00  0.00    +0.000 A 
ATOM      4  C   UNL     1       0.897  10.302  18.994  0.00  0.00    +0.000 A 
ATOM      5  O   UNL     1      -0.455  10.250  19.238  0.00  0.00    +0.000 OA
ENDROOT
BRANCH   1  12
ATOM      6  N   UNL     1      -1.210  12.987  22.283  0.00  0.00    +0.000 NA
ATOM      7  C   UNL     1      -2.217  13.220  21.527  0.00  0.00    +0.000 C 
ATOM      8  S   UNL     1      -3.252  14.566  22.037  0.00  0.00    +0.000 S 
ATOM      9  C   UNL     1      -4.717  13.641  21.555  0.00  0.00    +0.000 C 
ATOM     10  C   UNL     1      -4.230  12.943  20.306  0.00  0.00    +0.000 C 
ATOM     11  N   UNL     1      -2.813  12.600  20.423  0.00  0.00    +0.000 N 
ATOM     12  C   UNL     1      -2.323  11.869  19.299  0.00  0.00    +0.000 C 
ATOM     13  O   UNL     1      -3.126  11.533  18.420  0.00  0.00    +0.000 OA
BRANCH   6  15
ATOM     14  N   UNL     1      -0.012  10.805  22.338  0.00  0.00    +0.000 NA
ATOM     15  C   UNL     1      -0.573  11.817  22.273  0.00  0.00    +0.000 C 
ENDBRANCH   6  15
ENDBRANCH   1  12
BRANCH   4  16
ATOM     16  C   UNL     1       1.635   9.045  19.000  0.00  0.00    +0.000 A 
ATOM     17  C   UNL     1       2.366   8.626  17.882  0.00  0.00    +0.000 A 
ATOM     18  C   UNL     1       2.953   7.355  17.851  0.00  0.00    +0.000 A 
ATOM     19  C   UNL     1       2.832   6.506  18.944  0.00  0.00    +0.000 A 
ATOM     20 CL   UNL     1       3.492   4.921  18.877  0.00  0.00    +0.000 Cl
ATOM     21  C   UNL     1       2.159   6.926  20.086  0.00  0.00    +0.000 A 
ATOM     22  C   UNL     1       1.563   8.190  20.113  0.00  0.00    +0.000 A 
ENDBRANCH   4  16
TORSDOF 3
ENDMDL
