MODEL 1
REMARK VINA RESULT:      -8.1      0.000      0.000
REMARK  Name = 
REMARK  8 active torsions:
REMARK  status: ('A' for Active; 'I' for Inactive)
REMARK    1  A    between atoms: C_1  and  C_2
REMARK    2  A    between atoms: C_2  and  N_3
REMARK    3  A    between atoms: C_7  and  C_8
REMARK    4  A    between atoms: N_10  and  C_11
REMARK    5  A    between atoms: C_11  and  C_12
REMARK    6  A    between atoms: C_14  and  O_15
REMARK    7  A    between atoms: C_20  and  C_21
REMARK    8  A    between atoms: N_25  and  C_26
REMARK                            x       y       z     vdW  Elec       q    Type
REMARK                         _______ _______ _______ _____ _____    ______ ____
ROOT
ATOM      1  N   UNL     1       3.492   3.428  19.702  0.00  0.00    +0.000 N 
ATOM      2  C   UNL     1       2.582   3.562  20.738  0.00  0.00    +0.000 C 
ATOM      3  O   UNL     1       2.238   2.686  21.515  0.00  0.00    +0.000 OA
ATOM      4  C   UNL     1       2.026   4.961  20.716  0.00  0.00    +0.000 C 
ATOM      5  C   UNL     1       3.034   5.728  19.862  0.00  0.00    +0.000 C 
ATOM      6  C   UNL     1       3.631   4.656  18.932  0.00  0.00    +0.000 C 
ENDROOT
BRANCH   6   7
ATOM      7  C   UNL     1       5.084   4.941  18.649  0.00  0.00    +0.000 A 
ATOM      8  N   UNL     1       5.924   5.485  19.514  0.00  0.00    +0.000 NA
ATOM      9  C   UNL     1       7.144   5.517  18.905  0.00  0.00    +0.000 A 
ATOM     10  C   UNL     1       7.050   5.039  17.624  0.00  0.00    +0.000 A 
ATOM     11  N   UNL     1       5.735   4.696  17.458  0.00  0.00    +0.000 N 
ATOM     12  C   UNL     1       5.184   4.153  16.242  0.00  0.00    +0.000 C 
ENDBRANCH   6   7
BRANCH   5  13
ATOM     13  C   UNL     1       2.435   6.877  19.074  0.00  0.00    +0.000 C 
ATOM     14  O   UNL     1       2.358   6.888  17.854  0.00  0.00    +0.000 OA
ATOM     15  N   UNL     1       1.957   7.905  19.868  0.00  0.00    +0.000 N 
ATOM     16  H   UNL     1       1.979   7.796  20.879  0.00  0.00    +0.000 HD
BRANCH  15  17
ATOM     17  C   UNL     1       1.322   9.087  19.337  0.00  0.00    +0.000 C 
BRANCH  17  18
ATOM     18  C   UNL     1       0.526   9.817  20.390  0.00  0.00    +0.000 A 
ATOM     19  C   UNL     1       0.613   9.375  21.724  0.00  0.00    +0.000 A 
ATOM     20  C   UNL     1      -0.129   9.999  22.726  0.00  0.00    +0.000 A 
ATOM     21  C   UNL     1      -0.960  11.070  22.435  0.00  0.00    +0.000 A 
ATOM     22  C   UNL     1      -1.039  11.540  21.123  0.00  0.00    +0.000 A 
ATOM     23  C   UNL     1      -0.293  10.922  20.108  0.00  0.00    +0.000 A 
ATOM     24 CL   UNL     1      -0.425  11.578  18.515  0.00  0.00    +0.000 Cl
BRANCH  20  25
ATOM     25  O   UNL     1      -0.071   9.577  24.020  0.00  0.00    +0.000 OA
ATOM     26  H   UNL     1       0.380   8.716  24.051  0.00  0.00    +0.000 HD
ENDBRANCH  20  25
ENDBRANCH  17  18
ENDBRANCH  15  17
ENDBRANCH   5  13
BRANCH   1  28
ATOM     27  C   UNL     1       3.430   1.525  18.101  0.00  0.00    +0.000 C 
ATOM     28  C   UNL     1       4.073   2.144  19.334  0.00  0.00    +0.000 C 
ENDBRANCH   1  28
TORSDOF 6
ENDMDL
MODEL 2
REMARK VINA RESULT:      -7.8      1.402      1.509
REMARK  Name = 
REMARK  8 active torsions:
REMARK  status: ('A' for Active; 'I' for Inactive)
REMARK    1  A    between atoms: C_1  and  C_2
REMARK    2  A    between atoms: C_2  and  N_3
REMARK    3  A    between atoms: C_7  and  C_8
REMARK    4  A    between atoms: N_10  and  C_11
REMARK    5  A    between atoms: C_11  and  C_12
REMARK    6  A    between atoms: C_14  and  O_15
REMARK    7  A    between atoms: C_20  and  C_21
REMARK    8  A    between atoms: N_25  and  C_26
REMARK                            x       y       z     vdW  Elec       q    Type
REMARK                         _______ _______ _______ _____ _____    ______ ____
ROOT
ATOM      1  N   UNL     1       3.344   3.952  19.597  0.00  0.00    +0.000 N 
ATOM      2  C   UNL     1       2.355   4.360  20.478  0.00  0.00    +0.000 C 
ATOM      3  O   UNL     1       1.809   3.667  21.321  0.00  0.00    +0.000 OA
ATOM      4  C   UNL     1       2.009   5.795  20.185  0.00  0.00    +0.000 C 
ATOM      5  C   UNL     1       3.202   6.287  19.367  0.00  0.00    +0.000 C 
ATOM      6  C   UNL     1       3.738   5.016  18.684  0.00  0.00    +0.000 C 
ENDROOT
BRANCH   6   7
ATOM      7  C   UNL     1       5.239   5.071  18.553  0.00  0.00    +0.000 A 
ATOM      8  N   UNL     1       6.056   5.547  19.478  0.00  0.00    +0.000 NA
ATOM      9  C   UNL     1       7.324   5.364  19.010  0.00  0.00    +0.000 A 
ATOM     10  C   UNL     1       7.293   4.819  17.752  0.00  0.00    +0.000 A 
ATOM     11  N   UNL     1       5.967   4.657  17.457  0.00  0.00    +0.000 N 
ATOM     12  C   UNL     1       5.470   4.118  16.216  0.00  0.00    +0.000 C 
ENDBRANCH   6   7
BRANCH   5  13
ATOM     13  C   UNL     1       2.860   7.362  18.354  0.00  0.00    +0.000 C 
ATOM     14  O   UNL     1       3.373   7.428  17.246  0.00  0.00    +0.000 OA
ATOM     15  N   UNL     1       1.892   8.249  18.791  0.00  0.00    +0.000 N 
ATOM     16  H   UNL     1       1.449   8.090  19.692  0.00  0.00    +0.000 HD
BRANCH  15  17
ATOM     17  C   UNL     1       1.391   9.336  17.983  0.00  0.00    +0.000 C 
BRANCH  17  18
ATOM     18  C   UNL     1       0.460  10.231  18.764  0.00  0.00    +0.000 A 
ATOM     19  C   UNL     1       0.957  10.884  19.907  0.00  0.00    +0.000 A 
ATOM     20  C   UNL     1       0.124  11.695  20.677  0.00  0.00    +0.000 A 
ATOM     21  C   UNL     1      -1.205  11.883  20.331  0.00  0.00    +0.000 A 
ATOM     22  C   UNL     1      -1.709  11.265  19.185  0.00  0.00    +0.000 A 
ATOM     23  C   UNL     1      -0.879  10.451  18.401  0.00  0.00    +0.000 A 
ATOM     24 CL   UNL     1      -1.570   9.742  16.985  0.00  0.00    +0.000 Cl
BRANCH  20  25
ATOM     25  O   UNL     1       0.581  12.323  21.796  0.00  0.00    +0.000 OA
ATOM     26  H   UNL     1      -0.034  13.038  22.030  0.00  0.00    +0.000 HD
ENDBRANCH  20  25
ENDBRANCH  17  18
ENDBRANCH  15  17
ENDBRANCH   5  13
BRANCH   1  28
ATOM     27  C   UNL     1       3.261   1.869  18.241  0.00  0.00    +0.000 C 
ATOM     28  C   UNL     1       3.774   2.565  19.493  0.00  0.00    +0.000 C 
ENDBRANCH   1  28
TORSDOF 6
ENDMDL
MODEL 3
REMARK VINA RESULT:      -7.7      2.091      3.899
REMARK  Name = 
REMARK  8 active torsions:
REMARK  status: ('A' for Active; 'I' for Inactive)
REMARK    1  A    between atoms: C_1  and  C_2
REMARK    2  A    between atoms: C_2  and  N_3
REMARK    3  A    between atoms: C_7  and  C_8
REMARK    4  A    between atoms: N_10  and  C_11
REMARK    5  A    between atoms: C_11  and  C_12
REMARK    6  A    between atoms: C_14  and  O_15
REMARK    7  A    between atoms: C_20  and  C_21
REMARK    8  A    between atoms: N_25  and  C_26
REMARK                            x       y       z     vdW  Elec       q    Type
REMARK                         _______ _______ _______ _____ _____    ______ ____
ROOT
ATOM      1  N   UNL     1       5.014   5.335  17.348  0.00  0.00    +0.000 N 
ATOM      2  C   UNL     1       4.827   6.626  16.879  0.00  0.00    +0.000 C 
ATOM      3  O   UNL     1       5.464   7.171  15.992  0.00  0.00    +0.000 OA
ATOM      4  C   UNL     1       3.741   7.283  17.688  0.00  0.00    +0.000 C 
ATOM      5  C   UNL     1       3.031   6.103  18.349  0.00  0.00    +0.000 C 
ATOM      6  C   UNL     1       4.119   5.019  18.452  0.00  0.00    +0.000 C 
ENDROOT
BRANCH   6   7
ATOM      7  C   UNL     1       3.525   3.645  18.273  0.00  0.00    +0.000 A 
ATOM      8  N   UNL     1       2.606   3.337  17.373  0.00  0.00    +0.000 NA
ATOM      9  C   UNL     1       2.381   1.996  17.490  0.00  0.00    +0.000 A 
ATOM     10  C   UNL     1       3.128   1.475  18.514  0.00  0.00    +0.000 A 
ATOM     11  N   UNL     1       3.835   2.530  19.024  0.00  0.00    +0.000 N 
ATOM     12  C   UNL     1       4.751   2.436  20.133  0.00  0.00    +0.000 C 
ENDBRANCH   6   7
BRANCH   5  13
ATOM     13  C   UNL     1       2.430   6.420  19.705  0.00  0.00    +0.000 C 
ATOM     14  O   UNL     1       2.352   5.604  20.612  0.00  0.00    +0.000 OA
ATOM     15  N   UNL     1       2.000   7.729  19.830  0.00  0.00    +0.000 N 
ATOM     16  H   UNL     1       2.168   8.377  19.064  0.00  0.00    +0.000 HD
BRANCH  15  17
ATOM     17  C   UNL     1       1.421   8.261  21.041  0.00  0.00    +0.000 C 
BRANCH  17  18
ATOM     18  C   UNL     1       0.560   9.469  20.766  0.00  0.00    +0.000 A 
ATOM     19  C   UNL     1       0.479   9.950  19.445  0.00  0.00    +0.000 A 
ATOM     20  C   UNL     1      -0.278  11.083  19.150  0.00  0.00    +0.000 A 
ATOM     21  C   UNL     1      -0.974  11.753  20.144  0.00  0.00    +0.000 A 
ATOM     22  C   UNL     1      -0.928  11.276  21.455  0.00  0.00    +0.000 A 
ATOM     23  C   UNL     1      -0.173  10.135  21.762  0.00  0.00    +0.000 A 
ATOM     24 CL   UNL     1      -0.187   9.591  23.402  0.00  0.00    +0.000 Cl
BRANCH  20  25
ATOM     25  O   UNL     1      -0.356  11.574  17.881  0.00  0.00    +0.000 OA
ATOM     26  H   UNL     1       0.273  11.092  17.318  0.00  0.00    +0.000 HD
ENDBRANCH  20  25
ENDBRANCH  17  18
ENDBRANCH  15  17
ENDBRANCH   5  13
BRANCH   1  28
ATOM     27  C   UNL     1       7.379   4.666  17.733  0.00  0.00    +0.000 C 
ATOM     28  C   UNL     1       6.115   4.494  16.902  0.00  0.00    +0.000 C 
ENDBRANCH   1  28
TORSDOF 6
ENDMDL
MODEL 4
REMARK VINA RESULT:      -7.7      2.066      3.693
REMARK  Name = 
REMARK  8 active torsions:
REMARK  status: ('A' for Active; 'I' for Inactive)
REMARK    1  A    between atoms: C_1  and  C_2
REMARK    2  A    between atoms: C_2  and  N_3
REMARK    3  A    between atoms: C_7  and  C_8
REMARK    4  A    between atoms: N_10  and  C_11
REMARK    5  A    between atoms: C_11  and  C_12
REMARK    6  A    between atoms: C_14  and  O_15
REMARK    7  A    between atoms: C_20  and  C_21
REMARK    8  A    between atoms: N_25  and  C_26
REMARK                            x       y       z     vdW  Elec       q    Type
REMARK                         _______ _______ _______ _____ _____    ______ ____
ROOT
ATOM      1  N   UNL     1       5.340   5.468  18.025  0.00  0.00    +0.000 N 
ATOM      2  C   UNL     1       4.869   6.545  17.292  0.00  0.00    +0.000 C 
ATOM      3  O   UNL     1       5.455   7.110  16.383  0.00  0.00    +0.000 OA
ATOM      4  C   UNL     1       3.529   6.955  17.840  0.00  0.00    +0.000 C 
ATOM      5  C   UNL     1       3.089   5.736  18.648  0.00  0.00    +0.000 C 
ATOM      6  C   UNL     1       4.411   5.071  19.074  0.00  0.00    +0.000 C 
ENDROOT
BRANCH   6   7
ATOM      7  C   UNL     1       4.267   3.571  19.114  0.00  0.00    +0.000 A 
ATOM      8  N   UNL     1       4.842   2.786  20.010  0.00  0.00    +0.000 NA
ATOM      9  C   UNL     1       4.418   1.517  19.745  0.00  0.00    +0.000 A 
ATOM     10  C   UNL     1       3.613   1.505  18.635  0.00  0.00    +0.000 A 
ATOM     11  N   UNL     1       3.540   2.808  18.224  0.00  0.00    +0.000 N 
ATOM     12  C   UNL     1       2.797   3.257  17.073  0.00  0.00    +0.000 C 
ENDBRANCH   6   7
BRANCH   5  13
ATOM     13  C   UNL     1       2.219   6.064  19.846  0.00  0.00    +0.000 C 
ATOM     14  O   UNL     1       1.607   5.219  20.484  0.00  0.00    +0.000 OA
ATOM     15  N   UNL     1       2.202   7.410  20.168  0.00  0.00    +0.000 N 
ATOM     16  H   UNL     1       2.797   8.048  19.645  0.00  0.00    +0.000 HD
BRANCH  15  17
ATOM     17  C   UNL     1       1.464   7.948  21.286  0.00  0.00    +0.000 C 
BRANCH  17  18
ATOM     18  C   UNL     1       0.691   9.186  20.903  0.00  0.00    +0.000 A 
ATOM     19  C   UNL     1       0.649   9.559  19.546  0.00  0.00    +0.000 A 
ATOM     20  C   UNL     1      -0.027  10.713  19.150  0.00  0.00    +0.000 A 
ATOM     21  C   UNL     1      -0.678  11.510  20.078  0.00  0.00    +0.000 A 
ATOM     22  C   UNL     1      -0.671  11.142  21.424  0.00  0.00    +0.000 A 
ATOM     23  C   UNL     1       0.002   9.982  21.833  0.00  0.00    +0.000 A 
ATOM     24 CL   UNL     1      -0.057   9.579  23.512  0.00  0.00    +0.000 Cl
BRANCH  20  25
ATOM     25  O   UNL     1      -0.065  11.099  17.844  0.00  0.00    +0.000 OA
ATOM     26  H   UNL     1       0.336  10.404  17.297  0.00  0.00    +0.000 HD
ENDBRANCH  20  25
ENDBRANCH  17  18
ENDBRANCH  15  17
ENDBRANCH   5  13
BRANCH   1  28
ATOM     27  C   UNL     1       7.710   5.644  18.758  0.00  0.00    +0.000 C 
ATOM     28  C   UNL     1       6.690   4.946  17.869  0.00  0.00    +0.000 C 
ENDBRANCH   1  28
TORSDOF 6
ENDMDL
MODEL 5
REMARK VINA RESULT:      -7.6      1.979      2.539
REMARK  Name = 
REMARK  8 active torsions:
REMARK  status: ('A' for Active; 'I' for Inactive)
REMARK    1  A    between atoms: C_1  and  C_2
REMARK    2  A    between atoms: C_2  and  N_3
REMARK    3  A    between atoms: C_7  and  C_8
REMARK    4  A    between atoms: N_10  and  C_11
REMARK    5  A    between atoms: C_11  and  C_12
REMARK    6  A    between atoms: C_14  and  O_15
REMARK    7  A    between atoms: C_20  and  C_21
REMARK    8  A    between atoms: N_25  and  C_26
REMARK                            x       y       z     vdW  Elec       q    Type
REMARK                         _______ _______ _______ _____ _____    ______ ____
ROOT
ATOM      1  N   UNL     1       3.545   3.844  19.589  0.00  0.00    +0.000 N 
ATOM      2  C   UNL     1       2.628   4.300  20.523  0.00  0.00    +0.000 C 
ATOM      3  O   UNL     1       2.121   3.642  21.418  0.00  0.00    +0.000 OA
ATOM      4  C   UNL     1       2.300   5.736  20.219  0.00  0.00    +0.000 C 
ATOM      5  C   UNL     1       3.447   6.176  19.312  0.00  0.00    +0.000 C 
ATOM      6  C   UNL     1       3.904   4.875  18.626  0.00  0.00    +0.000 C 
ENDROOT
BRANCH   6   7
ATOM      7  C   UNL     1       5.394   4.887  18.395  0.00  0.00    +0.000 A 
ATOM      8  N   UNL     1       6.289   5.275  19.287  0.00  0.00    +0.000 NA
ATOM      9  C   UNL     1       7.514   5.077  18.722  0.00  0.00    +0.000 A 
ATOM     10  C   UNL     1       7.378   4.613  17.439  0.00  0.00    +0.000 A 
ATOM     11  N   UNL     1       6.029   4.517  17.228  0.00  0.00    +0.000 N 
ATOM     12  C   UNL     1       5.429   4.073  15.994  0.00  0.00    +0.000 C 
ENDBRANCH   6   7
BRANCH   5  13
ATOM     13  C   UNL     1       3.066   7.237  18.297  0.00  0.00    +0.000 C 
ATOM     14  O   UNL     1       3.671   7.410  17.247  0.00  0.00    +0.000 OA
ATOM     15  N   UNL     1       1.953   7.975  18.656  0.00  0.00    +0.000 N 
ATOM     16  H   UNL     1       1.451   7.726  19.505  0.00  0.00    +0.000 HD
BRANCH  15  17
ATOM     17  C   UNL     1       1.394   9.019  17.831  0.00  0.00    +0.000 C 
BRANCH  17  18
ATOM     18  C   UNL     1       1.501  10.372  18.491  0.00  0.00    +0.000 A 
ATOM     19  C   UNL     1       2.308  11.353  17.886  0.00  0.00    +0.000 A 
ATOM     20  C   UNL     1       2.462  12.607  18.477  0.00  0.00    +0.000 A 
ATOM     21  C   UNL     1       1.817  12.918  19.665  0.00  0.00    +0.000 A 
ATOM     22  C   UNL     1       0.990  11.967  20.266  0.00  0.00    +0.000 A 
ATOM     23  C   UNL     1       0.826  10.705  19.677  0.00  0.00    +0.000 A 
ATOM     24 CL   UNL     1      -0.234   9.592  20.467  0.00  0.00    +0.000 Cl
BRANCH  20  25
ATOM     25  O   UNL     1       3.251  13.565  17.916  0.00  0.00    +0.000 OA
ATOM     26  H   UNL     1       4.099  13.164  17.660  0.00  0.00    +0.000 HD
ENDBRANCH  20  25
ENDBRANCH  17  18
ENDBRANCH  15  17
ENDBRANCH   5  13
BRANCH   1  28
ATOM     27  C   UNL     1       3.345   1.742  18.274  0.00  0.00    +0.000 C 
ATOM     28  C   UNL     1       3.931   2.443  19.492  0.00  0.00    +0.000 C 
ENDBRANCH   1  28
TORSDOF 6
ENDMDL
MODEL 6
REMARK VINA RESULT:      -7.4      1.088      1.201
REMARK  Name = 
REMARK  8 active torsions:
REMARK  status: ('A' for Active; 'I' for Inactive)
REMARK    1  A    between atoms: C_1  and  C_2
REMARK    2  A    between atoms: C_2  and  N_3
REMARK    3  A    between atoms: C_7  and  C_8
REMARK    4  A    between atoms: N_10  and  C_11
REMARK    5  A    between atoms: C_11  and  C_12
REMARK    6  A    between atoms: C_14  and  O_15
REMARK    7  A    between atoms: C_20  and  C_21
REMARK    8  A    between atoms: N_25  and  C_26
REMARK                            x       y       z     vdW  Elec       q    Type
REMARK                         _______ _______ _______ _____ _____    ______ ____
ROOT
ATOM      1  N   UNL     1       3.504   3.683  19.631  0.00  0.00    +0.000 N 
ATOM      2  C   UNL     1       2.534   3.996  20.570  0.00  0.00    +0.000 C 
ATOM      3  O   UNL     1       2.033   3.226  21.374  0.00  0.00    +0.000 OA
ATOM      4  C   UNL     1       2.142   5.438  20.399  0.00  0.00    +0.000 C 
ATOM      5  C   UNL     1       3.295   6.024  19.585  0.00  0.00    +0.000 C 
ATOM      6  C   UNL     1       3.841   4.823  18.791  0.00  0.00    +0.000 C 
ENDROOT
BRANCH   6   7
ATOM      7  C   UNL     1       5.335   4.930  18.618  0.00  0.00    +0.000 A 
ATOM      8  N   UNL     1       6.169   5.351  19.554  0.00  0.00    +0.000 NA
ATOM      9  C   UNL     1       7.425   5.241  19.034  0.00  0.00    +0.000 A 
ATOM     10  C   UNL     1       7.367   4.800  17.737  0.00  0.00    +0.000 A 
ATOM     11  N   UNL     1       6.036   4.627  17.470  0.00  0.00    +0.000 N 
ATOM     12  C   UNL     1       5.512   4.179  16.204  0.00  0.00    +0.000 C 
ENDBRANCH   6   7
BRANCH   5  13
ATOM     13  C   UNL     1       2.893   7.163  18.668  0.00  0.00    +0.000 C 
ATOM     14  O   UNL     1       3.349   7.312  17.543  0.00  0.00    +0.000 OA
ATOM     15  N   UNL     1       1.940   8.006  19.213  0.00  0.00    +0.000 N 
ATOM     16  H   UNL     1       1.545   7.778  20.122  0.00  0.00    +0.000 HD
BRANCH  15  17
ATOM     17  C   UNL     1       1.391   9.140  18.510  0.00  0.00    +0.000 C 
BRANCH  17  18
ATOM     18  C   UNL     1       1.003  10.250  19.456  0.00  0.00    +0.000 A 
ATOM     19  C   UNL     1       0.209   9.934  20.574  0.00  0.00    +0.000 A 
ATOM     20  C   UNL     1      -0.201  10.933  21.456  0.00  0.00    +0.000 A 
ATOM     21  C   UNL     1       0.173  12.254  21.260  0.00  0.00    +0.000 A 
ATOM     22  C   UNL     1       0.983  12.583  20.172  0.00  0.00    +0.000 A 
ATOM     23  C   UNL     1       1.403  11.585  19.280  0.00  0.00    +0.000 A 
ATOM     24 CL   UNL     1       2.426  12.067  17.973  0.00  0.00    +0.000 Cl
BRANCH  20  25
ATOM     25  O   UNL     1      -0.983  10.650  22.535  0.00  0.00    +0.000 OA
ATOM     26  H   UNL     1      -1.889  10.953  22.355  0.00  0.00    +0.000 HD
ENDBRANCH  20  25
ENDBRANCH  17  18
ENDBRANCH  15  17
ENDBRANCH   5  13
BRANCH   1  28
ATOM     27  C   UNL     1       3.409   1.698  18.135  0.00  0.00    +0.000 C 
ATOM     28  C   UNL     1       3.965   2.320  19.408  0.00  0.00    +0.000 C 
ENDBRANCH   1  28
TORSDOF 6
ENDMDL
MODEL 7
REMARK VINA RESULT:      -7.4      1.923      2.388
REMARK  Name = 
REMARK  8 active torsions:
REMARK  status: ('A' for Active; 'I' for Inactive)
REMARK    1  A    between atoms: C_1  and  C_2
REMARK    2  A    between atoms: C_2  and  N_3
REMARK    3  A    between atoms: C_7  and  C_8
REMARK    4  A    between atoms: N_10  and  C_11
REMARK    5  A    between atoms: C_11  and  C_12
REMARK    6  A    between atoms: C_14  and  O_15
REMARK    7  A    between atoms: C_20  and  C_21
REMARK    8  A    between atoms: N_25  and  C_26
REMARK                            x       y       z     vdW  Elec       q    Type
REMARK                         _______ _______ _______ _____ _____    ______ ____
ROOT
ATOM      1  N   UNL     1       3.314   4.049  19.577  0.00  0.00    +0.000 N 
ATOM      2  C   UNL     1       2.314   4.501  20.424  0.00  0.00    +0.000 C 
ATOM      3  O   UNL     1       1.722   3.837  21.260  0.00  0.00    +0.000 OA
ATOM      4  C   UNL     1       2.024   5.942  20.105  0.00  0.00    +0.000 C 
ATOM      5  C   UNL     1       3.255   6.384  19.315  0.00  0.00    +0.000 C 
ATOM      6  C   UNL     1       3.768   5.087  18.663  0.00  0.00    +0.000 C 
ENDROOT
BRANCH   6   7
ATOM      7  C   UNL     1       5.273   5.092  18.574  0.00  0.00    +0.000 A 
ATOM      8  N   UNL     1       6.079   5.548  19.518  0.00  0.00    +0.000 NA
ATOM      9  C   UNL     1       7.353   5.319  19.088  0.00  0.00    +0.000 A 
ATOM     10  C   UNL     1       7.340   4.764  17.834  0.00  0.00    +0.000 A 
ATOM     11  N   UNL     1       6.017   4.644  17.503  0.00  0.00    +0.000 N 
ATOM     12  C   UNL     1       5.537   4.111  16.252  0.00  0.00    +0.000 C 
ENDBRANCH   6   7
BRANCH   5  13
ATOM     13  C   UNL     1       2.978   7.457  18.280  0.00  0.00    +0.000 C 
ATOM     14  O   UNL     1       3.506   7.478  17.176  0.00  0.00    +0.000 OA
ATOM     15  N   UNL     1       2.050   8.398  18.689  0.00  0.00    +0.000 N 
ATOM     16  H   UNL     1       1.589   8.276  19.588  0.00  0.00    +0.000 HD
BRANCH  15  17
ATOM     17  C   UNL     1       1.612   9.494  17.857  0.00  0.00    +0.000 C 
BRANCH  17  18
ATOM     18  C   UNL     1       0.254  10.004  18.272  0.00  0.00    +0.000 A 
ATOM     19  C   UNL     1      -0.868   9.618  17.516  0.00  0.00    +0.000 A 
ATOM     20  C   UNL     1      -2.139  10.092  17.843  0.00  0.00    +0.000 A 
ATOM     21  C   UNL     1      -2.326  10.941  18.923  0.00  0.00    +0.000 A 
ATOM     22  C   UNL     1      -1.228  11.313  19.702  0.00  0.00    +0.000 A 
ATOM     23  C   UNL     1       0.053  10.839  19.384  0.00  0.00    +0.000 A 
ATOM     24 CL   UNL     1       1.356  11.323  20.410  0.00  0.00    +0.000 Cl
BRANCH  20  25
ATOM     25  O   UNL     1      -3.235   9.744  17.114  0.00  0.00    +0.000 OA
ATOM     26  H   UNL     1      -3.360   8.781  17.172  0.00  0.00    +0.000 HD
ENDBRANCH  20  25
ENDBRANCH  17  18
ENDBRANCH  15  17
ENDBRANCH   5  13
BRANCH   1  28
ATOM     27  C   UNL     1       3.229   1.961  18.228  0.00  0.00    +0.000 C 
ATOM     28  C   UNL     1       3.700   2.647  19.503  0.00  0.00    +0.000 C 
ENDBRANCH   1  28
TORSDOF 6
ENDMDL
MODEL 8
REMARK VINA RESULT:      -7.3      2.156      4.073
REMARK  Name = 
REMARK  8 active torsions:
REMARK  status: ('A' for Active; 'I' for Inactive)
REMARK    1  A    between atoms: C_1  and  C_2
REMARK    2  A    between atoms: C_2  and  N_3
REMARK    3  A    between atoms: C_7  and  C_8
REMARK    4  A    between atoms: N_10  and  C_11
REMARK    5  A    between atoms: C_11  and  C_12
REMARK    6  A    between atoms: C_14  and  O_15
REMARK    7  A    between atoms: C_20  and  C_21
REMARK    8  A    between atoms: N_25  and  C_26
REMARK                            x       y       z     vdW  Elec       q    Type
REMARK                         _______ _______ _______ _____ _____    ______ ____
ROOT
ATOM      1  N   UNL     1       4.656   5.428  17.491  0.00  0.00    +0.000 N 
ATOM      2  C   UNL     1       4.659   6.622  16.788  0.00  0.00    +0.000 C 
ATOM      3  O   UNL     1       5.402   6.913  15.864  0.00  0.00    +0.000 OA
ATOM      4  C   UNL     1       3.631   7.542  17.389  0.00  0.00    +0.000 C 
ATOM      5  C   UNL     1       2.744   6.599  18.199  0.00  0.00    +0.000 C 
ATOM      6  C   UNL     1       3.677   5.431  18.569  0.00  0.00    +0.000 C 
ENDROOT
BRANCH   6   7
ATOM      7  C   UNL     1       2.919   4.128  18.598  0.00  0.00    +0.000 A 
ATOM      8  N   UNL     1       1.781   3.908  17.960  0.00  0.00    +0.000 NA
ATOM      9  C   UNL     1       1.455   2.603  18.184  0.00  0.00    +0.000 A 
ATOM     10  C   UNL     1       2.372   2.019  19.019  0.00  0.00    +0.000 A 
ATOM     11  N   UNL     1       3.286   2.998  19.298  0.00  0.00    +0.000 N 
ATOM     12  C   UNL     1       4.430   2.822  20.158  0.00  0.00    +0.000 C 
ENDBRANCH   6   7
BRANCH   5  13
ATOM     13  C   UNL     1       2.127   7.231  19.432  0.00  0.00    +0.000 C 
ATOM     14  O   UNL     1       2.026   6.652  20.505  0.00  0.00    +0.000 OA
ATOM     15  N   UNL     1       1.710   8.536  19.238  0.00  0.00    +0.000 N 
ATOM     16  H   UNL     1       1.897   8.983  18.344  0.00  0.00    +0.000 HD
BRANCH  15  17
ATOM     17  C   UNL     1       1.119   9.342  20.279  0.00  0.00    +0.000 C 
BRANCH  17  18
ATOM     18  C   UNL     1      -0.028  10.174  19.760  0.00  0.00    +0.000 A 
ATOM     19  C   UNL     1      -0.398  10.039  18.409  0.00  0.00    +0.000 A 
ATOM     20  C   UNL     1      -1.431  10.811  17.877  0.00  0.00    +0.000 A 
ATOM     21  C   UNL     1      -2.121  11.718  18.667  0.00  0.00    +0.000 A 
ATOM     22  C   UNL     1      -1.786  11.846  20.016  0.00  0.00    +0.000 A 
ATOM     23  C   UNL     1      -0.752  11.072  20.561  0.00  0.00    +0.000 A 
ATOM     24 CL   UNL     1      -0.415  11.269  22.244  0.00  0.00    +0.000 Cl
BRANCH  20  25
ATOM     25  O   UNL     1      -1.793  10.706  16.568  0.00  0.00    +0.000 OA
ATOM     26  H   UNL     1      -1.569  11.535  16.112  0.00  0.00    +0.000 HD
ENDBRANCH  20  25
ENDBRANCH  17  18
ENDBRANCH  15  17
ENDBRANCH   5  13
BRANCH   1  28
ATOM     27  C   UNL     1       7.016   4.742  17.874  0.00  0.00    +0.000 C 
ATOM     28  C   UNL     1       5.658   4.394  17.280  0.00  0.00    +0.000 C 
ENDBRANCH   1  28
TORSDOF 6
ENDMDL
MODEL 9
REMARK VINA RESULT:      -7.3      2.379      4.267
REMARK  Name = 
REMARK  8 active torsions:
REMARK  status: ('A' for Active; 'I' for Inactive)
REMARK    1  A    between atoms: C_1  and  C_2
REMARK    2  A    between atoms: C_2  and  N_3
REMARK    3  A    between atoms: C_7  and  C_8
REMARK    4  A    between atoms: N_10  and  C_11
REMARK    5  A    between atoms: C_11  and  C_12
REMARK    6  A    between atoms: C_14  and  O_15
REMARK    7  A    between atoms: C_20  and  C_21
REMARK    8  A    between atoms: N_25  and  C_26
REMARK                            x       y       z     vdW  Elec       q    Type
REMARK                         _______ _______ _______ _____ _____    ______ ____
ROOT
ATOM      1  N   UNL     1       4.266   5.737  18.535  0.00  0.00    +0.000 N 
ATOM      2  C   UNL     1       4.315   6.597  17.450  0.00  0.00    +0.000 C 
ATOM      3  O   UNL     1       5.100   6.539  16.517  0.00  0.00    +0.000 OA
ATOM      4  C   UNL     1       3.274   7.668  17.634  0.00  0.00    +0.000 C 
ATOM      5  C   UNL     1       2.341   7.077  18.689  0.00  0.00    +0.000 C 
ATOM      6  C   UNL     1       3.242   6.123  19.495  0.00  0.00    +0.000 C 
ENDROOT
BRANCH   6   7
ATOM      7  C   UNL     1       2.466   4.916  19.957  0.00  0.00    +0.000 A 
ATOM      8  N   UNL     1       2.419   4.488  21.207  0.00  0.00    +0.000 NA
ATOM      9  C   UNL     1       1.570   3.420  21.222  0.00  0.00    +0.000 A 
ATOM     10  C   UNL     1       1.127   3.146  19.954  0.00  0.00    +0.000 A 
ATOM     11  N   UNL     1       1.718   4.084  19.151  0.00  0.00    +0.000 N 
ATOM     12  C   UNL     1       1.536   4.162  17.722  0.00  0.00    +0.000 C 
ENDBRANCH   6   7
BRANCH   5  13
ATOM     13  C   UNL     1       1.680   8.109  19.583  0.00  0.00    +0.000 C 
ATOM     14  O   UNL     1       1.502   7.943  20.782  0.00  0.00    +0.000 OA
ATOM     15  N   UNL     1       1.319   9.268  18.920  0.00  0.00    +0.000 N 
ATOM     16  H   UNL     1       1.568   9.372  17.939  0.00  0.00    +0.000 HD
BRANCH  15  17
ATOM     17  C   UNL     1       0.700  10.395  19.576  0.00  0.00    +0.000 C 
BRANCH  17  18
ATOM     18  C   UNL     1      -0.649  10.717  18.982  0.00  0.00    +0.000 A 
ATOM     19  C   UNL     1      -1.012  10.105  17.767  0.00  0.00    +0.000 A 
ATOM     20  C   UNL     1      -2.235  10.397  17.165  0.00  0.00    +0.000 A 
ATOM     21  C   UNL     1      -3.123  11.286  17.751  0.00  0.00    +0.000 A 
ATOM     22  C   UNL     1      -2.793  11.882  18.969  0.00  0.00    +0.000 A 
ATOM     23  C   UNL     1      -1.567  11.592  19.586  0.00  0.00    +0.000 A 
ATOM     24 CL   UNL     1      -1.243  12.350  21.104  0.00  0.00    +0.000 Cl
BRANCH  20  25
ATOM     25  O   UNL     1      -2.598   9.828  15.982  0.00  0.00    +0.000 OA
ATOM     26  H   UNL     1      -2.581   8.861  16.079  0.00  0.00    +0.000 HD
ENDBRANCH  20  25
ENDBRANCH  17  18
ENDBRANCH  15  17
ENDBRANCH   5  13
BRANCH   1  28
ATOM     27  C   UNL     1       6.584   5.237  19.285  0.00  0.00    +0.000 C 
ATOM     28  C   UNL     1       5.263   4.698  18.755  0.00  0.00    +0.000 C 
ENDBRANCH   1  28
TORSDOF 6
ENDMDL
