MODEL 1
REMARK VINA RESULT:      -8.2      0.000      0.000
REMARK  Name = 
REMARK  8 active torsions:
REMARK  status: ('A' for Active; 'I' for Inactive)
REMARK    1  A    between atoms: C_1  and  C_2
REMARK    2  A    between atoms: C_3  and  C_4
REMARK    3  A    between atoms: C_4  and  C_5
REMARK    4  A    between atoms: C_14  and  S_15
REMARK    5  A    between atoms: S_15  and  C_16
REMARK    6  A    between atoms: C_16  and  C_17
REMARK    7  A    between atoms: N_19  and  C_20
REMARK    8  A    between atoms: C_23  and  N_24
REMARK                            x       y       z     vdW  Elec       q    Type
REMARK                         _______ _______ _______ _____ _____    ______ ____
ROOT
ATOM      1  C   UNL     1       2.383   2.995  18.812  0.00  0.00    +0.000 C 
ATOM      2  C   UNL     1       3.601   3.860  18.912  0.00  0.00    +0.000 A 
ATOM      3  C   UNL     1       3.708   5.178  18.634  0.00  0.00    +0.000 A 
ATOM      4  N   UNL     1       4.887   5.880  18.788  0.00  0.00    +0.000 NA
ATOM      5  C   UNL     1       5.957   5.211  19.042  0.00  0.00    +0.000 A 
ATOM      6  N   UNL     1       5.983   3.883  19.280  0.00  0.00    +0.000 N 
ATOM      7  C   UNL     1       4.840   3.153  19.341  0.00  0.00    +0.000 A 
ATOM      8  O   UNL     1       4.832   1.993  19.737  0.00  0.00    +0.000 OA
ATOM      9  H   UNL     1       6.849   3.441  19.560  0.00  0.00    +0.000 HD
ENDROOT
BRANCH   3  10
ATOM     10  C   UNL     1       2.535   6.069  18.220  0.00  0.00    +0.000 C 
BRANCH  10  11
ATOM     11  C   UNL     1       2.027   7.061  19.255  0.00  0.00    +0.000 A 
ATOM     12  C   UNL     1       1.896   8.432  18.937  0.00  0.00    +0.000 A 
ATOM     13 CL   UNL     1       2.199   9.058  17.351  0.00  0.00    +0.000 Cl
ATOM     14  C   UNL     1       1.459   9.367  19.886  0.00  0.00    +0.000 A 
ATOM     15  C   UNL     1       1.117   8.962  21.172  0.00  0.00    +0.000 A 
ATOM     16  C   UNL     1       1.170   7.615  21.491  0.00  0.00    +0.000 A 
ATOM     17  C   UNL     1       1.594   6.672  20.544  0.00  0.00    +0.000 A 
ATOM     18 CL   UNL     1       1.446   5.026  21.050  0.00  0.00    +0.000 Cl
ENDBRANCH  10  11
ENDBRANCH   3  10
BRANCH   5  19
ATOM     19  S   UNL     1       7.526   5.939  19.103  0.00  0.00    +0.000 S 
BRANCH  19  20
ATOM     20  C   UNL     1       7.340   7.263  17.873  0.00  0.00    +0.000 C 
BRANCH  20  21
ATOM     21  C   UNL     1       6.729   6.702  16.603  0.00  0.00    +0.000 C 
ATOM     22  O   UNL     1       5.703   7.200  16.141  0.00  0.00    +0.000 OA
ATOM     23  N   UNL     1       7.389   5.589  16.098  0.00  0.00    +0.000 N 
ATOM     24  H   UNL     1       8.063   5.155  16.732  0.00  0.00    +0.000 HD
BRANCH  23  25
ATOM     25  C   UNL     1       6.956   4.819  14.998  0.00  0.00    +0.000 A 
ATOM     26  C   UNL     1       7.457   5.009  13.709  0.00  0.00    +0.000 A 
ATOM     27  C   UNL     1       6.906   4.337  12.617  0.00  0.00    +0.000 A 
ATOM     28  C   UNL     1       5.856   3.441  12.821  0.00  0.00    +0.000 A 
ATOM     29  C   UNL     1       5.395   3.174  14.117  0.00  0.00    +0.000 A 
ATOM     30  C   UNL     1       5.958   3.857  15.205  0.00  0.00    +0.000 A 
BRANCH  28  31
ATOM     31  N   UNL     1       5.216   2.807  11.663  0.00  0.00    +0.000 N 
ATOM     32  O   UNL     1       5.645   1.702  11.297  0.00  0.00    +0.000 OA
ATOM     33  O   UNL     1       4.292   3.420  11.110  0.00  0.00    +0.000 OA
ENDBRANCH  28  31
ENDBRANCH  23  25
ENDBRANCH  20  21
ENDBRANCH  19  20
ENDBRANCH   5  19
TORSDOF 7
ENDMDL
MODEL 2
REMARK VINA RESULT:      -8.1      5.616      9.909
REMARK  Name = 
REMARK  8 active torsions:
REMARK  status: ('A' for Active; 'I' for Inactive)
REMARK    1  A    between atoms: C_1  and  C_2
REMARK    2  A    between atoms: C_3  and  C_4
REMARK    3  A    between atoms: C_4  and  C_5
REMARK    4  A    between atoms: C_14  and  S_15
REMARK    5  A    between atoms: S_15  and  C_16
REMARK    6  A    between atoms: C_16  and  C_17
REMARK    7  A    between atoms: N_19  and  C_20
REMARK    8  A    between atoms: C_23  and  N_24
REMARK                            x       y       z     vdW  Elec       q    Type
REMARK                         _______ _______ _______ _____ _____    ______ ____
ROOT
ATOM      1  C   UNL     1       3.562   2.399  20.570  0.00  0.00    +0.000 C 
ATOM      2  C   UNL     1       3.197   3.817  20.262  0.00  0.00    +0.000 A 
ATOM      3  C   UNL     1       3.979   4.777  19.720  0.00  0.00    +0.000 A 
ATOM      4  N   UNL     1       3.520   6.053  19.457  0.00  0.00    +0.000 NA
ATOM      5  C   UNL     1       2.359   6.379  19.905  0.00  0.00    +0.000 A 
ATOM      6  N   UNL     1       1.512   5.523  20.515  0.00  0.00    +0.000 N 
ATOM      7  C   UNL     1       1.807   4.204  20.636  0.00  0.00    +0.000 A 
ATOM      8  O   UNL     1       0.977   3.387  21.016  0.00  0.00    +0.000 OA
ATOM      9  H   UNL     1       0.580   5.830  20.760  0.00  0.00    +0.000 HD
ENDROOT
BRANCH   3  10
ATOM     10  C   UNL     1       5.413   4.550  19.241  0.00  0.00    +0.000 C 
BRANCH  10  11
ATOM     11  C   UNL     1       5.678   4.735  17.755  0.00  0.00    +0.000 A 
ATOM     12  C   UNL     1       6.697   5.607  17.307  0.00  0.00    +0.000 A 
ATOM     13 CL   UNL     1       7.765   6.435  18.391  0.00  0.00    +0.000 Cl
ATOM     14  C   UNL     1       6.937   5.815  15.941  0.00  0.00    +0.000 A 
ATOM     15  C   UNL     1       6.188   5.144  14.982  0.00  0.00    +0.000 A 
ATOM     16  C   UNL     1       5.229   4.231  15.392  0.00  0.00    +0.000 A 
ATOM     17  C   UNL     1       4.991   4.008  16.755  0.00  0.00    +0.000 A 
ATOM     18 CL   UNL     1       3.883   2.726  17.093  0.00  0.00    +0.000 Cl
ENDBRANCH  10  11
ENDBRANCH   3  10
BRANCH   5  19
ATOM     19  S   UNL     1       1.727   7.986  19.789  0.00  0.00    +0.000 S 
BRANCH  19  20
ATOM     20  C   UNL     1       1.533   8.409  21.545  0.00  0.00    +0.000 C 
BRANCH  20  21
ATOM     21  C   UNL     1       0.170   9.036  21.774  0.00  0.00    +0.000 C 
ATOM     22  O   UNL     1      -0.838   8.331  21.785  0.00  0.00    +0.000 OA
ATOM     23  N   UNL     1       0.194  10.420  21.895  0.00  0.00    +0.000 N 
ATOM     24  H   UNL     1       1.067  10.868  21.612  0.00  0.00    +0.000 HD
BRANCH  23  25
ATOM     25  C   UNL     1      -0.945  11.245  21.999  0.00  0.00    +0.000 A 
ATOM     26  C   UNL     1      -1.638  11.415  23.198  0.00  0.00    +0.000 A 
ATOM     27  C   UNL     1      -2.843  12.116  23.240  0.00  0.00    +0.000 A 
ATOM     28  C   UNL     1      -3.351  12.678  22.068  0.00  0.00    +0.000 A 
ATOM     29  C   UNL     1      -2.630  12.590  20.870  0.00  0.00    +0.000 A 
ATOM     30  C   UNL     1      -1.420  11.882  20.844  0.00  0.00    +0.000 A 
BRANCH  28  31
ATOM     31  N   UNL     1      -4.664  13.334  22.094  0.00  0.00    +0.000 N 
ATOM     32  O   UNL     1      -4.890  14.141  23.008  0.00  0.00    +0.000 OA
ATOM     33  O   UNL     1      -5.475  13.030  21.208  0.00  0.00    +0.000 OA
ENDBRANCH  28  31
ENDBRANCH  23  25
ENDBRANCH  20  21
ENDBRANCH  19  20
ENDBRANCH   5  19
TORSDOF 7
ENDMDL
MODEL 3
REMARK VINA RESULT:      -8.0      5.350      8.352
REMARK  Name = 
REMARK  8 active torsions:
REMARK  status: ('A' for Active; 'I' for Inactive)
REMARK    1  A    between atoms: C_1  and  C_2
REMARK    2  A    between atoms: C_3  and  C_4
REMARK    3  A    between atoms: C_4  and  C_5
REMARK    4  A    between atoms: C_14  and  S_15
REMARK    5  A    between atoms: S_15  and  C_16
REMARK    6  A    between atoms: C_16  and  C_17
REMARK    7  A    between atoms: N_19  and  C_20
REMARK    8  A    between atoms: C_23  and  N_24
REMARK                            x       y       z     vdW  Elec       q    Type
REMARK                         _______ _______ _______ _____ _____    ______ ____
ROOT
ATOM      1  C   UNL     1      -3.703  13.763  20.856  0.00  0.00    +0.000 C 
ATOM      2  C   UNL     1      -2.706  12.779  21.383  0.00  0.00    +0.000 A 
ATOM      3  C   UNL     1      -1.707  12.167  20.710  0.00  0.00    +0.000 A 
ATOM      4  N   UNL     1      -0.829  11.289  21.313  0.00  0.00    +0.000 NA
ATOM      5  C   UNL     1      -1.084  10.916  22.519  0.00  0.00    +0.000 A 
ATOM      6  N   UNL     1      -2.088  11.413  23.271  0.00  0.00    +0.000 N 
ATOM      7  C   UNL     1      -2.876  12.422  22.820  0.00  0.00    +0.000 A 
ATOM      8  O   UNL     1      -3.665  13.005  23.554  0.00  0.00    +0.000 OA
ATOM      9  H   UNL     1      -2.172  11.136  24.241  0.00  0.00    +0.000 HD
ENDROOT
BRANCH   3  10
ATOM     10  C   UNL     1      -1.363  12.440  19.245  0.00  0.00    +0.000 C 
BRANCH  10  11
ATOM     11  C   UNL     1       0.037  12.961  18.955  0.00  0.00    +0.000 A 
ATOM     12  C   UNL     1       0.352  14.326  19.143  0.00  0.00    +0.000 A 
ATOM     13 CL   UNL     1      -0.776  15.466  19.800  0.00  0.00    +0.000 Cl
ATOM     14  C   UNL     1       1.627  14.832  18.853  0.00  0.00    +0.000 A 
ATOM     15  C   UNL     1       2.632  13.992  18.390  0.00  0.00    +0.000 A 
ATOM     16  C   UNL     1       2.372  12.637  18.262  0.00  0.00    +0.000 A 
ATOM     17  C   UNL     1       1.104  12.121  18.562  0.00  0.00    +0.000 A 
ATOM     18 CL   UNL     1       0.995  10.397  18.505  0.00  0.00    +0.000 Cl
ENDBRANCH  10  11
ENDBRANCH   3  10
BRANCH   5  19
ATOM     19  S   UNL     1      -0.161   9.704  23.340  0.00  0.00    +0.000 S 
BRANCH  19  20
ATOM     20  C   UNL     1       1.213   9.468  22.175  0.00  0.00    +0.000 C 
BRANCH  20  21
ATOM     21  C   UNL     1       0.963   8.234  21.329  0.00  0.00    +0.000 C 
ATOM     22  O   UNL     1      -0.168   7.757  21.255  0.00  0.00    +0.000 OA
ATOM     23  N   UNL     1       2.107   7.706  20.742  0.00  0.00    +0.000 N 
ATOM     24  H   UNL     1       2.991   8.066  21.106  0.00  0.00    +0.000 HD
BRANCH  23  25
ATOM     25  C   UNL     1       2.160   6.504  20.006  0.00  0.00    +0.000 A 
ATOM     26  C   UNL     1       1.923   5.258  20.590  0.00  0.00    +0.000 A 
ATOM     27  C   UNL     1       2.127   4.078  19.875  0.00  0.00    +0.000 A 
ATOM     28  C   UNL     1       2.550   4.144  18.547  0.00  0.00    +0.000 A 
ATOM     29  C   UNL     1       2.712   5.385  17.917  0.00  0.00    +0.000 A 
ATOM     30  C   UNL     1       2.504   6.563  18.648  0.00  0.00    +0.000 A 
BRANCH  28  31
ATOM     31  N   UNL     1       2.854   2.903  17.826  0.00  0.00    +0.000 N 
ATOM     32  O   UNL     1       1.916   2.128  17.586  0.00  0.00    +0.000 OA
ATOM     33  O   UNL     1       4.034   2.697  17.510  0.00  0.00    +0.000 OA
ENDBRANCH  28  31
ENDBRANCH  23  25
ENDBRANCH  20  21
ENDBRANCH  19  20
ENDBRANCH   5  19
TORSDOF 7
ENDMDL
MODEL 4
REMARK VINA RESULT:      -8.0      6.141      8.975
REMARK  Name = 
REMARK  8 active torsions:
REMARK  status: ('A' for Active; 'I' for Inactive)
REMARK    1  A    between atoms: C_1  and  C_2
REMARK    2  A    between atoms: C_3  and  C_4
REMARK    3  A    between atoms: C_4  and  C_5
REMARK    4  A    between atoms: C_14  and  S_15
REMARK    5  A    between atoms: S_15  and  C_16
REMARK    6  A    between atoms: C_16  and  C_17
REMARK    7  A    between atoms: N_19  and  C_20
REMARK    8  A    between atoms: C_23  and  N_24
REMARK                            x       y       z     vdW  Elec       q    Type
REMARK                         _______ _______ _______ _____ _____    ______ ____
ROOT
ATOM      1  C   UNL     1      -2.861  12.409  23.616  0.00  0.00    +0.000 C 
ATOM      2  C   UNL     1      -2.304  12.110  22.259  0.00  0.00    +0.000 A 
ATOM      3  C   UNL     1      -2.808  12.467  21.058  0.00  0.00    +0.000 A 
ATOM      4  N   UNL     1      -2.188  12.151  19.865  0.00  0.00    +0.000 NA
ATOM      5  C   UNL     1      -1.187  11.343  19.903  0.00  0.00    +0.000 A 
ATOM      6  N   UNL     1      -0.632  10.873  21.039  0.00  0.00    +0.000 N 
ATOM      7  C   UNL     1      -1.059  11.291  22.258  0.00  0.00    +0.000 A 
ATOM      8  O   UNL     1      -0.449  11.019  23.286  0.00  0.00    +0.000 OA
ATOM      9  H   UNL     1       0.208  10.312  20.992  0.00  0.00    +0.000 HD
ENDROOT
BRANCH   3  10
ATOM     10  C   UNL     1      -4.051  13.338  20.870  0.00  0.00    +0.000 C 
BRANCH  10  11
ATOM     11  C   UNL     1      -5.399  12.640  20.970  0.00  0.00    +0.000 A 
ATOM     12  C   UNL     1      -6.257  12.880  22.067  0.00  0.00    +0.000 A 
ATOM     13 CL   UNL     1      -5.893  14.038  23.304  0.00  0.00    +0.000 Cl
ATOM     14  C   UNL     1      -7.489  12.225  22.194  0.00  0.00    +0.000 A 
ATOM     15  C   UNL     1      -7.916  11.328  21.221  0.00  0.00    +0.000 A 
ATOM     16  C   UNL     1      -7.128  11.125  20.099  0.00  0.00    +0.000 A 
ATOM     17  C   UNL     1      -5.900  11.787  19.959  0.00  0.00    +0.000 A 
ATOM     18 CL   UNL     1      -5.122  11.547  18.435  0.00  0.00    +0.000 Cl
ENDBRANCH  10  11
ENDBRANCH   3  10
BRANCH   5  19
ATOM     19  S   UNL     1      -0.417  10.738  18.475  0.00  0.00    +0.000 S 
BRANCH  19  20
ATOM     20  C   UNL     1       1.241  10.358  19.112  0.00  0.00    +0.000 C 
BRANCH  20  21
ATOM     21  C   UNL     1       1.633   8.947  18.714  0.00  0.00    +0.000 C 
ATOM     22  O   UNL     1       1.528   8.586  17.544  0.00  0.00    +0.000 OA
ATOM     23  N   UNL     1       2.033   8.147  19.777  0.00  0.00    +0.000 N 
ATOM     24  H   UNL     1       1.823   8.517  20.706  0.00  0.00    +0.000 HD
BRANCH  23  25
ATOM     25  C   UNL     1       2.336   6.773  19.690  0.00  0.00    +0.000 A 
ATOM     26  C   UNL     1       1.640   5.806  20.416  0.00  0.00    +0.000 A 
ATOM     27  C   UNL     1       2.055   4.474  20.424  0.00  0.00    +0.000 A 
ATOM     28  C   UNL     1       3.170   4.098  19.673  0.00  0.00    +0.000 A 
ATOM     29  C   UNL     1       3.832   5.036  18.871  0.00  0.00    +0.000 A 
ATOM     30  C   UNL     1       3.403   6.371  18.873  0.00  0.00    +0.000 A 
BRANCH  28  31
ATOM     31  N   UNL     1       3.661   2.718  19.756  0.00  0.00    +0.000 N 
ATOM     32  O   UNL     1       4.873   2.545  19.955  0.00  0.00    +0.000 OA
ATOM     33  O   UNL     1       2.836   1.805  19.609  0.00  0.00    +0.000 OA
ENDBRANCH  28  31
ENDBRANCH  23  25
ENDBRANCH  20  21
ENDBRANCH  19  20
ENDBRANCH   5  19
TORSDOF 7
ENDMDL
MODEL 5
REMARK VINA RESULT:      -8.0      0.651      2.020
REMARK  Name = 
REMARK  8 active torsions:
REMARK  status: ('A' for Active; 'I' for Inactive)
REMARK    1  A    between atoms: C_1  and  C_2
REMARK    2  A    between atoms: C_3  and  C_4
REMARK    3  A    between atoms: C_4  and  C_5
REMARK    4  A    between atoms: C_14  and  S_15
REMARK    5  A    between atoms: S_15  and  C_16
REMARK    6  A    between atoms: C_16  and  C_17
REMARK    7  A    between atoms: N_19  and  C_20
REMARK    8  A    between atoms: C_23  and  N_24
REMARK                            x       y       z     vdW  Elec       q    Type
REMARK                         _______ _______ _______ _____ _____    ______ ____
ROOT
ATOM      1  C   UNL     1       1.926   3.697  17.549  0.00  0.00    +0.000 C 
ATOM      2  C   UNL     1       3.197   4.300  18.059  0.00  0.00    +0.000 A 
ATOM      3  C   UNL     1       3.498   5.610  18.195  0.00  0.00    +0.000 A 
ATOM      4  N   UNL     1       4.704   6.050  18.704  0.00  0.00    +0.000 NA
ATOM      5  C   UNL     1       5.631   5.178  18.894  0.00  0.00    +0.000 A 
ATOM      6  N   UNL     1       5.466   3.848  18.735  0.00  0.00    +0.000 N 
ATOM      7  C   UNL     1       4.255   3.318  18.427  0.00  0.00    +0.000 A 
ATOM      8  O   UNL     1       4.049   2.110  18.462  0.00  0.00    +0.000 OA
ATOM      9  H   UNL     1       6.215   3.216  18.988  0.00  0.00    +0.000 HD
ENDROOT
BRANCH   3  10
ATOM     10  C   UNL     1       2.523   6.752  17.904  0.00  0.00    +0.000 C 
BRANCH  10  11
ATOM     11  C   UNL     1       1.994   7.525  19.103  0.00  0.00    +0.000 A 
ATOM     12  C   UNL     1       1.775   6.877  20.340  0.00  0.00    +0.000 A 
ATOM     13 CL   UNL     1       2.176   5.213  20.609  0.00  0.00    +0.000 Cl
ATOM     14  C   UNL     1       1.260   7.564  21.448  0.00  0.00    +0.000 A 
ATOM     15  C   UNL     1       0.971   8.921  21.366  0.00  0.00    +0.000 A 
ATOM     16  C   UNL     1       1.241   9.598  20.187  0.00  0.00    +0.000 A 
ATOM     17  C   UNL     1       1.768   8.921  19.079  0.00  0.00    +0.000 A 
ATOM     18 CL   UNL     1       2.197   9.938  17.749  0.00  0.00    +0.000 Cl
ENDBRANCH  10  11
ENDBRANCH   3  10
BRANCH   5  19
ATOM     19  S   UNL     1       7.237   5.607  19.375  0.00  0.00    +0.000 S 
BRANCH  19  20
ATOM     20  C   UNL     1       7.639   6.878  18.142  0.00  0.00    +0.000 C 
BRANCH  20  21
ATOM     21  C   UNL     1       6.924   6.575  16.839  0.00  0.00    +0.000 C 
ATOM     22  O   UNL     1       6.033   7.322  16.438  0.00  0.00    +0.000 OA
ATOM     23  N   UNL     1       7.326   5.392  16.231  0.00  0.00    +0.000 N 
ATOM     24  H   UNL     1       7.887   4.769  16.816  0.00  0.00    +0.000 HD
BRANCH  23  25
ATOM     25  C   UNL     1       6.738   4.832  15.079  0.00  0.00    +0.000 A 
ATOM     26  C   UNL     1       5.486   4.216  15.102  0.00  0.00    +0.000 A 
ATOM     27  C   UNL     1       4.995   3.541  13.984  0.00  0.00    +0.000 A 
ATOM     28  C   UNL     1       5.757   3.503  12.815  0.00  0.00    +0.000 A 
ATOM     29  C   UNL     1       6.979   4.186  12.745  0.00  0.00    +0.000 A 
ATOM     30  C   UNL     1       7.459   4.860  13.876  0.00  0.00    +0.000 A 
BRANCH  28  31
ATOM     31  N   UNL     1       5.283   2.715  11.672  0.00  0.00    +0.000 N 
ATOM     32  O   UNL     1       4.217   3.053  11.138  0.00  0.00    +0.000 OA
ATOM     33  O   UNL     1       5.971   1.748  11.317  0.00  0.00    +0.000 OA
ENDBRANCH  28  31
ENDBRANCH  23  25
ENDBRANCH  20  21
ENDBRANCH  19  20
ENDBRANCH   5  19
TORSDOF 7
ENDMDL
MODEL 6
REMARK VINA RESULT:      -7.9      5.522      9.876
REMARK  Name = 
REMARK  8 active torsions:
REMARK  status: ('A' for Active; 'I' for Inactive)
REMARK    1  A    between atoms: C_1  and  C_2
REMARK    2  A    between atoms: C_3  and  C_4
REMARK    3  A    between atoms: C_4  and  C_5
REMARK    4  A    between atoms: C_14  and  S_15
REMARK    5  A    between atoms: S_15  and  C_16
REMARK    6  A    between atoms: C_16  and  C_17
REMARK    7  A    between atoms: N_19  and  C_20
REMARK    8  A    between atoms: C_23  and  N_24
REMARK                            x       y       z     vdW  Elec       q    Type
REMARK                         _______ _______ _______ _____ _____    ______ ____
ROOT
ATOM      1  C   UNL     1       3.676   2.312  20.508  0.00  0.00    +0.000 C 
ATOM      2  C   UNL     1       3.305   3.732  20.213  0.00  0.00    +0.000 A 
ATOM      3  C   UNL     1       4.073   4.691  19.652  0.00  0.00    +0.000 A 
ATOM      4  N   UNL     1       3.610   5.968  19.405  0.00  0.00    +0.000 NA
ATOM      5  C   UNL     1       2.462   6.295  19.885  0.00  0.00    +0.000 A 
ATOM      6  N   UNL     1       1.630   5.440  20.516  0.00  0.00    +0.000 N 
ATOM      7  C   UNL     1       1.927   4.120  20.626  0.00  0.00    +0.000 A 
ATOM      8  O   UNL     1       1.106   3.303  21.028  0.00  0.00    +0.000 OA
ATOM      9  H   UNL     1       0.706   5.748  20.788  0.00  0.00    +0.000 HD
ENDROOT
BRANCH   3  10
ATOM     10  C   UNL     1       5.494   4.462  19.133  0.00  0.00    +0.000 C 
BRANCH  10  11
ATOM     11  C   UNL     1       5.733   4.717  17.652  0.00  0.00    +0.000 A 
ATOM     12  C   UNL     1       4.908   4.115  16.675  0.00  0.00    +0.000 A 
ATOM     13 CL   UNL     1       3.531   3.144  17.080  0.00  0.00    +0.000 Cl
ATOM     14  C   UNL     1       5.130   4.312  15.305  0.00  0.00    +0.000 A 
ATOM     15  C   UNL     1       6.163   5.132  14.867  0.00  0.00    +0.000 A 
ATOM     16  C   UNL     1       6.944   5.791  15.803  0.00  0.00    +0.000 A 
ATOM     17  C   UNL     1       6.721   5.609  17.175  0.00  0.00    +0.000 A 
ATOM     18 CL   UNL     1       7.672   6.623  18.201  0.00  0.00    +0.000 Cl
ENDBRANCH  10  11
ENDBRANCH   3  10
BRANCH   5  19
ATOM     19  S   UNL     1       1.829   7.904  19.790  0.00  0.00    +0.000 S 
BRANCH  19  20
ATOM     20  C   UNL     1       1.575   8.280  21.549  0.00  0.00    +0.000 C 
BRANCH  20  21
ATOM     21  C   UNL     1       0.221   8.937  21.743  0.00  0.00    +0.000 C 
ATOM     22  O   UNL     1      -0.803   8.256  21.713  0.00  0.00    +0.000 OA
ATOM     23  N   UNL     1       0.273  10.318  21.880  0.00  0.00    +0.000 N 
ATOM     24  H   UNL     1       1.166  10.749  21.630  0.00  0.00    +0.000 HD
BRANCH  23  25
ATOM     25  C   UNL     1      -0.848  11.169  21.957  0.00  0.00    +0.000 A 
ATOM     26  C   UNL     1      -1.570  11.348  23.138  0.00  0.00    +0.000 A 
ATOM     27  C   UNL     1      -2.760  12.077  23.151  0.00  0.00    +0.000 A 
ATOM     28  C   UNL     1      -3.222  12.658  21.969  0.00  0.00    +0.000 A 
ATOM     29  C   UNL     1      -2.469  12.561  20.791  0.00  0.00    +0.000 A 
ATOM     30  C   UNL     1      -1.275  11.825  20.794  0.00  0.00    +0.000 A 
BRANCH  28  31
ATOM     31  N   UNL     1      -4.518  13.344  21.963  0.00  0.00    +0.000 N 
ATOM     32  O   UNL     1      -5.233  13.241  22.971  0.00  0.00    +0.000 OA
ATOM     33  O   UNL     1      -4.829  13.976  20.943  0.00  0.00    +0.000 OA
ENDBRANCH  28  31
ENDBRANCH  23  25
ENDBRANCH  20  21
ENDBRANCH  19  20
ENDBRANCH   5  19
TORSDOF 7
ENDMDL
MODEL 7
REMARK VINA RESULT:      -7.9      4.357      7.568
REMARK  Name = 
REMARK  8 active torsions:
REMARK  status: ('A' for Active; 'I' for Inactive)
REMARK    1  A    between atoms: C_1  and  C_2
REMARK    2  A    between atoms: C_3  and  C_4
REMARK    3  A    between atoms: C_4  and  C_5
REMARK    4  A    between atoms: C_14  and  S_15
REMARK    5  A    between atoms: S_15  and  C_16
REMARK    6  A    between atoms: C_16  and  C_17
REMARK    7  A    between atoms: N_19  and  C_20
REMARK    8  A    between atoms: C_23  and  N_24
REMARK                            x       y       z     vdW  Elec       q    Type
REMARK                         _______ _______ _______ _____ _____    ______ ____
ROOT
ATOM      1  C   UNL     1       5.210   3.807  14.124  0.00  0.00    +0.000 C 
ATOM      2  C   UNL     1       5.579   4.340  15.472  0.00  0.00    +0.000 A 
ATOM      3  C   UNL     1       4.867   4.266  16.618  0.00  0.00    +0.000 A 
ATOM      4  N   UNL     1       5.325   4.778  17.816  0.00  0.00    +0.000 NA
ATOM      5  C   UNL     1       6.391   5.499  17.794  0.00  0.00    +0.000 A 
ATOM      6  N   UNL     1       7.154   5.694  16.698  0.00  0.00    +0.000 N 
ATOM      7  C   UNL     1       6.880   5.065  15.527  0.00  0.00    +0.000 A 
ATOM      8  O   UNL     1       7.662   5.085  14.583  0.00  0.00    +0.000 OA
ATOM      9  H   UNL     1       8.026   6.201  16.778  0.00  0.00    +0.000 HD
ENDROOT
BRANCH   3  10
ATOM     10  C   UNL     1       3.534   3.529  16.757  0.00  0.00    +0.000 C 
BRANCH  10  11
ATOM     11  C   UNL     1       2.874   3.557  18.127  0.00  0.00    +0.000 A 
ATOM     12  C   UNL     1       2.939   2.433  18.982  0.00  0.00    +0.000 A 
ATOM     13 CL   UNL     1       3.839   1.006  18.586  0.00  0.00    +0.000 Cl
ATOM     14  C   UNL     1       2.312   2.427  20.236  0.00  0.00    +0.000 A 
ATOM     15  C   UNL     1       1.623   3.546  20.687  0.00  0.00    +0.000 A 
ATOM     16  C   UNL     1       1.602   4.687  19.900  0.00  0.00    +0.000 A 
ATOM     17  C   UNL     1       2.237   4.705  18.650  0.00  0.00    +0.000 A 
ATOM     18 CL   UNL     1       2.254   6.249  17.873  0.00  0.00    +0.000 Cl
ENDBRANCH  10  11
ENDBRANCH   3  10
BRANCH   5  19
ATOM     19  S   UNL     1       6.988   6.333  19.189  0.00  0.00    +0.000 S 
BRANCH  19  20
ATOM     20  C   UNL     1       8.503   7.081  18.522  0.00  0.00    +0.000 C 
BRANCH  20  21
ATOM     21  C   UNL     1       8.343   8.588  18.451  0.00  0.00    +0.000 C 
ATOM     22  O   UNL     1       7.459   9.081  17.752  0.00  0.00    +0.000 OA
ATOM     23  N   UNL     1       9.298   9.295  19.171  0.00  0.00    +0.000 N 
ATOM     24  H   UNL     1      10.103   8.749  19.484  0.00  0.00    +0.000 HD
BRANCH  23  25
ATOM     25  C   UNL     1       9.436  10.699  19.174  0.00  0.00    +0.000 A 
ATOM     26  C   UNL     1       9.095  11.481  20.278  0.00  0.00    +0.000 A 
ATOM     27  C   UNL     1       9.101  12.875  20.202  0.00  0.00    +0.000 A 
ATOM     28  C   UNL     1       9.481  13.496  19.011  0.00  0.00    +0.000 A 
ATOM     29  C   UNL     1       9.907  12.730  17.919  0.00  0.00    +0.000 A 
ATOM     30  C   UNL     1       9.895  11.331  18.009  0.00  0.00    +0.000 A 
BRANCH  28  31
ATOM     31  N   UNL     1       9.397  14.956  18.904  0.00  0.00    +0.000 N 
ATOM     32  O   UNL     1       9.806  15.632  19.860  0.00  0.00    +0.000 OA
ATOM     33  O   UNL     1       8.910  15.429  17.867  0.00  0.00    +0.000 OA
ENDBRANCH  28  31
ENDBRANCH  23  25
ENDBRANCH  20  21
ENDBRANCH  19  20
ENDBRANCH   5  19
TORSDOF 7
ENDMDL
MODEL 8
REMARK VINA RESULT:      -7.8      0.846      1.013
REMARK  Name = 
REMARK  8 active torsions:
REMARK  status: ('A' for Active; 'I' for Inactive)
REMARK    1  A    between atoms: C_1  and  C_2
REMARK    2  A    between atoms: C_3  and  C_4
REMARK    3  A    between atoms: C_4  and  C_5
REMARK    4  A    between atoms: C_14  and  S_15
REMARK    5  A    between atoms: S_15  and  C_16
REMARK    6  A    between atoms: C_16  and  C_17
REMARK    7  A    between atoms: N_19  and  C_20
REMARK    8  A    between atoms: C_23  and  N_24
REMARK                            x       y       z     vdW  Elec       q    Type
REMARK                         _______ _______ _______ _____ _____    ______ ____
ROOT
ATOM      1  C   UNL     1       2.384   2.927  18.464  0.00  0.00    +0.000 C 
ATOM      2  C   UNL     1       3.552   3.805  18.787  0.00  0.00    +0.000 A 
ATOM      3  C   UNL     1       3.643   5.147  18.659  0.00  0.00    +0.000 A 
ATOM      4  N   UNL     1       4.773   5.856  19.016  0.00  0.00    +0.000 NA
ATOM      5  C   UNL     1       5.831   5.188  19.319  0.00  0.00    +0.000 A 
ATOM      6  N   UNL     1       5.877   3.843  19.422  0.00  0.00    +0.000 N 
ATOM      7  C   UNL     1       4.760   3.086  19.280  0.00  0.00    +0.000 A 
ATOM      8  O   UNL     1       4.750   1.890  19.551  0.00  0.00    +0.000 OA
ATOM      9  H   UNL     1       6.722   3.395  19.752  0.00  0.00    +0.000 HD
ENDROOT
BRANCH   3  10
ATOM     10  C   UNL     1       2.493   6.049  18.208  0.00  0.00    +0.000 C 
BRANCH  10  11
ATOM     11  C   UNL     1       1.962   7.045  19.228  0.00  0.00    +0.000 A 
ATOM     12  C   UNL     1       1.840   8.415  18.902  0.00  0.00    +0.000 A 
ATOM     13 CL   UNL     1       2.184   9.036  17.321  0.00  0.00    +0.000 Cl
ATOM     14  C   UNL     1       1.382   9.354  19.836  0.00  0.00    +0.000 A 
ATOM     15  C   UNL     1       1.008   8.955  21.114  0.00  0.00    +0.000 A 
ATOM     16  C   UNL     1       1.051   7.609  21.439  0.00  0.00    +0.000 A 
ATOM     17  C   UNL     1       1.496   6.662  20.506  0.00  0.00    +0.000 A 
ATOM     18 CL   UNL     1       1.333   5.018  21.014  0.00  0.00    +0.000 Cl
ENDBRANCH  10  11
ENDBRANCH   3  10
BRANCH   5  19
ATOM     19  S   UNL     1       7.358   5.942  19.631  0.00  0.00    +0.000 S 
BRANCH  19  20
ATOM     20  C   UNL     1       7.843   6.446  17.954  0.00  0.00    +0.000 C 
BRANCH  20  21
ATOM     21  C   UNL     1       7.567   5.317  16.979  0.00  0.00    +0.000 C 
ATOM     22  O   UNL     1       8.081   4.213  17.153  0.00  0.00    +0.000 OA
ATOM     23  N   UNL     1       6.772   5.680  15.899  0.00  0.00    +0.000 N 
ATOM     24  H   UNL     1       6.641   6.685  15.771  0.00  0.00    +0.000 HD
BRANCH  23  25
ATOM     25  C   UNL     1       6.467   4.849  14.801  0.00  0.00    +0.000 A 
ATOM     26  C   UNL     1       7.192   4.890  13.609  0.00  0.00    +0.000 A 
ATOM     27  C   UNL     1       6.778   4.166  12.490  0.00  0.00    +0.000 A 
ATOM     28  C   UNL     1       5.635   3.369  12.572  0.00  0.00    +0.000 A 
ATOM     29  C   UNL     1       4.941   3.250  13.783  0.00  0.00    +0.000 A 
ATOM     30  C   UNL     1       5.369   3.983  14.899  0.00  0.00    +0.000 A 
BRANCH  28  31
ATOM     31  N   UNL     1       5.148   2.684  11.369  0.00  0.00    +0.000 N 
ATOM     32  O   UNL     1       4.210   3.203  10.747  0.00  0.00    +0.000 OA
ATOM     33  O   UNL     1       5.696   1.617  11.055  0.00  0.00    +0.000 OA
ENDBRANCH  28  31
ENDBRANCH  23  25
ENDBRANCH  20  21
ENDBRANCH  19  20
ENDBRANCH   5  19
TORSDOF 7
ENDMDL
MODEL 9
REMARK VINA RESULT:      -7.8      5.058      8.052
REMARK  Name = 
REMARK  8 active torsions:
REMARK  status: ('A' for Active; 'I' for Inactive)
REMARK    1  A    between atoms: C_1  and  C_2
REMARK    2  A    between atoms: C_3  and  C_4
REMARK    3  A    between atoms: C_4  and  C_5
REMARK    4  A    between atoms: C_14  and  S_15
REMARK    5  A    between atoms: S_15  and  C_16
REMARK    6  A    between atoms: C_16  and  C_17
REMARK    7  A    between atoms: N_19  and  C_20
REMARK    8  A    between atoms: C_23  and  N_24
REMARK                            x       y       z     vdW  Elec       q    Type
REMARK                         _______ _______ _______ _____ _____    ______ ____
ROOT
ATOM      1  C   UNL     1       5.270   3.886  14.105  0.00  0.00    +0.000 C 
ATOM      2  C   UNL     1       5.730   4.642  15.312  0.00  0.00    +0.000 A 
ATOM      3  C   UNL     1       5.082   4.804  16.486  0.00  0.00    +0.000 A 
ATOM      4  N   UNL     1       5.622   5.508  17.545  0.00  0.00    +0.000 NA
ATOM      5  C   UNL     1       6.704   6.172  17.336  0.00  0.00    +0.000 A 
ATOM      6  N   UNL     1       7.408   6.136  16.186  0.00  0.00    +0.000 N 
ATOM      7  C   UNL     1       7.051   5.315  15.166  0.00  0.00    +0.000 A 
ATOM      8  O   UNL     1       7.778   5.134  14.196  0.00  0.00    +0.000 OA
ATOM      9  H   UNL     1       8.297   6.616  16.127  0.00  0.00    +0.000 HD
ENDROOT
BRANCH   3  10
ATOM     10  C   UNL     1       3.739   4.155  16.826  0.00  0.00    +0.000 C 
BRANCH  10  11
ATOM     11  C   UNL     1       3.320   4.171  18.288  0.00  0.00    +0.000 A 
ATOM     12  C   UNL     1       2.800   5.346  18.877  0.00  0.00    +0.000 A 
ATOM     13 CL   UNL     1       2.512   6.797  17.976  0.00  0.00    +0.000 Cl
ATOM     14  C   UNL     1       2.437   5.390  20.231  0.00  0.00    +0.000 A 
ATOM     15  C   UNL     1       2.557   4.260  21.032  0.00  0.00    +0.000 A 
ATOM     16  C   UNL     1       2.998   3.075  20.464  0.00  0.00    +0.000 A 
ATOM     17  C   UNL     1       3.352   3.020  19.109  0.00  0.00    +0.000 A 
ATOM     18 CL   UNL     1       3.724   1.436  18.525  0.00  0.00    +0.000 Cl
ENDBRANCH  10  11
ENDBRANCH   3  10
BRANCH   5  19
ATOM     19  S   UNL     1       7.402   7.223  18.522  0.00  0.00    +0.000 S 
BRANCH  19  20
ATOM     20  C   UNL     1       7.846   8.655  17.497  0.00  0.00    +0.000 C 
BRANCH  20  21
ATOM     21  C   UNL     1       8.634   9.654  18.323  0.00  0.00    +0.000 C 
ATOM     22  O   UNL     1       9.058   9.336  19.433  0.00  0.00    +0.000 OA
ATOM     23  N   UNL     1       8.749  10.909  17.740  0.00  0.00    +0.000 N 
ATOM     24  H   UNL     1       8.131  11.080  16.944  0.00  0.00    +0.000 HD
BRANCH  23  25
ATOM     25  C   UNL     1       9.331  12.038  18.352  0.00  0.00    +0.000 A 
ATOM     26  C   UNL     1       8.565  13.069  18.900  0.00  0.00    +0.000 A 
ATOM     27  C   UNL     1       9.164  14.241  19.365  0.00  0.00    +0.000 A 
ATOM     28  C   UNL     1      10.552  14.373  19.306  0.00  0.00    +0.000 A 
ATOM     29  C   UNL     1      11.344  13.316  18.837  0.00  0.00    +0.000 A 
ATOM     30  C   UNL     1      10.729  12.145  18.373  0.00  0.00    +0.000 A 
BRANCH  28  31
ATOM     31  N   UNL     1      11.172  15.640  19.708  0.00  0.00    +0.000 N 
ATOM     32  O   UNL     1      10.504  16.678  19.581  0.00  0.00    +0.000 OA
ATOM     33  O   UNL     1      12.333  15.600  20.139  0.00  0.00    +0.000 OA
ENDBRANCH  28  31
ENDBRANCH  23  25
ENDBRANCH  20  21
ENDBRANCH  19  20
ENDBRANCH   5  19
TORSDOF 7
ENDMDL
