MODEL 1
REMARK VINA RESULT:      -9.4      0.000      0.000
REMARK  Name = 
REMARK  5 active torsions:
REMARK  status: ('A' for Active; 'I' for Inactive)
REMARK    1  A    between atoms: C_8  and  N_9
REMARK    2  A    between atoms: C_13  and  C_14
REMARK    3  A    between atoms: C_19  and  N_20
REMARK    4  A    between atoms: N_20  and  C_21
REMARK    5  A    between atoms: C_21  and  C_22
REMARK                            x       y       z     vdW  Elec       q    Type
REMARK                         _______ _______ _______ _____ _____    ______ ____
ROOT
ATOM      1  N   UNL     1       3.118   7.371  17.903  0.00  0.00    +0.000 N 
ATOM      2  C   UNL     1       2.286   8.369  18.247  0.00  0.00    +0.000 A 
ATOM      3  N   UNL     1       1.992   9.458  17.572  0.00  0.00    +0.000 NA
ATOM      4  N   UNL     1       1.164  10.211  18.377  0.00  0.00    +0.000 NA
ATOM      5  C   UNL     1       1.035   9.542  19.510  0.00  0.00    +0.000 A 
ATOM      6  O   UNL     1       1.729   8.364  19.495  0.00  0.00    +0.000 OA
ATOM      7  H   UNL     1       3.636   7.526  17.047  0.00  0.00    +0.000 HD
ENDROOT
BRANCH   1  15
ATOM      8  F   UNL     1       4.154   1.761  21.388  0.00  0.00    +0.000 F 
ATOM      9  C   UNL     1       4.311   2.128  20.094  0.00  0.00    +0.000 C 
ATOM     10  F   UNL     1       5.149   1.235  19.512  0.00  0.00    +0.000 F 
ATOM     11  O   UNL     1       3.037   2.050  19.440  0.00  0.00    +0.000 OA
ATOM     12  C   UNL     1       2.914   3.332  19.008  0.00  0.00    +0.000 A 
ATOM     13  C   UNL     1       1.852   3.848  18.305  0.00  0.00    +0.000 A 
ATOM     14  C   UNL     1       1.906   5.199  17.938  0.00  0.00    +0.000 A 
ATOM     15  C   UNL     1       3.023   6.004  18.247  0.00  0.00    +0.000 A 
ATOM     16  C   UNL     1       4.074   5.442  18.995  0.00  0.00    +0.000 A 
ATOM     17  C   UNL     1       3.993   4.111  19.352  0.00  0.00    +0.000 A 
ATOM     18  O   UNL     1       4.931   3.422  20.056  0.00  0.00    +0.000 OA
ENDBRANCH   1  15
BRANCH   5  19
ATOM     19  C   UNL     1       0.338   9.933  20.730  0.00  0.00    +0.000 A 
ATOM     20  C   UNL     1       0.607   9.185  21.893  0.00  0.00    +0.000 A 
ATOM     21  C   UNL     1      -0.026   9.480  23.092  0.00  0.00    +0.000 A 
ATOM     22  C   UNL     1      -0.894  10.546  23.103  0.00  0.00    +0.000 A 
ATOM     23  N   UNL     1      -1.135  11.320  22.026  0.00  0.00    +0.000 NA
ATOM     24  C   UNL     1      -0.553  11.016  20.840  0.00  0.00    +0.000 A 
BRANCH  24  25
ATOM     25  N   UNL     1      -0.869  11.816  19.738  0.00  0.00    +0.000 N 
ATOM     26  H   UNL     1      -0.472  11.414  18.889  0.00  0.00    +0.000 HD
BRANCH  25  27
ATOM     27  C   UNL     1      -2.268  12.195  19.536  0.00  0.00    +0.000 C 
BRANCH  27  28
ATOM     28  C   UNL     1      -2.879  11.680  18.246  0.00  0.00    +0.000 A 
ATOM     29  C   UNL     1      -2.067  11.105  17.269  0.00  0.00    +0.000 A 
ATOM     30  C   UNL     1      -2.635  10.670  16.078  0.00  0.00    +0.000 A 
ATOM     31  C   UNL     1      -4.005  10.787  15.902  0.00  0.00    +0.000 A 
ATOM     32  C   UNL     1      -4.752  11.337  16.931  0.00  0.00    +0.000 A 
ATOM     33  N   UNL     1      -4.225  11.796  18.089  0.00  0.00    +0.000 NA
ENDBRANCH  27  28
ENDBRANCH  25  27
ENDBRANCH  24  25
ENDBRANCH   5  19
TORSDOF 5
ENDMDL
MODEL 2
REMARK VINA RESULT:      -9.4      4.021      8.822
REMARK  Name = 
REMARK  5 active torsions:
REMARK  status: ('A' for Active; 'I' for Inactive)
REMARK    1  A    between atoms: C_8  and  N_9
REMARK    2  A    between atoms: C_13  and  C_14
REMARK    3  A    between atoms: C_19  and  N_20
REMARK    4  A    between atoms: N_20  and  C_21
REMARK    5  A    between atoms: C_21  and  C_22
REMARK                            x       y       z     vdW  Elec       q    Type
REMARK                         _______ _______ _______ _____ _____    ______ ____
ROOT
ATOM      1  N   UNL     1       1.234   9.865  17.694  0.00  0.00    +0.000 N 
ATOM      2  C   UNL     1       2.037   8.799  17.853  0.00  0.00    +0.000 A 
ATOM      3  N   UNL     1       3.213   8.572  17.310  0.00  0.00    +0.000 NA
ATOM      4  N   UNL     1       3.595   7.309  17.708  0.00  0.00    +0.000 NA
ATOM      5  C   UNL     1       2.606   6.834  18.445  0.00  0.00    +0.000 A 
ATOM      6  O   UNL     1       1.581   7.730  18.571  0.00  0.00    +0.000 OA
ATOM      7  H   UNL     1       1.553  10.538  17.007  0.00  0.00    +0.000 HD
ENDROOT
BRANCH   1  15
ATOM      8  F   UNL     1      -0.807  13.069  23.195  0.00  0.00    +0.000 F 
ATOM      9  C   UNL     1      -1.063  11.861  22.638  0.00  0.00    +0.000 C 
ATOM     10  F   UNL     1      -1.594  11.069  23.603  0.00  0.00    +0.000 F 
ATOM     11  O   UNL     1      -2.038  12.032  21.602  0.00  0.00    +0.000 OA
ATOM     12  C   UNL     1      -1.347  11.538  20.542  0.00  0.00    +0.000 A 
ATOM     13  C   UNL     1      -1.803  11.458  19.248  0.00  0.00    +0.000 A 
ATOM     14  C   UNL     1      -0.945  10.908  18.286  0.00  0.00    +0.000 A 
ATOM     15  C   UNL     1       0.334  10.421  18.631  0.00  0.00    +0.000 A 
ATOM     16  C   UNL     1       0.771  10.551  19.961  0.00  0.00    +0.000 A 
ATOM     17  C   UNL     1      -0.090  11.104  20.888  0.00  0.00    +0.000 A 
ATOM     18  O   UNL     1       0.178  11.281  22.210  0.00  0.00    +0.000 OA
ENDBRANCH   1  15
BRANCH   5  19
ATOM     19  C   UNL     1       2.461   5.510  19.039  0.00  0.00    +0.000 A 
ATOM     20  C   UNL     1       1.803   5.430  20.282  0.00  0.00    +0.000 A 
ATOM     21  C   UNL     1       1.639   4.211  20.924  0.00  0.00    +0.000 A 
ATOM     22  C   UNL     1       2.112   3.091  20.284  0.00  0.00    +0.000 A 
ATOM     23  N   UNL     1       2.697   3.119  19.069  0.00  0.00    +0.000 NA
ATOM     24  C   UNL     1       2.898   4.308  18.452  0.00  0.00    +0.000 A 
BRANCH  24  25
ATOM     25  N   UNL     1       3.553   4.295  17.217  0.00  0.00    +0.000 N 
ATOM     26  H   UNL     1       3.469   5.206  16.767  0.00  0.00    +0.000 HD
BRANCH  25  27
ATOM     27  C   UNL     1       4.932   3.810  17.169  0.00  0.00    +0.000 C 
BRANCH  27  28
ATOM     28  C   UNL     1       5.966   4.804  17.664  0.00  0.00    +0.000 A 
ATOM     29  C   UNL     1       6.460   5.786  16.806  0.00  0.00    +0.000 A 
ATOM     30  C   UNL     1       7.433   6.667  17.263  0.00  0.00    +0.000 A 
ATOM     31  C   UNL     1       7.865   6.571  18.577  0.00  0.00    +0.000 A 
ATOM     32  C   UNL     1       7.304   5.592  19.381  0.00  0.00    +0.000 A 
ATOM     33  N   UNL     1       6.378   4.701  18.957  0.00  0.00    +0.000 NA
ENDBRANCH  27  28
ENDBRANCH  25  27
ENDBRANCH  24  25
ENDBRANCH   5  19
TORSDOF 5
ENDMDL
MODEL 3
REMARK VINA RESULT:      -9.4      4.383      9.177
REMARK  Name = 
REMARK  5 active torsions:
REMARK  status: ('A' for Active; 'I' for Inactive)
REMARK    1  A    between atoms: C_8  and  N_9
REMARK    2  A    between atoms: C_13  and  C_14
REMARK    3  A    between atoms: C_19  and  N_20
REMARK    4  A    between atoms: N_20  and  C_21
REMARK    5  A    between atoms: C_21  and  C_22
REMARK                            x       y       z     vdW  Elec       q    Type
REMARK                         _______ _______ _______ _____ _____    ______ ____
ROOT
ATOM      1  N   UNL     1       1.240   9.183  18.677  0.00  0.00    +0.000 N 
ATOM      2  C   UNL     1       2.211   8.303  18.380  0.00  0.00    +0.000 A 
ATOM      3  N   UNL     1       3.048   8.320  17.366  0.00  0.00    +0.000 NA
ATOM      4  N   UNL     1       3.791   7.161  17.447  0.00  0.00    +0.000 NA
ATOM      5  C   UNL     1       3.332   6.495  18.492  0.00  0.00    +0.000 A 
ATOM      6  O   UNL     1       2.321   7.163  19.126  0.00  0.00    +0.000 OA
ATOM      7  H   UNL     1       1.095   9.906  17.983  0.00  0.00    +0.000 HD
ENDROOT
BRANCH   1  15
ATOM      8  F   UNL     1      -2.918  11.737  23.248  0.00  0.00    +0.000 F 
ATOM      9  C   UNL     1      -1.608  11.905  22.942  0.00  0.00    +0.000 C 
ATOM     10  F   UNL     1      -1.202  13.071  23.503  0.00  0.00    +0.000 F 
ATOM     11  O   UNL     1      -0.861  10.832  23.529  0.00  0.00    +0.000 OA
ATOM     12  C   UNL     1      -0.282  10.310  22.417  0.00  0.00    +0.000 A 
ATOM     13  C   UNL     1       0.562   9.226  22.381  0.00  0.00    +0.000 A 
ATOM     14  C   UNL     1       1.070   8.835  21.134  0.00  0.00    +0.000 A 
ATOM     15  C   UNL     1       0.757   9.544  19.955  0.00  0.00    +0.000 A 
ATOM     16  C   UNL     1      -0.135  10.629  20.035  0.00  0.00    +0.000 A 
ATOM     17  C   UNL     1      -0.628  10.989  21.274  0.00  0.00    +0.000 A 
ATOM     18  O   UNL     1      -1.481  12.019  21.516  0.00  0.00    +0.000 OA
ENDBRANCH   1  15
BRANCH   5  19
ATOM     19  C   UNL     1       3.708   5.170  18.970  0.00  0.00    +0.000 A 
ATOM     20  C   UNL     1       2.668   4.319  19.397  0.00  0.00    +0.000 A 
ATOM     21  C   UNL     1       2.941   3.049  19.883  0.00  0.00    +0.000 A 
ATOM     22  C   UNL     1       4.255   2.646  19.897  0.00  0.00    +0.000 A 
ATOM     23  N   UNL     1       5.272   3.409  19.446  0.00  0.00    +0.000 NA
ATOM     24  C   UNL     1       5.021   4.666  19.008  0.00  0.00    +0.000 A 
BRANCH  24  25
ATOM     25  N   UNL     1       6.111   5.439  18.595  0.00  0.00    +0.000 N 
ATOM     26  H   UNL     1       6.502   5.945  19.390  0.00  0.00    +0.000 HD
BRANCH  25  27
ATOM     27  C   UNL     1       7.165   4.790  17.816  0.00  0.00    +0.000 C 
BRANCH  27  28
ATOM     28  C   UNL     1       6.842   4.614  16.344  0.00  0.00    +0.000 A 
ATOM     29  C   UNL     1       5.806   3.765  15.953  0.00  0.00    +0.000 A 
ATOM     30  C   UNL     1       5.544   3.586  14.600  0.00  0.00    +0.000 A 
ATOM     31  C   UNL     1       6.298   4.284  13.668  0.00  0.00    +0.000 A 
ATOM     32  C   UNL     1       7.288   5.135  14.133  0.00  0.00    +0.000 A 
ATOM     33  N   UNL     1       7.586   5.308  15.442  0.00  0.00    +0.000 NA
ENDBRANCH  27  28
ENDBRANCH  25  27
ENDBRANCH  24  25
ENDBRANCH   5  19
TORSDOF 5
ENDMDL
MODEL 4
REMARK VINA RESULT:      -9.0      1.312      1.849
REMARK  Name = 
REMARK  5 active torsions:
REMARK  status: ('A' for Active; 'I' for Inactive)
REMARK    1  A    between atoms: C_8  and  N_9
REMARK    2  A    between atoms: C_13  and  C_14
REMARK    3  A    between atoms: C_19  and  N_20
REMARK    4  A    between atoms: N_20  and  C_21
REMARK    5  A    between atoms: C_21  and  C_22
REMARK                            x       y       z     vdW  Elec       q    Type
REMARK                         _______ _______ _______ _____ _____    ______ ____
ROOT
ATOM      1  N   UNL     1       3.257   7.680  17.704  0.00  0.00    +0.000 N 
ATOM      2  C   UNL     1       2.379   8.616  18.101  0.00  0.00    +0.000 A 
ATOM      3  N   UNL     1       2.025   9.721  17.482  0.00  0.00    +0.000 NA
ATOM      4  N   UNL     1       1.169  10.391  18.329  0.00  0.00    +0.000 NA
ATOM      5  C   UNL     1       1.083   9.663  19.428  0.00  0.00    +0.000 A 
ATOM      6  O   UNL     1       1.835   8.523  19.351  0.00  0.00    +0.000 OA
ATOM      7  H   UNL     1       3.759   7.901  16.853  0.00  0.00    +0.000 HD
ENDROOT
BRANCH   1  15
ATOM      8  F   UNL     1       0.676   1.597  18.722  0.00  0.00    +0.000 F 
ATOM      9  C   UNL     1       1.502   2.417  19.416  0.00  0.00    +0.000 C 
ATOM     10  F   UNL     1       1.511   1.995  20.705  0.00  0.00    +0.000 F 
ATOM     11  O   UNL     1       2.827   2.285  18.885  0.00  0.00    +0.000 OA
ATOM     12  C   UNL     1       3.069   3.574  18.530  0.00  0.00    +0.000 A 
ATOM     13  C   UNL     1       4.220   4.047  17.947  0.00  0.00    +0.000 A 
ATOM     14  C   UNL     1       4.290   5.417  17.659  0.00  0.00    +0.000 A 
ATOM     15  C   UNL     1       3.233   6.294  17.982  0.00  0.00    +0.000 A 
ATOM     16  C   UNL     1       2.062   5.761  18.551  0.00  0.00    +0.000 A 
ATOM     17  C   UNL     1       2.015   4.407  18.817  0.00  0.00    +0.000 A 
ATOM     18  O   UNL     1       0.966   3.748  19.378  0.00  0.00    +0.000 OA
ENDBRANCH   1  15
BRANCH   5  19
ATOM     19  C   UNL     1       0.379   9.960  20.670  0.00  0.00    +0.000 A 
ATOM     20  C   UNL     1       0.478   9.012  21.709  0.00  0.00    +0.000 A 
ATOM     21  C   UNL     1      -0.176   9.209  22.917  0.00  0.00    +0.000 A 
ATOM     22  C   UNL     1      -0.889  10.374  23.068  0.00  0.00    +0.000 A 
ATOM     23  N   UNL     1      -0.962  11.330  22.119  0.00  0.00    +0.000 NA
ATOM     24  C   UNL     1      -0.361  11.129  20.921  0.00  0.00    +0.000 A 
BRANCH  24  25
ATOM     25  N   UNL     1      -0.504  12.125  19.949  0.00  0.00    +0.000 N 
ATOM     26  H   UNL     1      -0.050  11.836  19.083  0.00  0.00    +0.000 HD
BRANCH  25  27
ATOM     27  C   UNL     1      -1.844  12.653  19.690  0.00  0.00    +0.000 C 
BRANCH  27  28
ATOM     28  C   UNL     1      -2.586  11.957  18.564  0.00  0.00    +0.000 A 
ATOM     29  C   UNL     1      -3.947  11.676  18.693  0.00  0.00    +0.000 A 
ATOM     30  C   UNL     1      -4.606  11.006  17.669  0.00  0.00    +0.000 A 
ATOM     31  C   UNL     1      -3.902  10.663  16.525  0.00  0.00    +0.000 A 
ATOM     32  C   UNL     1      -2.561  11.006  16.454  0.00  0.00    +0.000 A 
ATOM     33  N   UNL     1      -1.884  11.631  17.446  0.00  0.00    +0.000 NA
ENDBRANCH  27  28
ENDBRANCH  25  27
ENDBRANCH  24  25
ENDBRANCH   5  19
TORSDOF 5
ENDMDL
MODEL 5
REMARK VINA RESULT:      -8.9      0.732      1.111
REMARK  Name = 
REMARK  5 active torsions:
REMARK  status: ('A' for Active; 'I' for Inactive)
REMARK    1  A    between atoms: C_8  and  N_9
REMARK    2  A    between atoms: C_13  and  C_14
REMARK    3  A    between atoms: C_19  and  N_20
REMARK    4  A    between atoms: N_20  and  C_21
REMARK    5  A    between atoms: C_21  and  C_22
REMARK                            x       y       z     vdW  Elec       q    Type
REMARK                         _______ _______ _______ _____ _____    ______ ____
ROOT
ATOM      1  N   UNL     1       3.120   7.325  17.849  0.00  0.00    +0.000 N 
ATOM      2  C   UNL     1       2.301   8.333  18.192  0.00  0.00    +0.000 A 
ATOM      3  N   UNL     1       2.003   9.414  17.506  0.00  0.00    +0.000 NA
ATOM      4  N   UNL     1       1.194  10.185  18.313  0.00  0.00    +0.000 NA
ATOM      5  C   UNL     1       1.080   9.535  19.458  0.00  0.00    +0.000 A 
ATOM      6  O   UNL     1       1.765   8.351  19.449  0.00  0.00    +0.000 OA
ATOM      7  H   UNL     1       3.624   7.463  16.982  0.00  0.00    +0.000 HD
ENDROOT
BRANCH   1  15
ATOM      8  F   UNL     1       4.205   1.753  21.381  0.00  0.00    +0.000 F 
ATOM      9  C   UNL     1       4.325   2.101  20.078  0.00  0.00    +0.000 C 
ATOM     10  F   UNL     1       5.136   1.190  19.484  0.00  0.00    +0.000 F 
ATOM     11  O   UNL     1       3.031   2.027  19.464  0.00  0.00    +0.000 OA
ATOM     12  C   UNL     1       2.908   3.304  19.018  0.00  0.00    +0.000 A 
ATOM     13  C   UNL     1       1.830   3.821  18.340  0.00  0.00    +0.000 A 
ATOM     14  C   UNL     1       1.887   5.167  17.952  0.00  0.00    +0.000 A 
ATOM     15  C   UNL     1       3.021   5.963  18.215  0.00  0.00    +0.000 A 
ATOM     16  C   UNL     1       4.089   5.401  18.939  0.00  0.00    +0.000 A 
ATOM     17  C   UNL     1       4.005   4.076  19.317  0.00  0.00    +0.000 A 
ATOM     18  O   UNL     1       4.957   3.387  20.002  0.00  0.00    +0.000 OA
ENDBRANCH   1  15
BRANCH   5  19
ATOM     19  C   UNL     1       0.407   9.949  20.683  0.00  0.00    +0.000 A 
ATOM     20  C   UNL     1       0.187   8.961  21.664  0.00  0.00    +0.000 A 
ATOM     21  C   UNL     1      -0.462   9.267  22.851  0.00  0.00    +0.000 A 
ATOM     22  C   UNL     1      -0.846  10.573  23.043  0.00  0.00    +0.000 A 
ATOM     23  N   UNL     1      -0.604  11.558  22.154  0.00  0.00    +0.000 NA
ATOM     24  C   UNL     1      -0.008  11.262  20.974  0.00  0.00    +0.000 A 
BRANCH  24  25
ATOM     25  N   UNL     1       0.179  12.305  20.062  0.00  0.00    +0.000 N 
ATOM     26  H   UNL     1       0.660  11.960  19.230  0.00  0.00    +0.000 HD
BRANCH  25  27
ATOM     27  C   UNL     1      -0.978  13.123  19.698  0.00  0.00    +0.000 C 
BRANCH  27  28
ATOM     28  C   UNL     1      -2.036  12.394  18.892  0.00  0.00    +0.000 A 
ATOM     29  C   UNL     1      -3.334  12.272  19.390  0.00  0.00    +0.000 A 
ATOM     30  C   UNL     1      -4.284  11.570  18.658  0.00  0.00    +0.000 A 
ATOM     31  C   UNL     1      -3.928  11.035  17.429  0.00  0.00    +0.000 A 
ATOM     32  C   UNL     1      -2.629  11.226  16.984  0.00  0.00    +0.000 A 
ATOM     33  N   UNL     1      -1.675  11.878  17.687  0.00  0.00    +0.000 NA
ENDBRANCH  27  28
ENDBRANCH  25  27
ENDBRANCH  24  25
ENDBRANCH   5  19
TORSDOF 5
ENDMDL
MODEL 6
REMARK VINA RESULT:      -8.9      2.870      3.595
REMARK  Name = 
REMARK  5 active torsions:
REMARK  status: ('A' for Active; 'I' for Inactive)
REMARK    1  A    between atoms: C_8  and  N_9
REMARK    2  A    between atoms: C_13  and  C_14
REMARK    3  A    between atoms: C_19  and  N_20
REMARK    4  A    between atoms: N_20  and  C_21
REMARK    5  A    between atoms: C_21  and  C_22
REMARK                            x       y       z     vdW  Elec       q    Type
REMARK                         _______ _______ _______ _____ _____    ______ ____
ROOT
ATOM      1  N   UNL     1       2.729   7.345  18.173  0.00  0.00    +0.000 N 
ATOM      2  C   UNL     1       2.036   8.472  18.408  0.00  0.00    +0.000 A 
ATOM      3  N   UNL     1       1.924   9.537  17.646  0.00  0.00    +0.000 NA
ATOM      4  N   UNL     1       1.184  10.457  18.358  0.00  0.00    +0.000 NA
ATOM      5  C   UNL     1       0.921   9.901  19.528  0.00  0.00    +0.000 A 
ATOM      6  O   UNL     1       1.440   8.639  19.626  0.00  0.00    +0.000 OA
ATOM      7  H   UNL     1       3.293   7.361  17.332  0.00  0.00    +0.000 HD
ENDROOT
BRANCH   1  15
ATOM      8  F   UNL     1       0.818   2.468  22.327  0.00  0.00    +0.000 F 
ATOM      9  C   UNL     1       1.904   2.695  21.550  0.00  0.00    +0.000 C 
ATOM     10  F   UNL     1       2.904   1.896  21.999  0.00  0.00    +0.000 F 
ATOM     11  O   UNL     1       1.591   2.319  20.203  0.00  0.00    +0.000 OA
ATOM     12  C   UNL     1       1.820   3.498  19.568  0.00  0.00    +0.000 A 
ATOM     13  C   UNL     1       1.669   3.732  18.223  0.00  0.00    +0.000 A 
ATOM     14  C   UNL     1       1.962   5.017  17.747  0.00  0.00    +0.000 A 
ATOM     15  C   UNL     1       2.428   6.034  18.607  0.00  0.00    +0.000 A 
ATOM     16  C   UNL     1       2.538   5.758  19.982  0.00  0.00    +0.000 A 
ATOM     17  C   UNL     1       2.236   4.487  20.427  0.00  0.00    +0.000 A 
ATOM     18  O   UNL     1       2.309   4.062  21.717  0.00  0.00    +0.000 OA
ENDBRANCH   1  15
BRANCH   5  19
ATOM     19  C   UNL     1       0.245  10.476  20.684  0.00  0.00    +0.000 A 
ATOM     20  C   UNL     1      -0.026   9.615  21.766  0.00  0.00    +0.000 A 
ATOM     21  C   UNL     1      -0.682  10.079  22.898  0.00  0.00    +0.000 A 
ATOM     22  C   UNL     1      -1.021  11.410  22.932  0.00  0.00    +0.000 A 
ATOM     23  N   UNL     1      -0.729  12.278  21.941  0.00  0.00    +0.000 NA
ATOM     24  C   UNL     1      -0.125  11.827  20.815  0.00  0.00    +0.000 A 
BRANCH  24  25
ATOM     25  N   UNL     1       0.114  12.751  19.793  0.00  0.00    +0.000 N 
ATOM     26  H   UNL     1      -0.644  12.723  19.112  0.00  0.00    +0.000 HD
BRANCH  25  27
ATOM     27  C   UNL     1       0.433  14.130  20.167  0.00  0.00    +0.000 C 
BRANCH  27  28
ATOM     28  C   UNL     1       1.413  14.822  19.238  0.00  0.00    +0.000 A 
ATOM     29  C   UNL     1       2.481  14.110  18.692  0.00  0.00    +0.000 A 
ATOM     30  C   UNL     1       3.391  14.765  17.872  0.00  0.00    +0.000 A 
ATOM     31  C   UNL     1       3.196  16.108  17.586  0.00  0.00    +0.000 A 
ATOM     32  C   UNL     1       2.094  16.741  18.137  0.00  0.00    +0.000 A 
ATOM     33  N   UNL     1       1.207  16.138  18.962  0.00  0.00    +0.000 NA
ENDBRANCH  27  28
ENDBRANCH  25  27
ENDBRANCH  24  25
ENDBRANCH   5  19
TORSDOF 5
ENDMDL
MODEL 7
REMARK VINA RESULT:      -8.9      4.022      8.745
REMARK  Name = 
REMARK  5 active torsions:
REMARK  status: ('A' for Active; 'I' for Inactive)
REMARK    1  A    between atoms: C_8  and  N_9
REMARK    2  A    between atoms: C_13  and  C_14
REMARK    3  A    between atoms: C_19  and  N_20
REMARK    4  A    between atoms: N_20  and  C_21
REMARK    5  A    between atoms: C_21  and  C_22
REMARK                            x       y       z     vdW  Elec       q    Type
REMARK                         _______ _______ _______ _____ _____    ______ ____
ROOT
ATOM      1  N   UNL     1       1.557   9.288  17.817  0.00  0.00    +0.000 N 
ATOM      2  C   UNL     1       2.257   8.167  18.065  0.00  0.00    +0.000 A 
ATOM      3  N   UNL     1       3.447   7.831  17.619  0.00  0.00    +0.000 NA
ATOM      4  N   UNL     1       3.695   6.555  18.078  0.00  0.00    +0.000 NA
ATOM      5  C   UNL     1       2.619   6.183  18.749  0.00  0.00    +0.000 A 
ATOM      6  O   UNL     1       1.664   7.161  18.773  0.00  0.00    +0.000 OA
ATOM      7  H   UNL     1       1.979   9.911  17.140  0.00  0.00    +0.000 HD
ENDROOT
BRANCH   1  15
ATOM      8  F   UNL     1      -0.602  12.971  22.963  0.00  0.00    +0.000 F 
ATOM      9  C   UNL     1      -0.876  11.731  22.488  0.00  0.00    +0.000 C 
ATOM     10  F   UNL     1      -1.474  11.034  23.486  0.00  0.00    +0.000 F 
ATOM     11  O   UNL     1      -1.800  11.853  21.399  0.00  0.00    +0.000 OA
ATOM     12  C   UNL     1      -1.082  11.256  20.412  0.00  0.00    +0.000 A 
ATOM     13  C   UNL     1      -1.486  11.090  19.109  0.00  0.00    +0.000 A 
ATOM     14  C   UNL     1      -0.607  10.441  18.231  0.00  0.00    +0.000 A 
ATOM     15  C   UNL     1       0.638   9.943  18.668  0.00  0.00    +0.000 A 
ATOM     16  C   UNL     1       1.023  10.162  20.003  0.00  0.00    +0.000 A 
ATOM     17  C   UNL     1       0.143  10.811  20.846  0.00  0.00    +0.000 A 
ATOM     18  O   UNL     1       0.362  11.082  22.161  0.00  0.00    +0.000 OA
ENDBRANCH   1  15
BRANCH   5  19
ATOM     19  C   UNL     1       2.324   4.894  19.364  0.00  0.00    +0.000 A 
ATOM     20  C   UNL     1       1.940   4.900  20.720  0.00  0.00    +0.000 A 
ATOM     21  C   UNL     1       1.658   3.716  21.385  0.00  0.00    +0.000 A 
ATOM     22  C   UNL     1       1.736   2.550  20.662  0.00  0.00    +0.000 A 
ATOM     23  N   UNL     1       2.046   2.507  19.350  0.00  0.00    +0.000 NA
ATOM     24  C   UNL     1       2.363   3.654  18.701  0.00  0.00    +0.000 A 
BRANCH  24  25
ATOM     25  N   UNL     1       2.726   3.557  17.354  0.00  0.00    +0.000 N 
ATOM     26  H   UNL     1       2.669   4.474  16.910  0.00  0.00    +0.000 HD
BRANCH  25  27
ATOM     27  C   UNL     1       3.984   2.889  17.022  0.00  0.00    +0.000 C 
BRANCH  27  28
ATOM     28  C   UNL     1       5.139   3.830  16.734  0.00  0.00    +0.000 A 
ATOM     29  C   UNL     1       5.295   4.375  15.459  0.00  0.00    +0.000 A 
ATOM     30  C   UNL     1       6.377   5.207  15.200  0.00  0.00    +0.000 A 
ATOM     31  C   UNL     1       7.261   5.504  16.226  0.00  0.00    +0.000 A 
ATOM     32  C   UNL     1       7.022   4.953  17.475  0.00  0.00    +0.000 A 
ATOM     33  N   UNL     1       5.995   4.117  17.751  0.00  0.00    +0.000 NA
ENDBRANCH  27  28
ENDBRANCH  25  27
ENDBRANCH  24  25
ENDBRANCH   5  19
TORSDOF 5
ENDMDL
MODEL 8
REMARK VINA RESULT:      -8.9      1.472      1.850
REMARK  Name = 
REMARK  5 active torsions:
REMARK  status: ('A' for Active; 'I' for Inactive)
REMARK    1  A    between atoms: C_8  and  N_9
REMARK    2  A    between atoms: C_13  and  C_14
REMARK    3  A    between atoms: C_19  and  N_20
REMARK    4  A    between atoms: N_20  and  C_21
REMARK    5  A    between atoms: C_21  and  C_22
REMARK                            x       y       z     vdW  Elec       q    Type
REMARK                         _______ _______ _______ _____ _____    ______ ____
ROOT
ATOM      1  N   UNL     1       2.800   7.361  18.188  0.00  0.00    +0.000 N 
ATOM      2  C   UNL     1       2.046   8.457  18.378  0.00  0.00    +0.000 A 
ATOM      3  N   UNL     1       1.937   9.519  17.611  0.00  0.00    +0.000 NA
ATOM      4  N   UNL     1       1.114  10.403  18.274  0.00  0.00    +0.000 NA
ATOM      5  C   UNL     1       0.800   9.833  19.424  0.00  0.00    +0.000 A 
ATOM      6  O   UNL     1       1.366   8.594  19.556  0.00  0.00    +0.000 OA
ATOM      7  H   UNL     1       3.416   7.404  17.386  0.00  0.00    +0.000 HD
ENDROOT
BRANCH   1  15
ATOM      8  F   UNL     1       0.871   2.389  22.220  0.00  0.00    +0.000 F 
ATOM      9  C   UNL     1       1.986   2.663  21.501  0.00  0.00    +0.000 C 
ATOM     10  F   UNL     1       2.992   1.900  21.997  0.00  0.00    +0.000 F 
ATOM     11  O   UNL     1       1.756   2.283  20.138  0.00  0.00    +0.000 OA
ATOM     12  C   UNL     1       1.971   3.474  19.521  0.00  0.00    +0.000 A 
ATOM     13  C   UNL     1       1.880   3.710  18.170  0.00  0.00    +0.000 A 
ATOM     14  C   UNL     1       2.146   5.008  17.715  0.00  0.00    +0.000 A 
ATOM     15  C   UNL     1       2.528   6.037  18.601  0.00  0.00    +0.000 A 
ATOM     16  C   UNL     1       2.580   5.758  19.979  0.00  0.00    +0.000 A 
ATOM     17  C   UNL     1       2.305   4.473  20.403  0.00  0.00    +0.000 A 
ATOM     18  O   UNL     1       2.329   4.044  21.693  0.00  0.00    +0.000 OA
ENDBRANCH   1  15
BRANCH   5  19
ATOM     19  C   UNL     1       0.027  10.375  20.535  0.00  0.00    +0.000 A 
ATOM     20  C   UNL     1       0.366   9.938  21.831  0.00  0.00    +0.000 A 
ATOM     21  C   UNL     1      -0.331  10.391  22.941  0.00  0.00    +0.000 A 
ATOM     22  C   UNL     1      -1.336  11.304  22.727  0.00  0.00    +0.000 A 
ATOM     23  N   UNL     1      -1.654  11.788  21.509  0.00  0.00    +0.000 NA
ATOM     24  C   UNL     1      -1.007  11.322  20.414  0.00  0.00    +0.000 A 
BRANCH  24  25
ATOM     25  N   UNL     1      -1.402  11.815  19.168  0.00  0.00    +0.000 N 
ATOM     26  H   UNL     1      -0.582  12.026  18.599  0.00  0.00    +0.000 HD
BRANCH  25  27
ATOM     27  C   UNL     1      -2.391  11.055  18.403  0.00  0.00    +0.000 C 
BRANCH  27  28
ATOM     28  C   UNL     1      -3.766  11.693  18.341  0.00  0.00    +0.000 A 
ATOM     29  C   UNL     1      -4.495  11.668  17.152  0.00  0.00    +0.000 A 
ATOM     30  C   UNL     1      -5.738  12.288  17.100  0.00  0.00    +0.000 A 
ATOM     31  C   UNL     1      -6.240  12.890  18.244  0.00  0.00    +0.000 A 
ATOM     32  C   UNL     1      -5.473  12.846  19.397  0.00  0.00    +0.000 A 
ATOM     33  N   UNL     1      -4.248  12.276  19.472  0.00  0.00    +0.000 NA
ENDBRANCH  27  28
ENDBRANCH  25  27
ENDBRANCH  24  25
ENDBRANCH   5  19
TORSDOF 5
ENDMDL
MODEL 9
REMARK VINA RESULT:      -8.9      4.038      8.825
REMARK  Name = 
REMARK  5 active torsions:
REMARK  status: ('A' for Active; 'I' for Inactive)
REMARK    1  A    between atoms: C_8  and  N_9
REMARK    2  A    between atoms: C_13  and  C_14
REMARK    3  A    between atoms: C_19  and  N_20
REMARK    4  A    between atoms: N_20  and  C_21
REMARK    5  A    between atoms: C_21  and  C_22
REMARK                            x       y       z     vdW  Elec       q    Type
REMARK                         _______ _______ _______ _____ _____    ______ ____
ROOT
ATOM      1  N   UNL     1       1.250   9.654  17.623  0.00  0.00    +0.000 N 
ATOM      2  C   UNL     1       2.119   8.648  17.816  0.00  0.00    +0.000 A 
ATOM      3  N   UNL     1       3.274   8.440  17.223  0.00  0.00    +0.000 NA
ATOM      4  N   UNL     1       3.749   7.235  17.694  0.00  0.00    +0.000 NA
ATOM      5  C   UNL     1       2.831   6.769  18.523  0.00  0.00    +0.000 A 
ATOM      6  O   UNL     1       1.765   7.618  18.640  0.00  0.00    +0.000 OA
ATOM      7  H   UNL     1       1.491  10.286  16.869  0.00  0.00    +0.000 HD
ENDROOT
BRANCH   1  15
ATOM      8  F   UNL     1      -0.660  13.084  23.035  0.00  0.00    +0.000 F 
ATOM      9  C   UNL     1      -0.906  11.844  22.549  0.00  0.00    +0.000 C 
ATOM     10  F   UNL     1      -1.381  11.090  23.572  0.00  0.00    +0.000 F 
ATOM     11  O   UNL     1      -1.925  11.940  21.544  0.00  0.00    +0.000 OA
ATOM     12  C   UNL     1      -1.262  11.409  20.484  0.00  0.00    +0.000 A 
ATOM     13  C   UNL     1      -1.765  11.253  19.215  0.00  0.00    +0.000 A 
ATOM     14  C   UNL     1      -0.931  10.675  18.248  0.00  0.00    +0.000 A 
ATOM     15  C   UNL     1       0.372  10.236  18.566  0.00  0.00    +0.000 A 
ATOM     16  C   UNL     1       0.856  10.443  19.870  0.00  0.00    +0.000 A 
ATOM     17  C   UNL     1       0.018  11.022  20.802  0.00  0.00    +0.000 A 
ATOM     18  O   UNL     1       0.332  11.272  22.101  0.00  0.00    +0.000 OA
ENDBRANCH   1  15
BRANCH   5  19
ATOM     19  C   UNL     1       2.794   5.492  19.225  0.00  0.00    +0.000 A 
ATOM     20  C   UNL     1       1.527   4.984  19.575  0.00  0.00    +0.000 A 
ATOM     21  C   UNL     1       1.404   3.784  20.260  0.00  0.00    +0.000 A 
ATOM     22  C   UNL     1       2.561   3.101  20.550  0.00  0.00    +0.000 A 
ATOM     23  N   UNL     1       3.788   3.525  20.184  0.00  0.00    +0.000 NA
ATOM     24  C   UNL     1       3.922   4.715  19.550  0.00  0.00    +0.000 A 
BRANCH  24  25
ATOM     25  N   UNL     1       5.216   5.139  19.233  0.00  0.00    +0.000 N 
ATOM     26  H   UNL     1       5.663   5.543  20.056  0.00  0.00    +0.000 HD
BRANCH  25  27
ATOM     27  C   UNL     1       6.108   4.195  18.560  0.00  0.00    +0.000 C 
BRANCH  27  28
ATOM     28  C   UNL     1       6.193   4.373  17.056  0.00  0.00    +0.000 A 
ATOM     29  C   UNL     1       5.090   4.080  16.254  0.00  0.00    +0.000 A 
ATOM     30  C   UNL     1       5.193   4.213  14.875  0.00  0.00    +0.000 A 
ATOM     31  C   UNL     1       6.383   4.670  14.328  0.00  0.00    +0.000 A 
ATOM     32  C   UNL     1       7.424   4.974  15.190  0.00  0.00    +0.000 A 
ATOM     33  N   UNL     1       7.364   4.826  16.534  0.00  0.00    +0.000 NA
ENDBRANCH  27  28
ENDBRANCH  25  27
ENDBRANCH  24  25
ENDBRANCH   5  19
TORSDOF 5
ENDMDL
