MODEL 1
REMARK VINA RESULT:      -7.1      0.000      0.000
REMARK  Name = 
REMARK  3 active torsions:
REMARK  status: ('A' for Active; 'I' for Inactive)
REMARK    1  A    between atoms: C_1  and  C_2
REMARK    2  A    between atoms: C_9  and  O_10
REMARK    3  A    between atoms: C_12  and  C_13
REMARK                            x       y       z     vdW  Elec       q    Type
REMARK                         _______ _______ _______ _____ _____    ______ ____
ROOT
ATOM      1  C   UNL     1       5.834   4.369  14.227  0.00  0.00    +0.000 C 
ATOM      2  C   UNL     1       5.750   4.891  15.630  0.00  0.00    +0.000 A 
ATOM      3  C   UNL     1       6.351   4.193  16.677  0.00  0.00    +0.000 A 
ATOM      4  C   UNL     1       6.137   4.595  17.991  0.00  0.00    +0.000 A 
ATOM      5  C   UNL     1       5.306   5.682  18.287  0.00  0.00    +0.000 A 
ATOM      6  C   UNL     1       4.769   6.453  17.243  0.00  0.00    +0.000 A 
ATOM      7  C   UNL     1       5.011   6.050  15.914  0.00  0.00    +0.000 A 
ATOM      8  C   UNL     1       3.900   7.662  17.520  0.00  0.00    +0.000 C 
ATOM      9  C   UNL     1       2.551   7.424  18.224  0.00  0.00    +0.000 C 
ATOM     10  C   UNL     1       2.600   6.809  19.626  0.00  0.00    +0.000 C 
ATOM     11  C   UNL     1       3.457   5.556  19.869  0.00  0.00    +0.000 C 
ATOM     12  N   UNL     1       4.881   5.843  19.613  0.00  0.00    +0.000 N 
ATOM     13  H   UNL     1       5.478   5.323  20.252  0.00  0.00    +0.000 HD
ENDROOT
BRANCH  11  14
ATOM     14  C   UNL     1       2.901   4.233  19.318  0.00  0.00    +0.000 A 
ATOM     15  C   UNL     1       2.904   3.949  17.935  0.00  0.00    +0.000 A 
ATOM     16  C   UNL     1       2.338   2.800  17.385  0.00  0.00    +0.000 A 
ATOM     17  C   UNL     1       1.738   1.873  18.210  0.00  0.00    +0.000 A 
ATOM     18  C   UNL     1       1.736   2.093  19.589  0.00  0.00    +0.000 A 
ATOM     19  C   UNL     1       2.320   3.250  20.141  0.00  0.00    +0.000 A 
ATOM     20 CL   UNL     1       2.253   3.385  21.864  0.00  0.00    +0.000 Cl
ENDBRANCH  11  14
BRANCH   9  21
ATOM     21  O   UNL     1       1.633   6.756  17.354  0.00  0.00    +0.000 OA
ATOM     22  H   UNL     1       1.946   5.846  17.206  0.00  0.00    +0.000 HD
ENDBRANCH   9  21
TORSDOF 2
ENDMDL
MODEL 2
REMARK VINA RESULT:      -7.0      9.427     11.390
REMARK  Name = 
REMARK  3 active torsions:
REMARK  status: ('A' for Active; 'I' for Inactive)
REMARK    1  A    between atoms: C_1  and  C_2
REMARK    2  A    between atoms: C_9  and  O_10
REMARK    3  A    between atoms: C_12  and  C_13
REMARK                            x       y       z     vdW  Elec       q    Type
REMARK                         _______ _______ _______ _____ _____    ______ ____
ROOT
ATOM      1  C   UNL     1       8.436   9.575  18.154  0.00  0.00    +0.000 C 
ATOM      2  C   UNL     1       9.435  10.537  18.723  0.00  0.00    +0.000 A 
ATOM      3  C   UNL     1       9.375  10.901  20.067  0.00  0.00    +0.000 A 
ATOM      4  C   UNL     1      10.203  11.909  20.551  0.00  0.00    +0.000 A 
ATOM      5  C   UNL     1      11.087  12.585  19.703  0.00  0.00    +0.000 A 
ATOM      6  C   UNL     1      11.228  12.169  18.370  0.00  0.00    +0.000 A 
ATOM      7  C   UNL     1      10.401  11.131  17.896  0.00  0.00    +0.000 A 
ATOM      8  C   UNL     1      12.205  12.846  17.430  0.00  0.00    +0.000 C 
ATOM      9  C   UNL     1      11.953  14.326  17.087  0.00  0.00    +0.000 C 
ATOM     10  C   UNL     1      11.977  15.321  18.251  0.00  0.00    +0.000 C 
ATOM     11  C   UNL     1      11.165  15.014  19.520  0.00  0.00    +0.000 C 
ATOM     12  N   UNL     1      11.655  13.781  20.164  0.00  0.00    +0.000 N 
ATOM     13  H   UNL     1      11.589  13.847  21.177  0.00  0.00    +0.000 HD
ENDROOT
BRANCH  11  14
ATOM     14  C   UNL     1       9.641  15.188  19.413  0.00  0.00    +0.000 A 
ATOM     15  C   UNL     1       8.992  15.263  18.161  0.00  0.00    +0.000 A 
ATOM     16  C   UNL     1       7.626  15.501  18.017  0.00  0.00    +0.000 A 
ATOM     17  C   UNL     1       6.842  15.675  19.137  0.00  0.00    +0.000 A 
ATOM     18  C   UNL     1       7.432  15.581  20.400  0.00  0.00    +0.000 A 
ATOM     19  C   UNL     1       8.810  15.328  20.541  0.00  0.00    +0.000 A 
ATOM     20 CL   UNL     1       9.401  15.226  22.163  0.00  0.00    +0.000 Cl
ENDBRANCH  11  14
BRANCH   9  21
ATOM     21  O   UNL     1      10.798  14.468  16.256  0.00  0.00    +0.000 OA
ATOM     22  H   UNL     1      10.944  13.975  15.429  0.00  0.00    +0.000 HD
ENDBRANCH   9  21
TORSDOF 2
ENDMDL
MODEL 3
REMARK VINA RESULT:      -6.8      9.964     11.623
REMARK  Name = 
REMARK  3 active torsions:
REMARK  status: ('A' for Active; 'I' for Inactive)
REMARK    1  A    between atoms: C_1  and  C_2
REMARK    2  A    between atoms: C_9  and  O_10
REMARK    3  A    between atoms: C_12  and  C_13
REMARK                            x       y       z     vdW  Elec       q    Type
REMARK                         _______ _______ _______ _____ _____    ______ ____
ROOT
ATOM      1  C   UNL     1       8.107  11.711  23.021  0.00  0.00    +0.000 C 
ATOM      2  C   UNL     1       9.152  12.438  22.229  0.00  0.00    +0.000 A 
ATOM      3  C   UNL     1       9.247  13.827  22.298  0.00  0.00    +0.000 A 
ATOM      4  C   UNL     1      10.109  14.508  21.445  0.00  0.00    +0.000 A 
ATOM      5  C   UNL     1      10.873  13.821  20.495  0.00  0.00    +0.000 A 
ATOM      6  C   UNL     1      10.861  12.417  20.474  0.00  0.00    +0.000 A 
ATOM      7  C   UNL     1      10.001  11.737  21.359  0.00  0.00    +0.000 A 
ATOM      8  C   UNL     1      11.706  11.634  19.490  0.00  0.00    +0.000 C 
ATOM      9  C   UNL     1      11.390  11.798  17.991  0.00  0.00    +0.000 C 
ATOM     10  C   UNL     1      11.535  13.204  17.402  0.00  0.00    +0.000 C 
ATOM     11  C   UNL     1      10.887  14.394  18.126  0.00  0.00    +0.000 C 
ATOM     12  N   UNL     1      11.472  14.566  19.469  0.00  0.00    +0.000 N 
ATOM     13  H   UNL     1      11.527  15.551  19.720  0.00  0.00    +0.000 HD
ENDROOT
BRANCH  11  14
ATOM     14  C   UNL     1       9.359  14.513  18.009  0.00  0.00    +0.000 A 
ATOM     15  C   UNL     1       8.554  13.401  17.678  0.00  0.00    +0.000 A 
ATOM     16  C   UNL     1       7.177  13.481  17.482  0.00  0.00    +0.000 A 
ATOM     17  C   UNL     1       6.537  14.695  17.614  0.00  0.00    +0.000 A 
ATOM     18  C   UNL     1       7.285  15.819  17.969  0.00  0.00    +0.000 A 
ATOM     19  C   UNL     1       8.675  15.732  18.178  0.00  0.00    +0.000 A 
ATOM     20 CL   UNL     1       9.469  17.202  18.626  0.00  0.00    +0.000 Cl
ENDBRANCH  11  14
BRANCH   9  21
ATOM     21  O   UNL     1      10.141  11.182  17.664  0.00  0.00    +0.000 OA
ATOM     22  H   UNL     1       9.429  11.833  17.785  0.00  0.00    +0.000 HD
ENDBRANCH   9  21
TORSDOF 2
ENDMDL
MODEL 4
REMARK VINA RESULT:      -6.3      2.793      5.506
REMARK  Name = 
REMARK  3 active torsions:
REMARK  status: ('A' for Active; 'I' for Inactive)
REMARK    1  A    between atoms: C_1  and  C_2
REMARK    2  A    between atoms: C_9  and  O_10
REMARK    3  A    between atoms: C_12  and  C_13
REMARK                            x       y       z     vdW  Elec       q    Type
REMARK                         _______ _______ _______ _____ _____    ______ ____
ROOT
ATOM      1  C   UNL     1       1.979   7.714  18.691  0.00  0.00    +0.000 C 
ATOM      2  C   UNL     1       2.917   6.547  18.615  0.00  0.00    +0.000 A 
ATOM      3  C   UNL     1       3.623   6.138  19.745  0.00  0.00    +0.000 A 
ATOM      4  C   UNL     1       4.606   5.159  19.633  0.00  0.00    +0.000 A 
ATOM      5  C   UNL     1       4.916   4.588  18.394  0.00  0.00    +0.000 A 
ATOM      6  C   UNL     1       4.152   4.918  17.264  0.00  0.00    +0.000 A 
ATOM      7  C   UNL     1       3.143   5.895  17.393  0.00  0.00    +0.000 A 
ATOM      8  C   UNL     1       4.427   4.291  15.912  0.00  0.00    +0.000 C 
ATOM      9  C   UNL     1       5.787   4.589  15.252  0.00  0.00    +0.000 C 
ATOM     10  C   UNL     1       7.038   4.139  16.011  0.00  0.00    +0.000 C 
ATOM     11  C   UNL     1       7.181   4.488  17.501  0.00  0.00    +0.000 C 
ATOM     12  N   UNL     1       6.106   3.855  18.288  0.00  0.00    +0.000 N 
ATOM     13  H   UNL     1       6.443   3.573  19.206  0.00  0.00    +0.000 HD
ENDROOT
BRANCH  11  14
ATOM     14  C   UNL     1       7.519   5.950  17.830  0.00  0.00    +0.000 A 
ATOM     15  C   UNL     1       7.237   6.995  16.923  0.00  0.00    +0.000 A 
ATOM     16  C   UNL     1       7.599   8.323  17.145  0.00  0.00    +0.000 A 
ATOM     17  C   UNL     1       8.265   8.665  18.302  0.00  0.00    +0.000 A 
ATOM     18  C   UNL     1       8.541   7.672  19.244  0.00  0.00    +0.000 A 
ATOM     19  C   UNL     1       8.163   6.334  19.021  0.00  0.00    +0.000 A 
ATOM     20 CL   UNL     1       8.559   5.214  20.279  0.00  0.00    +0.000 Cl
ENDBRANCH  11  14
BRANCH   9  21
ATOM     21  O   UNL     1       5.856   5.950  14.820  0.00  0.00    +0.000 OA
ATOM     22  H   UNL     1       5.033   6.173  14.350  0.00  0.00    +0.000 HD
ENDBRANCH   9  21
TORSDOF 2
ENDMDL
MODEL 5
REMARK VINA RESULT:      -6.2      2.684      5.021
REMARK  Name = 
REMARK  3 active torsions:
REMARK  status: ('A' for Active; 'I' for Inactive)
REMARK    1  A    between atoms: C_1  and  C_2
REMARK    2  A    between atoms: C_9  and  O_10
REMARK    3  A    between atoms: C_12  and  C_13
REMARK                            x       y       z     vdW  Elec       q    Type
REMARK                         _______ _______ _______ _____ _____    ______ ____
ROOT
ATOM      1  C   UNL     1       5.219   0.988  21.748  0.00  0.00    +0.000 C 
ATOM      2  C   UNL     1       4.389   1.505  20.612  0.00  0.00    +0.000 A 
ATOM      3  C   UNL     1       4.618   1.055  19.312  0.00  0.00    +0.000 A 
ATOM      4  C   UNL     1       3.956   1.652  18.244  0.00  0.00    +0.000 A 
ATOM      5  C   UNL     1       3.074   2.718  18.448  0.00  0.00    +0.000 A 
ATOM      6  C   UNL     1       2.760   3.122  19.756  0.00  0.00    +0.000 A 
ATOM      7  C   UNL     1       3.419   2.495  20.832  0.00  0.00    +0.000 A 
ATOM      8  C   UNL     1       1.777   4.244  20.022  0.00  0.00    +0.000 C 
ATOM      9  C   UNL     1       2.154   5.654  19.529  0.00  0.00    +0.000 C 
ATOM     10  C   UNL     1       2.352   5.830  18.020  0.00  0.00    +0.000 C 
ATOM     11  C   UNL     1       3.244   4.838  17.257  0.00  0.00    +0.000 C 
ATOM     12  N   UNL     1       2.686   3.474  17.333  0.00  0.00    +0.000 N 
ATOM     13  H   UNL     1       2.857   2.962  16.470  0.00  0.00    +0.000 HD
ENDROOT
BRANCH  11  14
ATOM     14  C   UNL     1       4.760   4.985  17.464  0.00  0.00    +0.000 A 
ATOM     15  C   UNL     1       5.304   5.333  18.720  0.00  0.00    +0.000 A 
ATOM     16  C   UNL     1       6.663   5.556  18.933  0.00  0.00    +0.000 A 
ATOM     17  C   UNL     1       7.547   5.437  17.883  0.00  0.00    +0.000 A 
ATOM     18  C   UNL     1       7.063   5.066  16.627  0.00  0.00    +0.000 A 
ATOM     19  C   UNL     1       5.689   4.829  16.419  0.00  0.00    +0.000 A 
ATOM     20 CL   UNL     1       5.234   4.365  14.816  0.00  0.00    +0.000 Cl
ENDBRANCH  11  14
BRANCH   9  21
ATOM     21  O   UNL     1       3.232   6.191  20.299  0.00  0.00    +0.000 OA
ATOM     22  H   UNL     1       4.016   5.628  20.179  0.00  0.00    +0.000 HD
ENDBRANCH   9  21
TORSDOF 2
ENDMDL
MODEL 6
REMARK VINA RESULT:      -6.2      9.651     11.496
REMARK  Name = 
REMARK  3 active torsions:
REMARK  status: ('A' for Active; 'I' for Inactive)
REMARK    1  A    between atoms: C_1  and  C_2
REMARK    2  A    between atoms: C_9  and  O_10
REMARK    3  A    between atoms: C_12  and  C_13
REMARK                            x       y       z     vdW  Elec       q    Type
REMARK                         _______ _______ _______ _____ _____    ______ ____
ROOT
ATOM      1  C   UNL     1       8.908   9.981  18.359  0.00  0.00    +0.000 C 
ATOM      2  C   UNL     1       9.780  11.133  18.759  0.00  0.00    +0.000 A 
ATOM      3  C   UNL     1      10.193  11.276  20.083  0.00  0.00    +0.000 A 
ATOM      4  C   UNL     1      10.867  12.426  20.480  0.00  0.00    +0.000 A 
ATOM      5  C   UNL     1      11.123  13.461  19.573  0.00  0.00    +0.000 A 
ATOM      6  C   UNL     1      10.799  13.294  18.217  0.00  0.00    +0.000 A 
ATOM      7  C   UNL     1      10.136  12.115  17.822  0.00  0.00    +0.000 A 
ATOM      8  C   UNL     1      11.097  14.373  17.195  0.00  0.00    +0.000 C 
ATOM      9  C   UNL     1      10.366  15.720  17.348  0.00  0.00    +0.000 C 
ATOM     10  C   UNL     1      10.621  16.504  18.639  0.00  0.00    +0.000 C 
ATOM     11  C   UNL     1      10.511  15.782  19.992  0.00  0.00    +0.000 C 
ATOM     12  N   UNL     1      11.514  14.704  20.088  0.00  0.00    +0.000 N 
ATOM     13  H   UNL     1      11.858  14.611  21.041  0.00  0.00    +0.000 HD
ENDROOT
BRANCH  11  14
ATOM     14  C   UNL     1       9.090  15.459  20.479  0.00  0.00    +0.000 A 
ATOM     15  C   UNL     1       8.016  15.307  19.575  0.00  0.00    +0.000 A 
ATOM     16  C   UNL     1       6.698  15.094  19.976  0.00  0.00    +0.000 A 
ATOM     17  C   UNL     1       6.396  15.024  21.319  0.00  0.00    +0.000 A 
ATOM     18  C   UNL     1       7.428  15.139  22.253  0.00  0.00    +0.000 A 
ATOM     19  C   UNL     1       8.760  15.341  21.842  0.00  0.00    +0.000 A 
ATOM     20 CL   UNL     1       9.935  15.454  23.107  0.00  0.00    +0.000 Cl
ENDBRANCH  11  14
BRANCH   9  21
ATOM     21  O   UNL     1       8.976  15.583  17.044  0.00  0.00    +0.000 OA
ATOM     22  H   UNL     1       8.581  14.941  17.659  0.00  0.00    +0.000 HD
ENDBRANCH   9  21
TORSDOF 2
ENDMDL
MODEL 7
REMARK VINA RESULT:      -6.1      9.732     11.525
REMARK  Name = 
REMARK  3 active torsions:
REMARK  status: ('A' for Active; 'I' for Inactive)
REMARK    1  A    between atoms: C_1  and  C_2
REMARK    2  A    between atoms: C_9  and  O_10
REMARK    3  A    between atoms: C_12  and  C_13
REMARK                            x       y       z     vdW  Elec       q    Type
REMARK                         _______ _______ _______ _____ _____    ______ ____
ROOT
ATOM      1  C   UNL     1       6.454  16.995  18.886  0.00  0.00    +0.000 C 
ATOM      2  C   UNL     1       7.458  16.003  18.383  0.00  0.00    +0.000 A 
ATOM      3  C   UNL     1       7.062  14.707  18.052  0.00  0.00    +0.000 A 
ATOM      4  C   UNL     1       8.018  13.748  17.738  0.00  0.00    +0.000 A 
ATOM      5  C   UNL     1       9.384  14.053  17.770  0.00  0.00    +0.000 A 
ATOM      6  C   UNL     1       9.796  15.374  18.009  0.00  0.00    +0.000 A 
ATOM      7  C   UNL     1       8.817  16.344  18.303  0.00  0.00    +0.000 A 
ATOM      8  C   UNL     1      11.263  15.756  18.010  0.00  0.00    +0.000 C 
ATOM      9  C   UNL     1      12.161  15.132  19.094  0.00  0.00    +0.000 C 
ATOM     10  C   UNL     1      12.287  13.606  19.096  0.00  0.00    +0.000 C 
ATOM     11  C   UNL     1      11.015  12.746  19.022  0.00  0.00    +0.000 C 
ATOM     12  N   UNL     1      10.296  12.990  17.757  0.00  0.00    +0.000 N 
ATOM     13  H   UNL     1       9.856  12.137  17.417  0.00  0.00    +0.000 HD
ENDROOT
BRANCH  11  14
ATOM     14  C   UNL     1      10.169  12.668  20.302  0.00  0.00    +0.000 A 
ATOM     15  C   UNL     1      10.121  13.738  21.223  0.00  0.00    +0.000 A 
ATOM     16  C   UNL     1       9.433  13.680  22.433  0.00  0.00    +0.000 A 
ATOM     17  C   UNL     1       8.753  12.531  22.778  0.00  0.00    +0.000 A 
ATOM     18  C   UNL     1       8.746  11.455  21.888  0.00  0.00    +0.000 A 
ATOM     19  C   UNL     1       9.432  11.523  20.659  0.00  0.00    +0.000 A 
ATOM     20 CL   UNL     1       9.326  10.121  19.653  0.00  0.00    +0.000 Cl
ENDBRANCH  11  14
BRANCH   9  21
ATOM     21  O   UNL     1      11.849  15.667  20.383  0.00  0.00    +0.000 OA
ATOM     22  H   UNL     1      11.062  15.213  20.731  0.00  0.00    +0.000 HD
ENDBRANCH   9  21
TORSDOF 2
ENDMDL
MODEL 8
REMARK VINA RESULT:      -6.0      9.662     11.301
REMARK  Name = 
REMARK  3 active torsions:
REMARK  status: ('A' for Active; 'I' for Inactive)
REMARK    1  A    between atoms: C_1  and  C_2
REMARK    2  A    between atoms: C_9  and  O_10
REMARK    3  A    between atoms: C_12  and  C_13
REMARK                            x       y       z     vdW  Elec       q    Type
REMARK                         _______ _______ _______ _____ _____    ______ ____
ROOT
ATOM      1  C   UNL     1       5.392  15.099  17.861  0.00  0.00    +0.000 C 
ATOM      2  C   UNL     1       6.837  14.716  17.747  0.00  0.00    +0.000 A 
ATOM      3  C   UNL     1       7.196  13.387  17.525  0.00  0.00    +0.000 A 
ATOM      4  C   UNL     1       8.535  13.012  17.577  0.00  0.00    +0.000 A 
ATOM      5  C   UNL     1       9.534  13.946  17.870  0.00  0.00    +0.000 A 
ATOM      6  C   UNL     1       9.201  15.304  18.002  0.00  0.00    +0.000 A 
ATOM      7  C   UNL     1       7.844  15.676  17.925  0.00  0.00    +0.000 A 
ATOM      8  C   UNL     1      10.259  16.354  18.277  0.00  0.00    +0.000 C 
ATOM      9  C   UNL     1      11.018  16.267  19.615  0.00  0.00    +0.000 C 
ATOM     10  C   UNL     1      11.837  14.997  19.865  0.00  0.00    +0.000 C 
ATOM     11  C   UNL     1      11.187  13.624  19.632  0.00  0.00    +0.000 C 
ATOM     12  N   UNL     1      10.804  13.464  18.216  0.00  0.00    +0.000 N 
ATOM     13  H   UNL     1      10.922  12.500  17.913  0.00  0.00    +0.000 HD
ENDROOT
BRANCH  11  14
ATOM     14  C   UNL     1      10.168  13.164  20.687  0.00  0.00    +0.000 A 
ATOM     15  C   UNL     1       9.701  14.037  21.693  0.00  0.00    +0.000 A 
ATOM     16  C   UNL     1       8.841  13.641  22.716  0.00  0.00    +0.000 A 
ATOM     17  C   UNL     1       8.406  12.335  22.774  0.00  0.00    +0.000 A 
ATOM     18  C   UNL     1       8.817  11.438  21.785  0.00  0.00    +0.000 A 
ATOM     19  C   UNL     1       9.676  11.847  20.746  0.00  0.00    +0.000 A 
ATOM     20 CL   UNL     1      10.092  10.634  19.585  0.00  0.00    +0.000 Cl
ENDBRANCH  11  14
BRANCH   9  21
ATOM     21  O   UNL     1      10.162  16.603  20.710  0.00  0.00    +0.000 OA
ATOM     22  H   UNL     1       9.400  15.998  20.710  0.00  0.00    +0.000 HD
ENDBRANCH   9  21
TORSDOF 2
ENDMDL
MODEL 9
REMARK VINA RESULT:      -5.9      6.911      8.541
REMARK  Name = 
REMARK  3 active torsions:
REMARK  status: ('A' for Active; 'I' for Inactive)
REMARK    1  A    between atoms: C_1  and  C_2
REMARK    2  A    between atoms: C_9  and  O_10
REMARK    3  A    between atoms: C_12  and  C_13
REMARK                            x       y       z     vdW  Elec       q    Type
REMARK                         _______ _______ _______ _____ _____    ______ ____
ROOT
ATOM      1  C   UNL     1      -4.667  10.985  18.343  0.00  0.00    +0.000 C 
ATOM      2  C   UNL     1      -3.183  11.065  18.148  0.00  0.00    +0.000 A 
ATOM      3  C   UNL     1      -2.441   9.907  17.919  0.00  0.00    +0.000 A 
ATOM      4  C   UNL     1      -1.052   9.966  17.896  0.00  0.00    +0.000 A 
ATOM      5  C   UNL     1      -0.377  11.171  18.123  0.00  0.00    +0.000 A 
ATOM      6  C   UNL     1      -1.108  12.362  18.261  0.00  0.00    +0.000 A 
ATOM      7  C   UNL     1      -2.516  12.294  18.259  0.00  0.00    +0.000 A 
ATOM      8  C   UNL     1      -0.416  13.695  18.465  0.00  0.00    +0.000 C 
ATOM      9  C   UNL     1       0.401  13.883  19.757  0.00  0.00    +0.000 C 
ATOM     10  C   UNL     1       1.585  12.936  19.971  0.00  0.00    +0.000 C 
ATOM     11  C   UNL     1       1.383  11.423  19.789  0.00  0.00    +0.000 C 
ATOM     12  N   UNL     1       0.995  11.115  18.399  0.00  0.00    +0.000 N 
ATOM     13  H   UNL     1       1.390  10.227  18.099  0.00  0.00    +0.000 HD
ENDROOT
BRANCH  11  14
ATOM     14  C   UNL     1       0.614  10.699  20.905  0.00  0.00    +0.000 A 
ATOM     15  C   UNL     1      -0.214  11.402  21.808  0.00  0.00    +0.000 A 
ATOM     16  C   UNL     1      -0.865  10.798  22.883  0.00  0.00    +0.000 A 
ATOM     17  C   UNL     1      -0.713   9.446  23.101  0.00  0.00    +0.000 A 
ATOM     18  C   UNL     1       0.073   8.701  22.219  0.00  0.00    +0.000 A 
ATOM     19  C   UNL     1       0.719   9.313  21.126  0.00  0.00    +0.000 A 
ATOM     20 CL   UNL     1       1.648   8.266  20.111  0.00  0.00    +0.000 Cl
ENDBRANCH  11  14
BRANCH   9  21
ATOM     21  O   UNL     1      -0.459  13.967  20.896  0.00  0.00    +0.000 OA
ATOM     22  H   UNL     1      -1.025  14.752  20.805  0.00  0.00    +0.000 HD
ENDBRANCH   9  21
TORSDOF 2
ENDMDL
