MODEL 1
REMARK VINA RESULT:      -9.8      0.000      0.000
REMARK  Name = 
REMARK  6 active torsions:
REMARK  status: ('A' for Active; 'I' for Inactive)
REMARK    1  A    between atoms: C_2  and  C_3
REMARK    2  A    between atoms: C_3  and  C_4
REMARK    3  A    between atoms: C_4  and  C_5
REMARK    4  A    between atoms: C_10  and  C_11
REMARK    5  A    between atoms: N_24  and  C_25
REMARK    6  A    between atoms: C_25  and  C_26
REMARK                            x       y       z     vdW  Elec       q    Type
REMARK                         _______ _______ _______ _____ _____    ______ ____
ROOT
ATOM      1  C   UNL     1       2.246   7.184  19.917  0.00  0.00    +0.000 C 
ATOM      2  O   UNL     1       2.456   7.683  18.815  0.00  0.00    +0.000 OA
ATOM      3  N   UNL     1       2.674   5.956  20.365  0.00  0.00    +0.000 N 
ATOM      4  C   UNL     1       3.414   5.143  19.556  0.00  0.00    +0.000 A 
ATOM      5  N   UNL     1       4.066   5.452  18.466  0.00  0.00    +0.000 NA
ATOM      6  C   UNL     1       4.662   4.321  17.941  0.00  0.00    +0.000 A 
ATOM      7  C   UNL     1       4.389   3.154  18.629  0.00  0.00    +0.000 A 
ATOM      8  S   UNL     1       3.473   3.509  20.040  0.00  0.00    +0.000 S 
ATOM      9  H   UNL     1       2.267   5.537  21.191  0.00  0.00    +0.000 HD
ENDROOT
BRANCH   6  10
ATOM     10  C   UNL     1       5.485   4.468  16.772  0.00  0.00    +0.000 A 
ATOM     11  C   UNL     1       5.129   3.938  15.583  0.00  0.00    +0.000 A 
ATOM     12  C   UNL     1       5.926   4.144  14.385  0.00  0.00    +0.000 A 
ATOM     13  C   UNL     1       5.605   3.569  13.154  0.00  0.00    +0.000 A 
ATOM     14  C   UNL     1       6.394   3.835  12.027  0.00  0.00    +0.000 A 
ATOM     15  C   UNL     1       7.500   4.683  12.124  0.00  0.00    +0.000 A 
ATOM     16  C   UNL     1       7.827   5.256  13.350  0.00  0.00    +0.000 A 
ATOM     17  C   UNL     1       7.042   4.969  14.461  0.00  0.00    +0.000 A 
ATOM     18  O   UNL     1       7.426   5.540  15.682  0.00  0.00    +0.000 OA
ATOM     19  C   UNL     1       6.737   5.282  16.860  0.00  0.00    +0.000 A 
ATOM     20  O   UNL     1       7.160   5.738  17.920  0.00  0.00    +0.000 OA
ENDBRANCH   6  10
BRANCH   1  21
ATOM     21  C   UNL     1       1.380   7.922  20.914  0.00  0.00    +0.000 C 
BRANCH  21  22
ATOM     22  C   UNL     1       0.834   9.189  20.265  0.00  0.00    +0.000 C 
BRANCH  22  24
ATOM     23  O   UNL     1       0.945  10.175  22.464  0.00  0.00    +0.000 OA
ATOM     24  C   UNL     1       0.642  10.306  21.279  0.00  0.00    +0.000 C 
ATOM     25  N   UNL     1       0.152  11.466  20.733  0.00  0.00    +0.000 N 
ATOM     26  H   UNL     1      -0.194  11.456  19.786  0.00  0.00    +0.000 HD
BRANCH  25  27
ATOM     27  C   UNL     1      -0.140  12.642  21.535  0.00  0.00    +0.000 C 
BRANCH  27  28
ATOM     28  C   UNL     1      -1.606  12.752  21.881  0.00  0.00    +0.000 A 
ATOM     29  C   UNL     1      -2.495  13.413  21.001  0.00  0.00    +0.000 A 
ATOM     30  C   UNL     1      -3.852  13.553  21.312  0.00  0.00    +0.000 A 
ATOM     31  C   UNL     1      -4.291  13.041  22.512  0.00  0.00    +0.000 A 
ATOM     32  C   UNL     1      -3.439  12.391  23.374  0.00  0.00    +0.000 A 
ATOM     33  C   UNL     1      -2.098  12.225  23.088  0.00  0.00    +0.000 A 
ATOM     34  O   UNL     1      -4.070  11.962  24.500  0.00  0.00    +0.000 OA
ATOM     35  C   UNL     1      -5.394  12.495  24.286  0.00  0.00    +0.000 C 
ATOM     36  O   UNL     1      -5.562  13.107  22.990  0.00  0.00    +0.000 OA
ENDBRANCH  27  28
ENDBRANCH  25  27
ENDBRANCH  22  24
ENDBRANCH  21  22
ENDBRANCH   1  21
TORSDOF 6
ENDMDL
MODEL 2
REMARK VINA RESULT:      -9.8      1.059      1.531
REMARK  Name = 
REMARK  6 active torsions:
REMARK  status: ('A' for Active; 'I' for Inactive)
REMARK    1  A    between atoms: C_2  and  C_3
REMARK    2  A    between atoms: C_3  and  C_4
REMARK    3  A    between atoms: C_4  and  C_5
REMARK    4  A    between atoms: C_10  and  C_11
REMARK    5  A    between atoms: N_24  and  C_25
REMARK    6  A    between atoms: C_25  and  C_26
REMARK                            x       y       z     vdW  Elec       q    Type
REMARK                         _______ _______ _______ _____ _____    ______ ____
ROOT
ATOM      1  C   UNL     1       1.916   8.620  18.577  0.00  0.00    +0.000 C 
ATOM      2  O   UNL     1       2.196   8.799  17.395  0.00  0.00    +0.000 OA
ATOM      3  N   UNL     1       2.297   7.560  19.366  0.00  0.00    +0.000 N 
ATOM      4  C   UNL     1       3.068   6.556  18.852  0.00  0.00    +0.000 A 
ATOM      5  N   UNL     1       3.785   6.557  17.759  0.00  0.00    +0.000 NA
ATOM      6  C   UNL     1       4.390   5.325  17.597  0.00  0.00    +0.000 A 
ATOM      7  C   UNL     1       4.060   4.389  18.558  0.00  0.00    +0.000 A 
ATOM      8  S   UNL     1       3.072   5.116  19.764  0.00  0.00    +0.000 S 
ATOM      9  H   UNL     1       1.838   7.381  20.249  0.00  0.00    +0.000 HD
ENDROOT
BRANCH   6  10
ATOM     10  C   UNL     1       5.280   5.148  16.481  0.00  0.00    +0.000 A 
ATOM     11  C   UNL     1       4.922   4.430  15.396  0.00  0.00    +0.000 A 
ATOM     12  C   UNL     1       5.794   4.307  14.240  0.00  0.00    +0.000 A 
ATOM     13  C   UNL     1       5.468   3.532  13.125  0.00  0.00    +0.000 A 
ATOM     14  C   UNL     1       6.335   3.482  12.026  0.00  0.00    +0.000 A 
ATOM     15  C   UNL     1       7.526   4.214  12.033  0.00  0.00    +0.000 A 
ATOM     16  C   UNL     1       7.857   4.985  13.143  0.00  0.00    +0.000 A 
ATOM     17  C   UNL     1       6.992   5.010  14.232  0.00  0.00    +0.000 A 
ATOM     18  O   UNL     1       7.382   5.772  15.342  0.00  0.00    +0.000 OA
ATOM     19  C   UNL     1       6.611   5.829  16.497  0.00  0.00    +0.000 A 
ATOM     20  O   UNL     1       7.033   6.442  17.474  0.00  0.00    +0.000 OA
ENDBRANCH   6  10
BRANCH   1  21
ATOM     21  C   UNL     1       1.007   9.602  19.284  0.00  0.00    +0.000 C 
BRANCH  21  22
ATOM     22  C   UNL     1       0.747   9.113  20.705  0.00  0.00    +0.000 C 
BRANCH  22  24
ATOM     23  O   UNL     1       0.682  10.185  22.865  0.00  0.00    +0.000 OA
ATOM     24  C   UNL     1       0.467  10.266  21.656  0.00  0.00    +0.000 C 
ATOM     25  N   UNL     1       0.007  11.397  21.030  0.00  0.00    +0.000 N 
ATOM     26  H   UNL     1      -0.266  11.346  20.061  0.00  0.00    +0.000 HD
BRANCH  25  27
ATOM     27  C   UNL     1      -0.357  12.599  21.761  0.00  0.00    +0.000 C 
BRANCH  27  28
ATOM     28  C   UNL     1      -1.827  12.639  22.105  0.00  0.00    +0.000 A 
ATOM     29  C   UNL     1      -2.243  12.543  23.454  0.00  0.00    +0.000 A 
ATOM     30  C   UNL     1      -3.600  12.548  23.796  0.00  0.00    +0.000 A 
ATOM     31  C   UNL     1      -4.518  12.634  22.775  0.00  0.00    +0.000 A 
ATOM     32  C   UNL     1      -4.128  12.733  21.460  0.00  0.00    +0.000 A 
ATOM     33  C   UNL     1      -2.797  12.745  21.092  0.00  0.00    +0.000 A 
ATOM     34  O   UNL     1      -5.187  12.808  20.610  0.00  0.00    +0.000 OA
ATOM     35  C   UNL     1      -6.285  12.654  21.534  0.00  0.00    +0.000 C 
ATOM     36  O   UNL     1      -5.871  12.628  22.915  0.00  0.00    +0.000 OA
ENDBRANCH  27  28
ENDBRANCH  25  27
ENDBRANCH  22  24
ENDBRANCH  21  22
ENDBRANCH   1  21
TORSDOF 6
ENDMDL
MODEL 3
REMARK VINA RESULT:      -9.6      2.448      3.127
REMARK  Name = 
REMARK  6 active torsions:
REMARK  status: ('A' for Active; 'I' for Inactive)
REMARK    1  A    between atoms: C_2  and  C_3
REMARK    2  A    between atoms: C_3  and  C_4
REMARK    3  A    between atoms: C_4  and  C_5
REMARK    4  A    between atoms: C_10  and  C_11
REMARK    5  A    between atoms: N_24  and  C_25
REMARK    6  A    between atoms: C_25  and  C_26
REMARK                            x       y       z     vdW  Elec       q    Type
REMARK                         _______ _______ _______ _____ _____    ______ ____
ROOT
ATOM      1  C   UNL     1       1.954   7.136  19.909  0.00  0.00    +0.000 C 
ATOM      2  O   UNL     1       2.158   7.611  18.795  0.00  0.00    +0.000 OA
ATOM      3  N   UNL     1       2.453   5.956  20.410  0.00  0.00    +0.000 N 
ATOM      4  C   UNL     1       3.269   5.170  19.647  0.00  0.00    +0.000 A 
ATOM      5  N   UNL     1       3.926   5.488  18.563  0.00  0.00    +0.000 NA
ATOM      6  C   UNL     1       4.613   4.385  18.092  0.00  0.00    +0.000 A 
ATOM      7  C   UNL     1       4.404   3.225  18.813  0.00  0.00    +0.000 A 
ATOM      8  S   UNL     1       3.428   3.562  20.189  0.00  0.00    +0.000 S 
ATOM      9  H   UNL     1       2.055   5.538  21.239  0.00  0.00    +0.000 HD
ENDROOT
BRANCH   6  10
ATOM     10  C   UNL     1       5.455   4.551  16.938  0.00  0.00    +0.000 A 
ATOM     11  C   UNL     1       5.159   3.970  15.757  0.00  0.00    +0.000 A 
ATOM     12  C   UNL     1       5.972   4.192  14.572  0.00  0.00    +0.000 A 
ATOM     13  C   UNL     1       5.716   3.567  13.350  0.00  0.00    +0.000 A 
ATOM     14  C   UNL     1       6.515   3.849  12.235  0.00  0.00    +0.000 A 
ATOM     15  C   UNL     1       7.567   4.765  12.334  0.00  0.00    +0.000 A 
ATOM     16  C   UNL     1       7.828   5.388  13.551  0.00  0.00    +0.000 A 
ATOM     17  C   UNL     1       7.035   5.084  14.651  0.00  0.00    +0.000 A 
ATOM     18  O   UNL     1       7.355   5.708  15.865  0.00  0.00    +0.000 OA
ATOM     19  C   UNL     1       6.653   5.440  17.033  0.00  0.00    +0.000 A 
ATOM     20  O   UNL     1       7.023   5.947  18.090  0.00  0.00    +0.000 OA
ENDBRANCH   6  10
BRANCH   1  21
ATOM     21  C   UNL     1       1.012   7.844  20.859  0.00  0.00    +0.000 C 
BRANCH  21  22
ATOM     22  C   UNL     1       1.685   9.108  21.384  0.00  0.00    +0.000 C 
BRANCH  22  24
ATOM     23  O   UNL     1       0.370  10.559  22.793  0.00  0.00    +0.000 OA
ATOM     24  C   UNL     1       0.677  10.215  21.652  0.00  0.00    +0.000 C 
ATOM     25  N   UNL     1       0.195  10.809  20.513  0.00  0.00    +0.000 N 
ATOM     26  H   UNL     1       0.393  10.388  19.619  0.00  0.00    +0.000 HD
BRANCH  25  27
ATOM     27  C   UNL     1      -0.805  11.861  20.546  0.00  0.00    +0.000 C 
BRANCH  27  28
ATOM     28  C   UNL     1      -1.823  11.721  19.440  0.00  0.00    +0.000 A 
ATOM     29  C   UNL     1      -3.171  12.090  19.664  0.00  0.00    +0.000 A 
ATOM     30  C   UNL     1      -4.139  11.943  18.665  0.00  0.00    +0.000 A 
ATOM     31  C   UNL     1      -3.740  11.412  17.460  0.00  0.00    +0.000 A 
ATOM     32  C   UNL     1      -2.433  11.055  17.226  0.00  0.00    +0.000 A 
ATOM     33  C   UNL     1      -1.453  11.201  18.187  0.00  0.00    +0.000 A 
ATOM     34  O   UNL     1      -2.250  10.553  15.975  0.00  0.00    +0.000 OA
ATOM     35  C   UNL     1      -3.606  10.553  15.484  0.00  0.00    +0.000 C 
ATOM     36  O   UNL     1      -4.543  11.174  16.388  0.00  0.00    +0.000 OA
ENDBRANCH  27  28
ENDBRANCH  25  27
ENDBRANCH  22  24
ENDBRANCH  21  22
ENDBRANCH   1  21
TORSDOF 6
ENDMDL
MODEL 4
REMARK VINA RESULT:      -9.6      1.206      1.377
REMARK  Name = 
REMARK  6 active torsions:
REMARK  status: ('A' for Active; 'I' for Inactive)
REMARK    1  A    between atoms: C_2  and  C_3
REMARK    2  A    between atoms: C_3  and  C_4
REMARK    3  A    between atoms: C_4  and  C_5
REMARK    4  A    between atoms: C_10  and  C_11
REMARK    5  A    between atoms: N_24  and  C_25
REMARK    6  A    between atoms: C_25  and  C_26
REMARK                            x       y       z     vdW  Elec       q    Type
REMARK                         _______ _______ _______ _____ _____    ______ ____
ROOT
ATOM      1  C   UNL     1       1.794   8.761  18.485  0.00  0.00    +0.000 C 
ATOM      2  O   UNL     1       2.046   8.871  17.288  0.00  0.00    +0.000 OA
ATOM      3  N   UNL     1       2.220   7.766  19.333  0.00  0.00    +0.000 N 
ATOM      4  C   UNL     1       3.010   6.752  18.870  0.00  0.00    +0.000 A 
ATOM      5  N   UNL     1       3.707   6.702  17.765  0.00  0.00    +0.000 NA
ATOM      6  C   UNL     1       4.345   5.480  17.670  0.00  0.00    +0.000 A 
ATOM      7  C   UNL     1       4.061   4.600  18.696  0.00  0.00    +0.000 A 
ATOM      8  S   UNL     1       3.074   5.376  19.873  0.00  0.00    +0.000 S 
ATOM      9  H   UNL     1       1.784   7.633  20.235  0.00  0.00    +0.000 HD
ENDROOT
BRANCH   6  10
ATOM     10  C   UNL     1       5.219   5.255  16.550  0.00  0.00    +0.000 A 
ATOM     11  C   UNL     1       4.829   4.529  15.482  0.00  0.00    +0.000 A 
ATOM     12  C   UNL     1       5.687   4.359  14.321  0.00  0.00    +0.000 A 
ATOM     13  C   UNL     1       5.327   3.575  13.222  0.00  0.00    +0.000 A 
ATOM     14  C   UNL     1       6.182   3.478  12.118  0.00  0.00    +0.000 A 
ATOM     15  C   UNL     1       7.395   4.173  12.101  0.00  0.00    +0.000 A 
ATOM     16  C   UNL     1       7.760   4.953  13.194  0.00  0.00    +0.000 A 
ATOM     17  C   UNL     1       6.906   5.024  14.290  0.00  0.00    +0.000 A 
ATOM     18  O   UNL     1       7.328   5.793  15.382  0.00  0.00    +0.000 OA
ATOM     19  C   UNL     1       6.571   5.895  16.542  0.00  0.00    +0.000 A 
ATOM     20  O   UNL     1       7.020   6.512  17.505  0.00  0.00    +0.000 OA
ENDBRANCH   6  10
BRANCH   1  21
ATOM     21  C   UNL     1       0.870   9.761  19.145  0.00  0.00    +0.000 C 
BRANCH  21  22
ATOM     22  C   UNL     1       0.900   9.553  20.655  0.00  0.00    +0.000 C 
BRANCH  22  24
ATOM     23  O   UNL     1       1.299  11.832  21.339  0.00  0.00    +0.000 OA
ATOM     24  C   UNL     1       0.582  10.835  21.409  0.00  0.00    +0.000 C 
ATOM     25  N   UNL     1      -0.591  10.778  22.120  0.00  0.00    +0.000 N 
ATOM     26  H   UNL     1      -1.054   9.890  22.234  0.00  0.00    +0.000 HD
BRANCH  25  27
ATOM     27  C   UNL     1      -1.059  11.882  22.940  0.00  0.00    +0.000 C 
BRANCH  27  28
ATOM     28  C   UNL     1      -2.487  12.262  22.630  0.00  0.00    +0.000 A 
ATOM     29  C   UNL     1      -2.865  12.584  21.305  0.00  0.00    +0.000 A 
ATOM     30  C   UNL     1      -4.175  12.967  20.997  0.00  0.00    +0.000 A 
ATOM     31  C   UNL     1      -5.082  13.037  22.030  0.00  0.00    +0.000 A 
ATOM     32  C   UNL     1      -4.730  12.722  23.322  0.00  0.00    +0.000 A 
ATOM     33  C   UNL     1      -3.449  12.327  23.654  0.00  0.00    +0.000 A 
ATOM     34  O   UNL     1      -5.770  12.856  24.189  0.00  0.00    +0.000 OA
ATOM     35  C   UNL     1      -6.788  13.375  23.309  0.00  0.00    +0.000 C 
ATOM     36  O   UNL     1      -6.384  13.413  21.924  0.00  0.00    +0.000 OA
ENDBRANCH  27  28
ENDBRANCH  25  27
ENDBRANCH  22  24
ENDBRANCH  21  22
ENDBRANCH   1  21
TORSDOF 6
ENDMDL
MODEL 5
REMARK VINA RESULT:      -9.5      1.192      1.633
REMARK  Name = 
REMARK  6 active torsions:
REMARK  status: ('A' for Active; 'I' for Inactive)
REMARK    1  A    between atoms: C_2  and  C_3
REMARK    2  A    between atoms: C_3  and  C_4
REMARK    3  A    between atoms: C_4  and  C_5
REMARK    4  A    between atoms: C_10  and  C_11
REMARK    5  A    between atoms: N_24  and  C_25
REMARK    6  A    between atoms: C_25  and  C_26
REMARK                            x       y       z     vdW  Elec       q    Type
REMARK                         _______ _______ _______ _____ _____    ______ ____
ROOT
ATOM      1  C   UNL     1       1.893   8.318  18.805  0.00  0.00    +0.000 C 
ATOM      2  O   UNL     1       2.126   8.524  17.617  0.00  0.00    +0.000 OA
ATOM      3  N   UNL     1       2.349   7.268  19.568  0.00  0.00    +0.000 N 
ATOM      4  C   UNL     1       3.150   6.308  19.017  0.00  0.00    +0.000 A 
ATOM      5  N   UNL     1       3.830   6.356  17.902  0.00  0.00    +0.000 NA
ATOM      6  C   UNL     1       4.488   5.156  17.705  0.00  0.00    +0.000 A 
ATOM      7  C   UNL     1       4.234   4.195  18.664  0.00  0.00    +0.000 A 
ATOM      8  S   UNL     1       3.252   4.860  19.910  0.00  0.00    +0.000 S 
ATOM      9  H   UNL     1       1.928   7.058  20.462  0.00  0.00    +0.000 HD
ENDROOT
BRANCH   6  10
ATOM     10  C   UNL     1       5.349   5.035  16.559  0.00  0.00    +0.000 A 
ATOM     11  C   UNL     1       4.974   4.346  15.461  0.00  0.00    +0.000 A 
ATOM     12  C   UNL     1       5.815   4.280  14.277  0.00  0.00    +0.000 A 
ATOM     13  C   UNL     1       5.471   3.537  13.145  0.00  0.00    +0.000 A 
ATOM     14  C   UNL     1       6.308   3.542  12.022  0.00  0.00    +0.000 A 
ATOM     15  C   UNL     1       7.485   4.296  12.021  0.00  0.00    +0.000 A 
ATOM     16  C   UNL     1       7.833   5.035  13.148  0.00  0.00    +0.000 A 
ATOM     17  C   UNL     1       6.999   5.007  14.260  0.00  0.00    +0.000 A 
ATOM     18  O   UNL     1       7.405   5.738  15.384  0.00  0.00    +0.000 OA
ATOM     19  C   UNL     1       6.667   5.741  16.561  0.00  0.00    +0.000 A 
ATOM     20  O   UNL     1       7.105   6.329  17.547  0.00  0.00    +0.000 OA
ENDBRANCH   6  10
BRANCH   1  21
ATOM     21  C   UNL     1       0.962   9.248  19.553  0.00  0.00    +0.000 C 
BRANCH  21  22
ATOM     22  C   UNL     1       0.274  10.176  18.559  0.00  0.00    +0.000 C 
BRANCH  22  24
ATOM     23  O   UNL     1       0.844  12.293  19.566  0.00  0.00    +0.000 OA
ATOM     24  C   UNL     1      -0.039  11.531  19.175  0.00  0.00    +0.000 C 
ATOM     25  N   UNL     1      -1.379  11.827  19.201  0.00  0.00    +0.000 N 
ATOM     26  H   UNL     1      -2.046  11.104  18.985  0.00  0.00    +0.000 HD
BRANCH  25  27
ATOM     27  C   UNL     1      -1.894  13.054  19.783  0.00  0.00    +0.000 C 
BRANCH  27  28
ATOM     28  C   UNL     1      -2.532  12.827  21.132  0.00  0.00    +0.000 A 
ATOM     29  C   UNL     1      -1.739  12.435  22.236  0.00  0.00    +0.000 A 
ATOM     30  C   UNL     1      -2.310  12.190  23.490  0.00  0.00    +0.000 A 
ATOM     31  C   UNL     1      -3.674  12.327  23.610  0.00  0.00    +0.000 A 
ATOM     32  C   UNL     1      -4.457  12.713  22.547  0.00  0.00    +0.000 A 
ATOM     33  C   UNL     1      -3.920  12.975  21.302  0.00  0.00    +0.000 A 
ATOM     34  O   UNL     1      -5.775  12.789  22.876  0.00  0.00    +0.000 OA
ATOM     35  C   UNL     1      -5.739  12.321  24.240  0.00  0.00    +0.000 C 
ATOM     36  O   UNL     1      -4.401  12.107  24.737  0.00  0.00    +0.000 OA
ENDBRANCH  27  28
ENDBRANCH  25  27
ENDBRANCH  22  24
ENDBRANCH  21  22
ENDBRANCH   1  21
TORSDOF 6
ENDMDL
MODEL 6
REMARK VINA RESULT:      -9.3      1.449      1.841
REMARK  Name = 
REMARK  6 active torsions:
REMARK  status: ('A' for Active; 'I' for Inactive)
REMARK    1  A    between atoms: C_2  and  C_3
REMARK    2  A    between atoms: C_3  and  C_4
REMARK    3  A    between atoms: C_4  and  C_5
REMARK    4  A    between atoms: C_10  and  C_11
REMARK    5  A    between atoms: N_24  and  C_25
REMARK    6  A    between atoms: C_25  and  C_26
REMARK                            x       y       z     vdW  Elec       q    Type
REMARK                         _______ _______ _______ _____ _____    ______ ____
ROOT
ATOM      1  C   UNL     1       1.914   8.567  18.548  0.00  0.00    +0.000 C 
ATOM      2  O   UNL     1       2.166   8.722  17.356  0.00  0.00    +0.000 OA
ATOM      3  N   UNL     1       2.338   7.538  19.356  0.00  0.00    +0.000 N 
ATOM      4  C   UNL     1       3.124   6.540  18.853  0.00  0.00    +0.000 A 
ATOM      5  N   UNL     1       3.818   6.530  17.746  0.00  0.00    +0.000 NA
ATOM      6  C   UNL     1       4.452   5.310  17.603  0.00  0.00    +0.000 A 
ATOM      7  C   UNL     1       4.165   4.392  18.595  0.00  0.00    +0.000 A 
ATOM      8  S   UNL     1       3.183   5.126  19.802  0.00  0.00    +0.000 S 
ATOM      9  H   UNL     1       1.902   7.372  20.253  0.00  0.00    +0.000 HD
ENDROOT
BRANCH   6  10
ATOM     10  C   UNL     1       5.323   5.126  16.474  0.00  0.00    +0.000 A 
ATOM     11  C   UNL     1       4.946   4.404  15.398  0.00  0.00    +0.000 A 
ATOM     12  C   UNL     1       5.799   4.274  14.229  0.00  0.00    +0.000 A 
ATOM     13  C   UNL     1       5.453   3.496  13.122  0.00  0.00    +0.000 A 
ATOM     14  C   UNL     1       6.303   3.439  12.010  0.00  0.00    +0.000 A 
ATOM     15  C   UNL     1       7.496   4.167  11.995  0.00  0.00    +0.000 A 
ATOM     16  C   UNL     1       7.847   4.941  13.097  0.00  0.00    +0.000 A 
ATOM     17  C   UNL     1       7.000   4.973  14.199  0.00  0.00    +0.000 A 
ATOM     18  O   UNL     1       7.409   5.738  15.300  0.00  0.00    +0.000 OA
ATOM     19  C   UNL     1       6.657   5.802  16.466  0.00  0.00    +0.000 A 
ATOM     20  O   UNL     1       7.096   6.417  17.435  0.00  0.00    +0.000 OA
ENDBRANCH   6  10
BRANCH   1  21
ATOM     21  C   UNL     1       0.996   9.545  19.248  0.00  0.00    +0.000 C 
BRANCH  21  22
ATOM     22  C   UNL     1       0.650  10.681  18.292  0.00  0.00    +0.000 C 
BRANCH  22  24
ATOM     23  O   UNL     1      -0.342  12.874  18.460  0.00  0.00    +0.000 OA
ATOM     24  C   UNL     1       0.186  11.924  19.037  0.00  0.00    +0.000 C 
ATOM     25  N   UNL     1       0.369  11.852  20.395  0.00  0.00    +0.000 N 
ATOM     26  H   UNL     1       0.924  11.102  20.777  0.00  0.00    +0.000 HD
BRANCH  25  27
ATOM     27  C   UNL     1       0.029  12.948  21.286  0.00  0.00    +0.000 C 
BRANCH  27  28
ATOM     28  C   UNL     1      -1.382  12.843  21.814  0.00  0.00    +0.000 A 
ATOM     29  C   UNL     1      -1.631  12.206  23.053  0.00  0.00    +0.000 A 
ATOM     30  C   UNL     1      -2.931  12.071  23.550  0.00  0.00    +0.000 A 
ATOM     31  C   UNL     1      -3.964  12.563  22.785  0.00  0.00    +0.000 A 
ATOM     32  C   UNL     1      -3.736  13.189  21.582  0.00  0.00    +0.000 A 
ATOM     33  C   UNL     1      -2.463  13.350  21.073  0.00  0.00    +0.000 A 
ATOM     34  O   UNL     1      -4.888  13.601  20.987  0.00  0.00    +0.000 OA
ATOM     35  C   UNL     1      -5.868  13.083  21.911  0.00  0.00    +0.000 C 
ATOM     36  O   UNL     1      -5.286  12.498  23.095  0.00  0.00    +0.000 OA
ENDBRANCH  27  28
ENDBRANCH  25  27
ENDBRANCH  22  24
ENDBRANCH  21  22
ENDBRANCH   1  21
TORSDOF 6
ENDMDL
MODEL 7
REMARK VINA RESULT:      -9.3      0.855      1.346
REMARK  Name = 
REMARK  6 active torsions:
REMARK  status: ('A' for Active; 'I' for Inactive)
REMARK    1  A    between atoms: C_2  and  C_3
REMARK    2  A    between atoms: C_3  and  C_4
REMARK    3  A    between atoms: C_4  and  C_5
REMARK    4  A    between atoms: C_10  and  C_11
REMARK    5  A    between atoms: N_24  and  C_25
REMARK    6  A    between atoms: C_25  and  C_26
REMARK                            x       y       z     vdW  Elec       q    Type
REMARK                         _______ _______ _______ _____ _____    ______ ____
ROOT
ATOM      1  C   UNL     1       2.072   7.067  19.947  0.00  0.00    +0.000 C 
ATOM      2  O   UNL     1       2.276   7.566  18.843  0.00  0.00    +0.000 OA
ATOM      3  N   UNL     1       2.551   5.865  20.413  0.00  0.00    +0.000 N 
ATOM      4  C   UNL     1       3.344   5.082  19.623  0.00  0.00    +0.000 A 
ATOM      5  N   UNL     1       3.998   5.414  18.541  0.00  0.00    +0.000 NA
ATOM      6  C   UNL     1       4.657   4.309  18.036  0.00  0.00    +0.000 A 
ATOM      7  C   UNL     1       4.430   3.135  18.730  0.00  0.00    +0.000 A 
ATOM      8  S   UNL     1       3.474   3.457  20.123  0.00  0.00    +0.000 S 
ATOM      9  H   UNL     1       2.152   5.434  21.235  0.00  0.00    +0.000 HD
ENDROOT
BRANCH   6  10
ATOM     10  C   UNL     1       5.492   4.487  16.879  0.00  0.00    +0.000 A 
ATOM     11  C   UNL     1       5.180   3.933  15.689  0.00  0.00    +0.000 A 
ATOM     12  C   UNL     1       5.986   4.168  14.503  0.00  0.00    +0.000 A 
ATOM     13  C   UNL     1       5.713   3.570  13.270  0.00  0.00    +0.000 A 
ATOM     14  C   UNL     1       6.507   3.864  12.155  0.00  0.00    +0.000 A 
ATOM     15  C   UNL     1       7.571   4.765  12.263  0.00  0.00    +0.000 A 
ATOM     16  C   UNL     1       7.850   5.360  13.490  0.00  0.00    +0.000 A 
ATOM     17  C   UNL     1       7.061   5.044  14.590  0.00  0.00    +0.000 A 
ATOM     18  O   UNL     1       7.399   5.640  15.813  0.00  0.00    +0.000 OA
ATOM     19  C   UNL     1       6.702   5.359  16.982  0.00  0.00    +0.000 A 
ATOM     20  O   UNL     1       7.087   5.841  18.045  0.00  0.00    +0.000 OA
ENDBRANCH   6  10
BRANCH   1  21
ATOM     21  C   UNL     1       1.154   7.770  20.923  0.00  0.00    +0.000 C 
BRANCH  21  22
ATOM     22  C   UNL     1       1.629   9.206  21.114  0.00  0.00    +0.000 C 
BRANCH  22  24
ATOM     23  O   UNL     1      -0.234   9.888  19.741  0.00  0.00    +0.000 OA
ATOM     24  C   UNL     1       0.635  10.210  20.550  0.00  0.00    +0.000 C 
ATOM     25  N   UNL     1       0.776  11.473  21.067  0.00  0.00    +0.000 N 
ATOM     26  H   UNL     1       1.589  11.689  21.623  0.00  0.00    +0.000 HD
BRANCH  25  27
ATOM     27  C   UNL     1      -0.048  12.588  20.634  0.00  0.00    +0.000 C 
BRANCH  27  28
ATOM     28  C   UNL     1      -1.403  12.594  21.300  0.00  0.00    +0.000 A 
ATOM     29  C   UNL     1      -1.521  12.270  22.673  0.00  0.00    +0.000 A 
ATOM     30  C   UNL     1      -2.768  12.240  23.307  0.00  0.00    +0.000 A 
ATOM     31  C   UNL     1      -3.879  12.522  22.546  0.00  0.00    +0.000 A 
ATOM     32  C   UNL     1      -3.779  12.844  21.213  0.00  0.00    +0.000 A 
ATOM     33  C   UNL     1      -2.562  12.896  20.564  0.00  0.00    +0.000 A 
ATOM     34  O   UNL     1      -4.992  13.087  20.647  0.00  0.00    +0.000 OA
ATOM     35  C   UNL     1      -5.869  12.793  21.754  0.00  0.00    +0.000 C 
ATOM     36  O   UNL     1      -5.167  12.516  22.983  0.00  0.00    +0.000 OA
ENDBRANCH  27  28
ENDBRANCH  25  27
ENDBRANCH  22  24
ENDBRANCH  21  22
ENDBRANCH   1  21
TORSDOF 6
ENDMDL
MODEL 8
REMARK VINA RESULT:      -9.3      2.427      2.813
REMARK  Name = 
REMARK  6 active torsions:
REMARK  status: ('A' for Active; 'I' for Inactive)
REMARK    1  A    between atoms: C_2  and  C_3
REMARK    2  A    between atoms: C_3  and  C_4
REMARK    3  A    between atoms: C_4  and  C_5
REMARK    4  A    between atoms: C_10  and  C_11
REMARK    5  A    between atoms: N_24  and  C_25
REMARK    6  A    between atoms: C_25  and  C_26
REMARK                            x       y       z     vdW  Elec       q    Type
REMARK                         _______ _______ _______ _____ _____    ______ ____
ROOT
ATOM      1  C   UNL     1       1.896   8.993  18.506  0.00  0.00    +0.000 C 
ATOM      2  O   UNL     1       2.234   9.160  17.337  0.00  0.00    +0.000 OA
ATOM      3  N   UNL     1       2.177   7.908  19.302  0.00  0.00    +0.000 N 
ATOM      4  C   UNL     1       2.902   6.859  18.813  0.00  0.00    +0.000 A 
ATOM      5  N   UNL     1       3.661   6.819  17.750  0.00  0.00    +0.000 NA
ATOM      6  C   UNL     1       4.194   5.552  17.604  0.00  0.00    +0.000 A 
ATOM      7  C   UNL     1       3.766   4.634  18.545  0.00  0.00    +0.000 A 
ATOM      8  S   UNL     1       2.778   5.418  19.715  0.00  0.00    +0.000 S 
ATOM      9  H   UNL     1       1.672   7.756  20.165  0.00  0.00    +0.000 HD
ENDROOT
BRANCH   6  10
ATOM     10  C   UNL     1       5.115   5.323  16.524  0.00  0.00    +0.000 A 
ATOM     11  C   UNL     1       4.773   4.588  15.444  0.00  0.00    +0.000 A 
ATOM     12  C   UNL     1       5.679   4.414  14.322  0.00  0.00    +0.000 A 
ATOM     13  C   UNL     1       5.368   3.621  13.214  0.00  0.00    +0.000 A 
ATOM     14  C   UNL     1       6.271   3.521  12.147  0.00  0.00    +0.000 A 
ATOM     15  C   UNL     1       7.481   4.219  12.177  0.00  0.00    +0.000 A 
ATOM     16  C   UNL     1       7.797   5.007  13.280  0.00  0.00    +0.000 A 
ATOM     17  C   UNL     1       6.897   5.083  14.338  0.00  0.00    +0.000 A 
ATOM     18  O   UNL     1       7.270   5.860  15.443  0.00  0.00    +0.000 OA
ATOM     19  C   UNL     1       6.464   5.967  16.569  0.00  0.00    +0.000 A 
ATOM     20  O   UNL     1       6.870   6.591  17.546  0.00  0.00    +0.000 OA
ENDBRANCH   6  10
BRANCH   1  21
ATOM     21  C   UNL     1       1.024  10.029  19.182  0.00  0.00    +0.000 C 
BRANCH  21  22
ATOM     22  C   UNL     1      -0.440   9.636  19.020  0.00  0.00    +0.000 C 
BRANCH  22  24
ATOM     23  O   UNL     1      -0.902  11.976  18.659  0.00  0.00    +0.000 OA
ATOM     24  C   UNL     1      -1.295  10.813  18.576  0.00  0.00    +0.000 C 
ATOM     25  N   UNL     1      -2.503  10.445  18.039  0.00  0.00    +0.000 N 
ATOM     26  H   UNL     1      -2.807   9.487  18.125  0.00  0.00    +0.000 HD
BRANCH  25  27
ATOM     27  C   UNL     1      -3.484  11.416  17.589  0.00  0.00    +0.000 C 
BRANCH  27  28
ATOM     28  C   UNL     1      -4.675  11.501  18.514  0.00  0.00    +0.000 A 
ATOM     29  C   UNL     1      -5.884  10.846  18.177  0.00  0.00    +0.000 A 
ATOM     30  C   UNL     1      -7.010  10.933  19.003  0.00  0.00    +0.000 A 
ATOM     31  C   UNL     1      -6.909  11.690  20.147  0.00  0.00    +0.000 A 
ATOM     32  C   UNL     1      -5.739  12.327  20.490  0.00  0.00    +0.000 A 
ATOM     33  C   UNL     1      -4.607  12.248  19.703  0.00  0.00    +0.000 A 
ATOM     34  O   UNL     1      -5.849  13.020  21.655  0.00  0.00    +0.000 OA
ATOM     35  C   UNL     1      -7.246  12.818  21.957  0.00  0.00    +0.000 C 
ATOM     36  O   UNL     1      -7.902  11.908  21.050  0.00  0.00    +0.000 OA
ENDBRANCH  27  28
ENDBRANCH  25  27
ENDBRANCH  22  24
ENDBRANCH  21  22
ENDBRANCH   1  21
TORSDOF 6
ENDMDL
MODEL 9
REMARK VINA RESULT:      -9.2      1.251      1.458
REMARK  Name = 
REMARK  6 active torsions:
REMARK  status: ('A' for Active; 'I' for Inactive)
REMARK    1  A    between atoms: C_2  and  C_3
REMARK    2  A    between atoms: C_3  and  C_4
REMARK    3  A    between atoms: C_4  and  C_5
REMARK    4  A    between atoms: C_10  and  C_11
REMARK    5  A    between atoms: N_24  and  C_25
REMARK    6  A    between atoms: C_25  and  C_26
REMARK                            x       y       z     vdW  Elec       q    Type
REMARK                         _______ _______ _______ _____ _____    ______ ____
ROOT
ATOM      1  C   UNL     1       2.174   7.331  20.011  0.00  0.00    +0.000 C 
ATOM      2  O   UNL     1       2.403   7.817  18.907  0.00  0.00    +0.000 OA
ATOM      3  N   UNL     1       2.579   6.100  20.474  0.00  0.00    +0.000 N 
ATOM      4  C   UNL     1       3.316   5.270  19.679  0.00  0.00    +0.000 A 
ATOM      5  N   UNL     1       3.984   5.561  18.593  0.00  0.00    +0.000 NA
ATOM      6  C   UNL     1       4.570   4.417  18.084  0.00  0.00    +0.000 A 
ATOM      7  C   UNL     1       4.273   3.260  18.778  0.00  0.00    +0.000 A 
ATOM      8  S   UNL     1       3.347   3.640  20.177  0.00  0.00    +0.000 S 
ATOM      9  H   UNL     1       2.159   5.694  21.298  0.00  0.00    +0.000 HD
ENDROOT
BRANCH   6  10
ATOM     10  C   UNL     1       5.408   4.544  16.922  0.00  0.00    +0.000 A 
ATOM     11  C   UNL     1       5.067   3.991  15.739  0.00  0.00    +0.000 A 
ATOM     12  C   UNL     1       5.878   4.175  14.548  0.00  0.00    +0.000 A 
ATOM     13  C   UNL     1       5.573   3.576  13.324  0.00  0.00    +0.000 A 
ATOM     14  C   UNL     1       6.376   3.821  12.203  0.00  0.00    +0.000 A 
ATOM     15  C   UNL     1       7.480   4.673  12.297  0.00  0.00    +0.000 A 
ATOM     16  C   UNL     1       7.790   5.270  13.516  0.00  0.00    +0.000 A 
ATOM     17  C   UNL     1       6.992   5.003  14.622  0.00  0.00    +0.000 A 
ATOM     18  O   UNL     1       7.361   5.597  15.837  0.00  0.00    +0.000 OA
ATOM     19  C   UNL     1       6.657   5.361  17.011  0.00  0.00    +0.000 A 
ATOM     20  O   UNL     1       7.066   5.837  18.067  0.00  0.00    +0.000 OA
ENDBRANCH   6  10
BRANCH   1  21
ATOM     21  C   UNL     1       1.308   8.089  20.993  0.00  0.00    +0.000 C 
BRANCH  21  22
ATOM     22  C   UNL     1       0.440   9.086  20.232  0.00  0.00    +0.000 C 
BRANCH  22  24
ATOM     23  O   UNL     1       1.291  10.753  21.754  0.00  0.00    +0.000 OA
ATOM     24  C   UNL     1       0.611  10.502  20.760  0.00  0.00    +0.000 C 
ATOM     25  N   UNL     1      -0.018  11.453  19.997  0.00  0.00    +0.000 N 
ATOM     26  H   UNL     1      -0.659  11.160  19.277  0.00  0.00    +0.000 HD
BRANCH  25  27
ATOM     27  C   UNL     1      -0.011  12.863  20.347  0.00  0.00    +0.000 C 
BRANCH  27  28
ATOM     28  C   UNL     1      -0.898  13.165  21.531  0.00  0.00    +0.000 A 
ATOM     29  C   UNL     1      -2.237  12.707  21.551  0.00  0.00    +0.000 A 
ATOM     30  C   UNL     1      -3.087  12.998  22.623  0.00  0.00    +0.000 A 
ATOM     31  C   UNL     1      -2.583  13.760  23.652  0.00  0.00    +0.000 A 
ATOM     32  C   UNL     1      -1.283  14.206  23.649  0.00  0.00    +0.000 A 
ATOM     33  C   UNL     1      -0.415  13.923  22.613  0.00  0.00    +0.000 A 
ATOM     34  O   UNL     1      -0.984  14.939  24.756  0.00  0.00    +0.000 OA
ATOM     35  C   UNL     1      -2.271  14.976  25.409  0.00  0.00    +0.000 C 
ATOM     36  O   UNL     1      -3.267  14.160  24.757  0.00  0.00    +0.000 OA
ENDBRANCH  27  28
ENDBRANCH  25  27
ENDBRANCH  22  24
ENDBRANCH  21  22
ENDBRANCH   1  21
TORSDOF 6
ENDMDL
