MODEL 1
REMARK VINA RESULT:      -7.7      0.000      0.000
REMARK  Name = 
REMARK  9 active torsions:
REMARK  status: ('A' for Active; 'I' for Inactive)
REMARK    1  A    between atoms: C_1  and  N_2
REMARK    2  A    between atoms: C_8  and  O_9
REMARK    3  A    between atoms: O_9  and  C_10
REMARK    4  A    between atoms: C_10  and  C_11
REMARK    5  A    between atoms: C_14  and  C_15
REMARK    6  A    between atoms: C_14  and  C_16
REMARK    7  A    between atoms: N_18  and  C_19
REMARK    8  A    between atoms: C_19  and  C_20
REMARK    9  A    between atoms: N_27  and  C_28
REMARK                            x       y       z     vdW  Elec       q    Type
REMARK                         _______ _______ _______ _____ _____    ______ ____
ROOT
ATOM      1  C   UNL     1       3.763   1.155  18.347  0.00  0.00    +0.000 C 
ATOM      2  N   UNL     1       3.381   2.542  18.530  0.00  0.00    +0.000 N 
ATOM      3  C   UNL     1       4.086   3.525  17.829  0.00  0.00    +0.000 A 
ATOM      4  O   UNL     1       4.987   3.279  17.033  0.00  0.00    +0.000 OA
ATOM      5  C   UNL     1       3.634   4.848  18.111  0.00  0.00    +0.000 A 
ATOM      6  C   UNL     1       2.575   5.095  18.933  0.00  0.00    +0.000 A 
ATOM      7  N   UNL     1       2.273   6.413  18.995  0.00  0.00    +0.000 NA
ATOM      8  C   UNL     1       3.140   6.994  18.193  0.00  0.00    +0.000 A 
ATOM      9  N   UNL     1       4.049   6.091  17.680  0.00  0.00    +0.000 N 
ATOM     10  N   UNL     1       1.890   4.092  19.570  0.00  0.00    +0.000 N 
ATOM     11  C   UNL     1       0.756   4.370  20.427  0.00  0.00    +0.000 C 
ATOM     12  C   UNL     1       2.286   2.771  19.384  0.00  0.00    +0.000 A 
ATOM     13  O   UNL     1       1.696   1.837  19.939  0.00  0.00    +0.000 OA
ENDROOT
BRANCH   8  14
ATOM     14  O   UNL     1       3.113   8.294  17.896  0.00  0.00    +0.000 OA
BRANCH  14  15
ATOM     15  C   UNL     1       1.791   8.854  17.815  0.00  0.00    +0.000 C 
BRANCH  15  16
ATOM     16  C   UNL     1       1.483   9.901  18.896  0.00  0.00    +0.000 C 
ATOM     17  C   UNL     1       0.610   9.431  20.046  0.00  0.00    +0.000 C 
ATOM     18  O   UNL     1      -0.555  10.265  20.056  0.00  0.00    +0.000 OA
ATOM     19  C   UNL     1      -0.564  10.941  18.802  0.00  0.00    +0.000 C 
ATOM     20  C   UNL     1      -1.440  10.167  17.815  0.00  0.00    +0.000 C 
ATOM     21  C   UNL     1      -1.108  12.352  18.993  0.00  0.00    +0.000 C 
ATOM     22  O   UNL     1       0.776  11.007  18.308  0.00  0.00    +0.000 OA
ENDBRANCH  15  16
ENDBRANCH  14  15
ENDBRANCH   8  14
BRANCH   9  23
ATOM     23  C   UNL     1       5.097   6.371  16.710  0.00  0.00    +0.000 C 
BRANCH  23  24
ATOM     24  C   UNL     1       6.329   6.992  17.316  0.00  0.00    +0.000 A 
ATOM     25  C   UNL     1       6.646   8.348  17.134  0.00  0.00    +0.000 A 
ATOM     26  C   UNL     1       7.760   8.915  17.764  0.00  0.00    +0.000 A 
ATOM     27  C   UNL     1       8.574   8.137  18.585  0.00  0.00    +0.000 A 
ATOM     28  C   UNL     1       8.276   6.789  18.768  0.00  0.00    +0.000 A 
ATOM     29  C   UNL     1       7.169   6.230  18.134  0.00  0.00    +0.000 A 
ATOM     30  F   UNL     1       6.891   4.937  18.350  0.00  0.00    +0.000 F 
ENDBRANCH  23  24
ENDBRANCH   9  23
TORSDOF 5
ENDMDL
MODEL 2
REMARK VINA RESULT:      -7.5      2.144      4.718
REMARK  Name = 
REMARK  9 active torsions:
REMARK  status: ('A' for Active; 'I' for Inactive)
REMARK    1  A    between atoms: C_1  and  N_2
REMARK    2  A    between atoms: C_8  and  O_9
REMARK    3  A    between atoms: O_9  and  C_10
REMARK    4  A    between atoms: C_10  and  C_11
REMARK    5  A    between atoms: C_14  and  C_15
REMARK    6  A    between atoms: C_14  and  C_16
REMARK    7  A    between atoms: N_18  and  C_19
REMARK    8  A    between atoms: C_19  and  C_20
REMARK    9  A    between atoms: N_27  and  C_28
REMARK                            x       y       z     vdW  Elec       q    Type
REMARK                         _______ _______ _______ _____ _____    ______ ____
ROOT
ATOM      1  C   UNL     1       6.291   3.414  15.726  0.00  0.00    +0.000 C 
ATOM      2  N   UNL     1       5.681   4.601  16.291  0.00  0.00    +0.000 N 
ATOM      3  C   UNL     1       4.373   4.511  16.779  0.00  0.00    +0.000 A 
ATOM      4  O   UNL     1       3.723   3.471  16.793  0.00  0.00    +0.000 OA
ATOM      5  C   UNL     1       3.876   5.748  17.286  0.00  0.00    +0.000 A 
ATOM      6  C   UNL     1       4.645   6.873  17.340  0.00  0.00    +0.000 A 
ATOM      7  N   UNL     1       3.997   7.906  17.927  0.00  0.00    +0.000 NA
ATOM      8  C   UNL     1       2.820   7.420  18.258  0.00  0.00    +0.000 A 
ATOM      9  N   UNL     1       2.661   6.120  17.823  0.00  0.00    +0.000 N 
ATOM     10  N   UNL     1       5.937   6.903  16.882  0.00  0.00    +0.000 N 
ATOM     11  C   UNL     1       6.747   8.101  16.963  0.00  0.00    +0.000 C 
ATOM     12  C   UNL     1       6.493   5.750  16.335  0.00  0.00    +0.000 A 
ATOM     13  O   UNL     1       7.654   5.733  15.912  0.00  0.00    +0.000 OA
ENDROOT
BRANCH   8  14
ATOM     14  O   UNL     1       1.911   8.101  18.959  0.00  0.00    +0.000 OA
BRANCH  14  15
ATOM     15  C   UNL     1       1.587   9.390  18.410  0.00  0.00    +0.000 C 
BRANCH  15  16
ATOM     16  C   UNL     1       1.087  10.407  19.447  0.00  0.00    +0.000 C 
ATOM     17  C   UNL     1       0.270   9.840  20.593  0.00  0.00    +0.000 C 
ATOM     18  O   UNL     1      -1.013  10.476  20.548  0.00  0.00    +0.000 OA
ATOM     19  C   UNL     1      -1.096  11.103  19.272  0.00  0.00    +0.000 C 
ATOM     20  C   UNL     1      -1.810  10.167  18.293  0.00  0.00    +0.000 C 
ATOM     21  C   UNL     1      -1.864  12.413  19.400  0.00  0.00    +0.000 C 
ATOM     22  O   UNL     1       0.229  11.368  18.805  0.00  0.00    +0.000 OA
ENDBRANCH  15  16
ENDBRANCH  14  15
ENDBRANCH   8  14
BRANCH   9  23
ATOM     23  C   UNL     1       1.519   5.254  18.072  0.00  0.00    +0.000 C 
BRANCH  23  24
ATOM     24  C   UNL     1       1.666   4.404  19.307  0.00  0.00    +0.000 A 
ATOM     25  C   UNL     1       2.234   4.901  20.491  0.00  0.00    +0.000 A 
ATOM     26  C   UNL     1       2.297   4.110  21.645  0.00  0.00    +0.000 A 
ATOM     27  C   UNL     1       1.792   2.812  21.634  0.00  0.00    +0.000 A 
ATOM     28  C   UNL     1       1.233   2.302  20.464  0.00  0.00    +0.000 A 
ATOM     29  C   UNL     1       1.179   3.093  19.318  0.00  0.00    +0.000 A 
ATOM     30  F   UNL     1       0.611   2.586  18.216  0.00  0.00    +0.000 F 
ENDBRANCH  23  24
ENDBRANCH   9  23
TORSDOF 5
ENDMDL
MODEL 3
REMARK VINA RESULT:      -7.5      2.195      4.880
REMARK  Name = 
REMARK  9 active torsions:
REMARK  status: ('A' for Active; 'I' for Inactive)
REMARK    1  A    between atoms: C_1  and  N_2
REMARK    2  A    between atoms: C_8  and  O_9
REMARK    3  A    between atoms: O_9  and  C_10
REMARK    4  A    between atoms: C_10  and  C_11
REMARK    5  A    between atoms: C_14  and  C_15
REMARK    6  A    between atoms: C_14  and  C_16
REMARK    7  A    between atoms: N_18  and  C_19
REMARK    8  A    between atoms: C_19  and  C_20
REMARK    9  A    between atoms: N_27  and  C_28
REMARK                            x       y       z     vdW  Elec       q    Type
REMARK                         _______ _______ _______ _____ _____    ______ ____
ROOT
ATOM      1  C   UNL     1       6.220   3.400  15.557  0.00  0.00    +0.000 C 
ATOM      2  N   UNL     1       5.657   4.565  16.212  0.00  0.00    +0.000 N 
ATOM      3  C   UNL     1       4.358   4.479  16.723  0.00  0.00    +0.000 A 
ATOM      4  O   UNL     1       3.678   3.458  16.684  0.00  0.00    +0.000 OA
ATOM      5  C   UNL     1       3.908   5.693  17.321  0.00  0.00    +0.000 A 
ATOM      6  C   UNL     1       4.710   6.790  17.431  0.00  0.00    +0.000 A 
ATOM      7  N   UNL     1       4.105   7.800  18.099  0.00  0.00    +0.000 NA
ATOM      8  C   UNL     1       2.921   7.326  18.424  0.00  0.00    +0.000 A 
ATOM      9  N   UNL     1       2.715   6.062  17.908  0.00  0.00    +0.000 N 
ATOM     10  N   UNL     1       5.993   6.814  16.946  0.00  0.00    +0.000 N 
ATOM     11  C   UNL     1       6.838   7.981  17.086  0.00  0.00    +0.000 C 
ATOM     12  C   UNL     1       6.503   5.685  16.312  0.00  0.00    +0.000 A 
ATOM     13  O   UNL     1       7.654   5.663  15.862  0.00  0.00    +0.000 OA
ENDROOT
BRANCH   8  14
ATOM     14  O   UNL     1       2.048   7.984  19.188  0.00  0.00    +0.000 OA
BRANCH  14  15
ATOM     15  C   UNL     1       1.496   9.162  18.574  0.00  0.00    +0.000 C 
BRANCH  15  16
ATOM     16  C   UNL     1       0.445   9.884  19.430  0.00  0.00    +0.000 C 
ATOM     17  C   UNL     1      -0.591  10.691  18.669  0.00  0.00    +0.000 C 
ATOM     18  O   UNL     1      -0.477  12.047  19.115  0.00  0.00    +0.000 OA
ATOM     19  C   UNL     1       0.761  12.127  19.815  0.00  0.00    +0.000 C 
ATOM     20  C   UNL     1       1.852  12.619  18.861  0.00  0.00    +0.000 C 
ATOM     21  C   UNL     1       0.618  13.090  20.989  0.00  0.00    +0.000 C 
ATOM     22  O   UNL     1       1.098  10.825  20.302  0.00  0.00    +0.000 OA
ENDBRANCH  15  16
ENDBRANCH  14  15
ENDBRANCH   8  14
BRANCH   9  23
ATOM     23  C   UNL     1       1.554   5.214  18.127  0.00  0.00    +0.000 C 
BRANCH  23  24
ATOM     24  C   UNL     1       1.674   4.329  19.340  0.00  0.00    +0.000 A 
ATOM     25  C   UNL     1       2.239   4.784  20.542  0.00  0.00    +0.000 A 
ATOM     26  C   UNL     1       2.277   3.962  21.675  0.00  0.00    +0.000 A 
ATOM     27  C   UNL     1       1.749   2.674  21.625  0.00  0.00    +0.000 A 
ATOM     28  C   UNL     1       1.192   2.205  20.437  0.00  0.00    +0.000 A 
ATOM     29  C   UNL     1       1.164   3.027  19.311  0.00  0.00    +0.000 A 
ATOM     30  F   UNL     1       0.597   2.560  18.191  0.00  0.00    +0.000 F 
ENDBRANCH  23  24
ENDBRANCH   9  23
TORSDOF 5
ENDMDL
MODEL 4
REMARK VINA RESULT:      -7.4      1.450      2.064
REMARK  Name = 
REMARK  9 active torsions:
REMARK  status: ('A' for Active; 'I' for Inactive)
REMARK    1  A    between atoms: C_1  and  N_2
REMARK    2  A    between atoms: C_8  and  O_9
REMARK    3  A    between atoms: O_9  and  C_10
REMARK    4  A    between atoms: C_10  and  C_11
REMARK    5  A    between atoms: C_14  and  C_15
REMARK    6  A    between atoms: C_14  and  C_16
REMARK    7  A    between atoms: N_18  and  C_19
REMARK    8  A    between atoms: C_19  and  C_20
REMARK    9  A    between atoms: N_27  and  C_28
REMARK                            x       y       z     vdW  Elec       q    Type
REMARK                         _______ _______ _______ _____ _____    ______ ____
ROOT
ATOM      1  C   UNL     1       4.769   1.771  20.423  0.00  0.00    +0.000 C 
ATOM      2  N   UNL     1       4.081   2.994  20.060  0.00  0.00    +0.000 N 
ATOM      3  C   UNL     1       4.792   3.979  19.367  0.00  0.00    +0.000 A 
ATOM      4  O   UNL     1       5.959   3.851  19.011  0.00  0.00    +0.000 OA
ATOM      5  C   UNL     1       4.015   5.142  19.089  0.00  0.00    +0.000 A 
ATOM      6  C   UNL     1       2.694   5.230  19.418  0.00  0.00    +0.000 A 
ATOM      7  N   UNL     1       2.138   6.388  18.992  0.00  0.00    +0.000 NA
ATOM      8  C   UNL     1       3.114   7.023  18.378  0.00  0.00    +0.000 A 
ATOM      9  N   UNL     1       4.309   6.340  18.470  0.00  0.00    +0.000 N 
ATOM     10  N   UNL     1       2.030   4.220  20.066  0.00  0.00    +0.000 N 
ATOM     11  C   UNL     1       0.623   4.322  20.393  0.00  0.00    +0.000 C 
ATOM     12  C   UNL     1       2.719   3.062  20.412  0.00  0.00    +0.000 A 
ATOM     13  O   UNL     1       2.159   2.128  20.995  0.00  0.00    +0.000 OA
ENDROOT
BRANCH   8  14
ATOM     14  O   UNL     1       2.947   8.172  17.721  0.00  0.00    +0.000 OA
BRANCH  14  15
ATOM     15  C   UNL     1       1.612   8.704  17.791  0.00  0.00    +0.000 C 
BRANCH  15  16
ATOM     16  C   UNL     1       1.441   9.843  18.807  0.00  0.00    +0.000 C 
ATOM     17  C   UNL     1       0.627   9.513  20.045  0.00  0.00    +0.000 C 
ATOM     18  O   UNL     1      -0.486  10.415  20.068  0.00  0.00    +0.000 OA
ATOM     19  C   UNL     1      -0.545  10.998  18.769  0.00  0.00    +0.000 C 
ATOM     20  C   UNL     1      -1.531  10.210  17.904  0.00  0.00    +0.000 C 
ATOM     21  C   UNL     1      -0.994  12.450  18.887  0.00  0.00    +0.000 C 
ATOM     22  O   UNL     1       0.759  10.946  18.183  0.00  0.00    +0.000 OA
ENDBRANCH  15  16
ENDBRANCH  14  15
ENDBRANCH   8  14
BRANCH   9  23
ATOM     23  C   UNL     1       5.572   6.711  17.851  0.00  0.00    +0.000 C 
BRANCH  23  24
ATOM     24  C   UNL     1       5.888   5.924  16.606  0.00  0.00    +0.000 A 
ATOM     25  C   UNL     1       5.000   5.860  15.520  0.00  0.00    +0.000 A 
ATOM     26  C   UNL     1       5.349   5.177  14.348  0.00  0.00    +0.000 A 
ATOM     27  C   UNL     1       6.588   4.549  14.243  0.00  0.00    +0.000 A 
ATOM     28  C   UNL     1       7.475   4.598  15.316  0.00  0.00    +0.000 A 
ATOM     29  C   UNL     1       7.120   5.274  16.482  0.00  0.00    +0.000 A 
ATOM     30  F   UNL     1       8.004   5.328  17.486  0.00  0.00    +0.000 F 
ENDBRANCH  23  24
ENDBRANCH   9  23
TORSDOF 5
ENDMDL
MODEL 5
REMARK VINA RESULT:      -7.2      2.103      6.456
REMARK  Name = 
REMARK  9 active torsions:
REMARK  status: ('A' for Active; 'I' for Inactive)
REMARK    1  A    between atoms: C_1  and  N_2
REMARK    2  A    between atoms: C_8  and  O_9
REMARK    3  A    between atoms: O_9  and  C_10
REMARK    4  A    between atoms: C_10  and  C_11
REMARK    5  A    between atoms: C_14  and  C_15
REMARK    6  A    between atoms: C_14  and  C_16
REMARK    7  A    between atoms: N_18  and  C_19
REMARK    8  A    between atoms: C_19  and  C_20
REMARK    9  A    between atoms: N_27  and  C_28
REMARK                            x       y       z     vdW  Elec       q    Type
REMARK                         _______ _______ _______ _____ _____    ______ ____
ROOT
ATOM      1  C   UNL     1       1.486  11.822  18.098  0.00  0.00    +0.000 C 
ATOM      2  N   UNL     1       1.439  10.617  18.902  0.00  0.00    +0.000 N 
ATOM      3  C   UNL     1       1.946   9.432  18.359  0.00  0.00    +0.000 A 
ATOM      4  O   UNL     1       2.467   9.362  17.250  0.00  0.00    +0.000 OA
ATOM      5  C   UNL     1       1.821   8.314  19.235  0.00  0.00    +0.000 A 
ATOM      6  C   UNL     1       1.316   8.431  20.496  0.00  0.00    +0.000 A 
ATOM      7  N   UNL     1       1.362   7.261  21.175  0.00  0.00    +0.000 NA
ATOM      8  C   UNL     1       1.914   6.409  20.338  0.00  0.00    +0.000 A 
ATOM      9  N   UNL     1       2.150   6.980  19.104  0.00  0.00    +0.000 N 
ATOM     10  N   UNL     1       0.864   9.624  20.999  0.00  0.00    +0.000 N 
ATOM     11  C   UNL     1       0.347   9.736  22.347  0.00  0.00    +0.000 C 
ATOM     12  C   UNL     1       0.912  10.763  20.199  0.00  0.00    +0.000 A 
ATOM     13  O   UNL     1       0.517  11.858  20.613  0.00  0.00    +0.000 OA
ENDROOT
BRANCH   8  14
ATOM     14  O   UNL     1       2.234   5.156  20.666  0.00  0.00    +0.000 OA
BRANCH  14  15
ATOM     15  C   UNL     1       1.142   4.224  20.572  0.00  0.00    +0.000 C 
BRANCH  15  16
ATOM     16  C   UNL     1       1.144   3.380  19.288  0.00  0.00    +0.000 C 
ATOM     17  C   UNL     1       0.947   1.887  19.475  0.00  0.00    +0.000 C 
ATOM     18  O   UNL     1       2.105   1.240  18.933  0.00  0.00    +0.000 OA
ATOM     19  C   UNL     1       3.082   2.263  18.764  0.00  0.00    +0.000 C 
ATOM     20  C   UNL     1       3.994   2.301  19.994  0.00  0.00    +0.000 C 
ATOM     21  C   UNL     1       3.902   1.977  17.511  0.00  0.00    +0.000 C 
ATOM     22  O   UNL     1       2.412   3.518  18.622  0.00  0.00    +0.000 OA
ENDBRANCH  15  16
ENDBRANCH  14  15
ENDBRANCH   8  14
BRANCH   9  23
ATOM     23  C   UNL     1       2.810   6.354  17.969  0.00  0.00    +0.000 C 
BRANCH  23  24
ATOM     24  C   UNL     1       4.308   6.284  18.106  0.00  0.00    +0.000 A 
ATOM     25  C   UNL     1       4.928   5.623  19.179  0.00  0.00    +0.000 A 
ATOM     26  C   UNL     1       6.322   5.514  19.247  0.00  0.00    +0.000 A 
ATOM     27  C   UNL     1       7.118   6.063  18.243  0.00  0.00    +0.000 A 
ATOM     28  C   UNL     1       6.518   6.728  17.177  0.00  0.00    +0.000 A 
ATOM     29  C   UNL     1       5.130   6.838  17.120  0.00  0.00    +0.000 A 
ATOM     30  F   UNL     1       4.579   7.459  16.068  0.00  0.00    +0.000 F 
ENDBRANCH  23  24
ENDBRANCH   9  23
TORSDOF 5
ENDMDL
MODEL 6
REMARK VINA RESULT:      -7.2      0.893      1.175
REMARK  Name = 
REMARK  9 active torsions:
REMARK  status: ('A' for Active; 'I' for Inactive)
REMARK    1  A    between atoms: C_1  and  N_2
REMARK    2  A    between atoms: C_8  and  O_9
REMARK    3  A    between atoms: O_9  and  C_10
REMARK    4  A    between atoms: C_10  and  C_11
REMARK    5  A    between atoms: C_14  and  C_15
REMARK    6  A    between atoms: C_14  and  C_16
REMARK    7  A    between atoms: N_18  and  C_19
REMARK    8  A    between atoms: C_19  and  C_20
REMARK    9  A    between atoms: N_27  and  C_28
REMARK                            x       y       z     vdW  Elec       q    Type
REMARK                         _______ _______ _______ _____ _____    ______ ____
ROOT
ATOM      1  C   UNL     1       3.670   1.191  18.187  0.00  0.00    +0.000 C 
ATOM      2  N   UNL     1       3.312   2.573  18.440  0.00  0.00    +0.000 N 
ATOM      3  C   UNL     1       4.011   3.577  17.763  0.00  0.00    +0.000 A 
ATOM      4  O   UNL     1       4.887   3.355  16.933  0.00  0.00    +0.000 OA
ATOM      5  C   UNL     1       3.585   4.893  18.114  0.00  0.00    +0.000 A 
ATOM      6  C   UNL     1       2.552   5.117  18.974  0.00  0.00    +0.000 A 
ATOM      7  N   UNL     1       2.270   6.434  19.101  0.00  0.00    +0.000 NA
ATOM      8  C   UNL     1       3.124   7.039  18.302  0.00  0.00    +0.000 A 
ATOM      9  N   UNL     1       4.005   6.148  17.725  0.00  0.00    +0.000 N 
ATOM     10  N   UNL     1       1.871   4.096  19.587  0.00  0.00    +0.000 N 
ATOM     11  C   UNL     1       0.764   4.350  20.485  0.00  0.00    +0.000 C 
ATOM     12  C   UNL     1       2.244   2.779  19.333  0.00  0.00    +0.000 A 
ATOM     13  O   UNL     1       1.656   1.830  19.863  0.00  0.00    +0.000 OA
ENDROOT
BRANCH   8  14
ATOM     14  O   UNL     1       3.106   8.351  18.062  0.00  0.00    +0.000 OA
BRANCH  14  15
ATOM     15  C   UNL     1       1.841   8.849  17.594  0.00  0.00    +0.000 C 
BRANCH  15  16
ATOM     16  C   UNL     1       0.928   9.390  18.704  0.00  0.00    +0.000 C 
ATOM     17  C   UNL     1      -0.247  10.235  18.244  0.00  0.00    +0.000 C 
ATOM     18  O   UNL     1      -0.102  11.523  18.854  0.00  0.00    +0.000 OA
ATOM     19  C   UNL     1       1.234  11.575  19.347  0.00  0.00    +0.000 C 
ATOM     20  C   UNL     1       2.132  12.250  18.308  0.00  0.00    +0.000 C 
ATOM     21  C   UNL     1       1.261  12.361  20.654  0.00  0.00    +0.000 C 
ATOM     22  O   UNL     1       1.688  10.239  19.582  0.00  0.00    +0.000 OA
ENDBRANCH  15  16
ENDBRANCH  14  15
ENDBRANCH   8  14
BRANCH   9  23
ATOM     23  C   UNL     1       5.031   6.456  16.741  0.00  0.00    +0.000 C 
BRANCH  23  24
ATOM     24  C   UNL     1       6.288   7.032  17.339  0.00  0.00    +0.000 A 
ATOM     25  C   UNL     1       6.668   8.368  17.130  0.00  0.00    +0.000 A 
ATOM     26  C   UNL     1       7.806   8.896  17.753  0.00  0.00    +0.000 A 
ATOM     27  C   UNL     1       8.579   8.099  18.594  0.00  0.00    +0.000 A 
ATOM     28  C   UNL     1       8.219   6.770  18.804  0.00  0.00    +0.000 A 
ATOM     29  C   UNL     1       7.089   6.249  18.176  0.00  0.00    +0.000 A 
ATOM     30  F   UNL     1       6.751   4.976  18.418  0.00  0.00    +0.000 F 
ENDBRANCH  23  24
ENDBRANCH   9  23
TORSDOF 5
ENDMDL
MODEL 7
REMARK VINA RESULT:      -7.1      2.196      4.966
REMARK  Name = 
REMARK  9 active torsions:
REMARK  status: ('A' for Active; 'I' for Inactive)
REMARK    1  A    between atoms: C_1  and  N_2
REMARK    2  A    between atoms: C_8  and  O_9
REMARK    3  A    between atoms: O_9  and  C_10
REMARK    4  A    between atoms: C_10  and  C_11
REMARK    5  A    between atoms: C_14  and  C_15
REMARK    6  A    between atoms: C_14  and  C_16
REMARK    7  A    between atoms: N_18  and  C_19
REMARK    8  A    between atoms: C_19  and  C_20
REMARK    9  A    between atoms: N_27  and  C_28
REMARK                            x       y       z     vdW  Elec       q    Type
REMARK                         _______ _______ _______ _____ _____    ______ ____
ROOT
ATOM      1  C   UNL     1       6.207   3.501  15.897  0.00  0.00    +0.000 C 
ATOM      2  N   UNL     1       5.569   4.672  16.466  0.00  0.00    +0.000 N 
ATOM      3  C   UNL     1       4.247   4.562  16.908  0.00  0.00    +0.000 A 
ATOM      4  O   UNL     1       3.605   3.516  16.879  0.00  0.00    +0.000 OA
ATOM      5  C   UNL     1       3.723   5.784  17.424  0.00  0.00    +0.000 A 
ATOM      6  C   UNL     1       4.481   6.913  17.527  0.00  0.00    +0.000 A 
ATOM      7  N   UNL     1       3.806   7.929  18.114  0.00  0.00    +0.000 NA
ATOM      8  C   UNL     1       2.622   7.427  18.395  0.00  0.00    +0.000 A 
ATOM      9  N   UNL     1       2.488   6.136  17.928  0.00  0.00    +0.000 N 
ATOM     10  N   UNL     1       5.788   6.962  17.113  0.00  0.00    +0.000 N 
ATOM     11  C   UNL     1       6.584   8.164  17.246  0.00  0.00    +0.000 C 
ATOM     12  C   UNL     1       6.371   5.825  16.561  0.00  0.00    +0.000 A 
ATOM     13  O   UNL     1       7.545   5.825  16.176  0.00  0.00    +0.000 OA
ENDROOT
BRANCH   8  14
ATOM     14  O   UNL     1       1.686   8.087  19.079  0.00  0.00    +0.000 OA
BRANCH  14  15
ATOM     15  C   UNL     1       1.594   9.485  18.757  0.00  0.00    +0.000 C 
BRANCH  15  16
ATOM     16  C   UNL     1       0.523  10.245  19.553  0.00  0.00    +0.000 C 
ATOM     17  C   UNL     1       1.004  11.467  20.315  0.00  0.00    +0.000 C 
ATOM     18  O   UNL     1       0.713  11.241  21.699  0.00  0.00    +0.000 OA
ATOM     19  C   UNL     1       0.415   9.852  21.815  0.00  0.00    +0.000 C 
ATOM     20  C   UNL     1       1.681   9.094  22.221  0.00  0.00    +0.000 C 
ATOM     21  C   UNL     1      -0.675   9.654  22.863  0.00  0.00    +0.000 C 
ATOM     22  O   UNL     1      -0.047   9.375  20.548  0.00  0.00    +0.000 OA
ENDBRANCH  15  16
ENDBRANCH  14  15
ENDBRANCH   8  14
BRANCH   9  23
ATOM     23  C   UNL     1       1.345   5.257  18.121  0.00  0.00    +0.000 C 
BRANCH  23  24
ATOM     24  C   UNL     1       1.531   4.263  19.238  0.00  0.00    +0.000 A 
ATOM     25  C   UNL     1       1.618   2.881  19.000  0.00  0.00    +0.000 A 
ATOM     26  C   UNL     1       1.858   1.986  20.049  0.00  0.00    +0.000 A 
ATOM     27  C   UNL     1       2.016   2.456  21.351  0.00  0.00    +0.000 A 
ATOM     28  C   UNL     1       1.925   3.823  21.604  0.00  0.00    +0.000 A 
ATOM     29  C   UNL     1       1.679   4.708  20.556  0.00  0.00    +0.000 A 
ATOM     30  F   UNL     1       1.624   6.019  20.824  0.00  0.00    +0.000 F 
ENDBRANCH  23  24
ENDBRANCH   9  23
TORSDOF 5
ENDMDL
MODEL 8
REMARK VINA RESULT:      -7.0      2.094      4.824
REMARK  Name = 
REMARK  9 active torsions:
REMARK  status: ('A' for Active; 'I' for Inactive)
REMARK    1  A    between atoms: C_1  and  N_2
REMARK    2  A    between atoms: C_8  and  O_9
REMARK    3  A    between atoms: O_9  and  C_10
REMARK    4  A    between atoms: C_10  and  C_11
REMARK    5  A    between atoms: C_14  and  C_15
REMARK    6  A    between atoms: C_14  and  C_16
REMARK    7  A    between atoms: N_18  and  C_19
REMARK    8  A    between atoms: C_19  and  C_20
REMARK    9  A    between atoms: N_27  and  C_28
REMARK                            x       y       z     vdW  Elec       q    Type
REMARK                         _______ _______ _______ _____ _____    ______ ____
ROOT
ATOM      1  C   UNL     1       6.340   3.615  14.933  0.00  0.00    +0.000 C 
ATOM      2  N   UNL     1       5.795   4.626  15.818  0.00  0.00    +0.000 N 
ATOM      3  C   UNL     1       4.557   4.386  16.423  0.00  0.00    +0.000 A 
ATOM      4  O   UNL     1       3.920   3.347  16.278  0.00  0.00    +0.000 OA
ATOM      5  C   UNL     1       4.117   5.462  17.249  0.00  0.00    +0.000 A 
ATOM      6  C   UNL     1       4.879   6.572  17.464  0.00  0.00    +0.000 A 
ATOM      7  N   UNL     1       4.302   7.426  18.340  0.00  0.00    +0.000 NA
ATOM      8  C   UNL     1       3.176   6.840  18.688  0.00  0.00    +0.000 A 
ATOM      9  N   UNL     1       2.974   5.665  17.994  0.00  0.00    +0.000 N 
ATOM     10  N   UNL     1       6.107   6.746  16.877  0.00  0.00    +0.000 N 
ATOM     11  C   UNL     1       6.912   7.922  17.129  0.00  0.00    +0.000 C 
ATOM     12  C   UNL     1       6.600   5.763  16.023  0.00  0.00    +0.000 A 
ATOM     13  O   UNL     1       7.701   5.879  15.474  0.00  0.00    +0.000 OA
ENDROOT
BRANCH   8  14
ATOM     14  O   UNL     1       2.355   7.317  19.626  0.00  0.00    +0.000 OA
BRANCH  14  15
ATOM     15  C   UNL     1       1.354   8.222  19.128  0.00  0.00    +0.000 C 
BRANCH  15  16
ATOM     16  C   UNL     1       1.185   9.497  19.969  0.00  0.00    +0.000 C 
ATOM     17  C   UNL     1      -0.034   9.539  20.873  0.00  0.00    +0.000 C 
ATOM     18  O   UNL     1      -0.813  10.674  20.473  0.00  0.00    +0.000 OA
ATOM     19  C   UNL     1      -0.303  11.072  19.205  0.00  0.00    +0.000 C 
ATOM     20  C   UNL     1      -1.141  10.429  18.097  0.00  0.00    +0.000 C 
ATOM     21  C   UNL     1      -0.360  12.591  19.091  0.00  0.00    +0.000 C 
ATOM     22  O   UNL     1       1.054  10.634  19.097  0.00  0.00    +0.000 OA
ENDBRANCH  15  16
ENDBRANCH  14  15
ENDBRANCH   8  14
BRANCH   9  23
ATOM     23  C   UNL     1       1.876   4.727  18.174  0.00  0.00    +0.000 C 
BRANCH  23  24
ATOM     24  C   UNL     1       2.040   3.831  19.374  0.00  0.00    +0.000 A 
ATOM     25  C   UNL     1       3.034   2.840  19.434  0.00  0.00    +0.000 A 
ATOM     26  C   UNL     1       3.207   2.066  20.588  0.00  0.00    +0.000 A 
ATOM     27  C   UNL     1       2.391   2.270  21.699  0.00  0.00    +0.000 A 
ATOM     28  C   UNL     1       1.396   3.243  21.651  0.00  0.00    +0.000 A 
ATOM     29  C   UNL     1       1.225   4.006  20.497  0.00  0.00    +0.000 A 
ATOM     30  F   UNL     1       0.278   4.954  20.489  0.00  0.00    +0.000 F 
ENDBRANCH  23  24
ENDBRANCH   9  23
TORSDOF 5
ENDMDL
MODEL 9
REMARK VINA RESULT:      -7.0      2.078      4.861
REMARK  Name = 
REMARK  9 active torsions:
REMARK  status: ('A' for Active; 'I' for Inactive)
REMARK    1  A    between atoms: C_1  and  N_2
REMARK    2  A    between atoms: C_8  and  O_9
REMARK    3  A    between atoms: O_9  and  C_10
REMARK    4  A    between atoms: C_10  and  C_11
REMARK    5  A    between atoms: C_14  and  C_15
REMARK    6  A    between atoms: C_14  and  C_16
REMARK    7  A    between atoms: N_18  and  C_19
REMARK    8  A    between atoms: C_19  and  C_20
REMARK    9  A    between atoms: N_27  and  C_28
REMARK                            x       y       z     vdW  Elec       q    Type
REMARK                         _______ _______ _______ _____ _____    ______ ____
ROOT
ATOM      1  C   UNL     1       6.222   3.422  15.452  0.00  0.00    +0.000 C 
ATOM      2  N   UNL     1       5.667   4.569  16.144  0.00  0.00    +0.000 N 
ATOM      3  C   UNL     1       4.354   4.491  16.619  0.00  0.00    +0.000 A 
ATOM      4  O   UNL     1       3.653   3.488  16.518  0.00  0.00    +0.000 OA
ATOM      5  C   UNL     1       3.916   5.687  17.259  0.00  0.00    +0.000 A 
ATOM      6  C   UNL     1       4.738   6.760  17.437  0.00  0.00    +0.000 A 
ATOM      7  N   UNL     1       4.139   7.753  18.134  0.00  0.00    +0.000 NA
ATOM      8  C   UNL     1       2.937   7.292  18.409  0.00  0.00    +0.000 A 
ATOM      9  N   UNL     1       2.717   6.058  17.833  0.00  0.00    +0.000 N 
ATOM     10  N   UNL     1       6.033   6.776  16.985  0.00  0.00    +0.000 N 
ATOM     11  C   UNL     1       6.900   7.916  17.197  0.00  0.00    +0.000 C 
ATOM     12  C   UNL     1       6.535   5.664  16.314  0.00  0.00    +0.000 A 
ATOM     13  O   UNL     1       7.696   5.636  15.892  0.00  0.00    +0.000 OA
ENDROOT
BRANCH   8  14
ATOM     14  O   UNL     1       2.059   7.936  19.180  0.00  0.00    +0.000 OA
BRANCH  14  15
ATOM     15  C   UNL     1       1.452   9.080  18.556  0.00  0.00    +0.000 C 
BRANCH  15  16
ATOM     16  C   UNL     1       0.418   9.802  19.433  0.00  0.00    +0.000 C 
ATOM     17  C   UNL     1      -0.623  10.622  18.694  0.00  0.00    +0.000 C 
ATOM     18  O   UNL     1      -0.494  11.974  19.150  0.00  0.00    +0.000 OA
ATOM     19  C   UNL     1       0.755  12.039  19.833  0.00  0.00    +0.000 C 
ATOM     20  C   UNL     1       1.835  12.532  18.867  0.00  0.00    +0.000 C 
ATOM     21  C   UNL     1       0.635  12.992  21.017  0.00  0.00    +0.000 C 
ATOM     22  O   UNL     1       1.089  10.731  20.303  0.00  0.00    +0.000 OA
ENDBRANCH  15  16
ENDBRANCH  14  15
ENDBRANCH   8  14
BRANCH   9  23
ATOM     23  C   UNL     1       1.533   5.227  17.986  0.00  0.00    +0.000 C 
BRANCH  23  24
ATOM     24  C   UNL     1       1.646   4.212  19.093  0.00  0.00    +0.000 A 
ATOM     25  C   UNL     1       1.889   2.852  18.835  0.00  0.00    +0.000 A 
ATOM     26  C   UNL     1       2.057   1.942  19.885  0.00  0.00    +0.000 A 
ATOM     27  C   UNL     1       1.987   2.375  21.208  0.00  0.00    +0.000 A 
ATOM     28  C   UNL     1       1.739   3.718  21.478  0.00  0.00    +0.000 A 
ATOM     29  C   UNL     1       1.566   4.618  20.428  0.00  0.00    +0.000 A 
ATOM     30  F   UNL     1       1.356   5.909  20.718  0.00  0.00    +0.000 F 
ENDBRANCH  23  24
ENDBRANCH   9  23
TORSDOF 5
ENDMDL
