MODEL 1
REMARK VINA RESULT:      -7.5      0.000      0.000
REMARK  Name = 
REMARK  10 active torsions:
REMARK  status: ('A' for Active; 'I' for Inactive)
REMARK    1  A    between atoms: C_1  and  C_2
REMARK    2  A    between atoms: C_5  and  C_6
REMARK    3  A    between atoms: C_7  and  O_8
REMARK    4  A    between atoms: O_8  and  C_9
REMARK    5  A    between atoms: C_9  and  C_10
REMARK    6  A    between atoms: C_10  and  O_11
REMARK    7  A    between atoms: O_11  and  N_12
REMARK    8  A    between atoms: C_13  and  C_15
REMARK    9  A    between atoms: C_15  and  C_16
REMARK   10  A    between atoms: C_19  and  C_20
REMARK                            x       y       z     vdW  Elec       q    Type
REMARK                         _______ _______ _______ _____ _____    ______ ____
ROOT
ATOM      1  O   UNL     1       7.787   7.213  16.723  0.00  0.00    +0.000 OA
ENDROOT
BRANCH   1   2
ATOM      2  N   UNL     1       6.464   6.772  16.528  0.00  0.00    +0.000 NA
ATOM      3  C   UNL     1       6.456   5.492  16.284  0.00  0.00    +0.000 C 
ATOM      4  N   UNL     1       7.620   4.759  16.194  0.00  0.00    +0.000 N 
ATOM      5  H   UNL     1       8.419   5.389  16.236  0.00  0.00    +0.000 HD
ATOM      6  H   UNL     1       7.675   4.143  15.392  0.00  0.00    +0.000 HD
BRANCH   3   7
ATOM      7  C   UNL     1       5.128   4.775  16.047  0.00  0.00    +0.000 C 
BRANCH   7   8
ATOM      8  C   UNL     1       4.505   4.167  17.264  0.00  0.00    +0.000 A 
ATOM      9  C   UNL     1       5.029   4.027  18.537  0.00  0.00    +0.000 A 
ATOM     10  S   UNL     1       3.894   3.265  19.572  0.00  0.00    +0.000 S 
ATOM     11  C   UNL     1       2.783   3.167  18.267  0.00  0.00    +0.000 A 
ATOM     12  C   UNL     1       1.429   2.577  18.465  0.00  0.00    +0.000 C 
ATOM     13  N   UNL     1       3.216   3.654  17.123  0.00  0.00    +0.000 NA
ENDBRANCH   7   8
ENDBRANCH   3   7
ENDBRANCH   1   2
BRANCH   1  14
ATOM     14  C   UNL     1       7.910   7.842  17.998  0.00  0.00    +0.000 C 
BRANCH  14  15
ATOM     15  C   UNL     1       8.286   9.318  17.879  0.00  0.00    +0.000 C 
BRANCH  15  16
ATOM     16  O   UNL     1       8.939   9.744  19.078  0.00  0.00    +0.000 OA
BRANCH  16  23
ATOM     17  C   UNL     1      11.538  13.162  16.594  0.00  0.00    +0.000 C 
ATOM     18  C   UNL     1      10.937  12.640  17.865  0.00  0.00    +0.000 A 
ATOM     19  C   UNL     1      11.080  13.328  19.071  0.00  0.00    +0.000 A 
ATOM     20  C   UNL     1      10.506  12.825  20.239  0.00  0.00    +0.000 A 
ATOM     21  C   UNL     1       9.783  11.623  20.223  0.00  0.00    +0.000 A 
ATOM     22  C   UNL     1       9.162  11.110  21.492  0.00  0.00    +0.000 C 
ATOM     23  C   UNL     1       9.642  10.922  19.013  0.00  0.00    +0.000 A 
ATOM     24  C   UNL     1      10.216  11.438  17.846  0.00  0.00    +0.000 A 
ENDBRANCH  16  23
ENDBRANCH  15  16
ENDBRANCH  14  15
ENDBRANCH   1  14
TORSDOF 7
ENDMDL
MODEL 2
REMARK VINA RESULT:      -7.3      1.044      1.185
REMARK  Name = 
REMARK  10 active torsions:
REMARK  status: ('A' for Active; 'I' for Inactive)
REMARK    1  A    between atoms: C_1  and  C_2
REMARK    2  A    between atoms: C_5  and  C_6
REMARK    3  A    between atoms: C_7  and  O_8
REMARK    4  A    between atoms: O_8  and  C_9
REMARK    5  A    between atoms: C_9  and  C_10
REMARK    6  A    between atoms: C_10  and  O_11
REMARK    7  A    between atoms: O_11  and  N_12
REMARK    8  A    between atoms: C_13  and  C_15
REMARK    9  A    between atoms: C_15  and  C_16
REMARK   10  A    between atoms: C_19  and  C_20
REMARK                            x       y       z     vdW  Elec       q    Type
REMARK                         _______ _______ _______ _____ _____    ______ ____
ROOT
ATOM      1  O   UNL     1       7.687   7.631  16.823  0.00  0.00    +0.000 OA
ENDROOT
BRANCH   1   2
ATOM      2  N   UNL     1       6.382   7.101  16.818  0.00  0.00    +0.000 NA
ATOM      3  C   UNL     1       6.355   6.002  16.119  0.00  0.00    +0.000 C 
ATOM      4  N   UNL     1       7.472   5.523  15.466  0.00  0.00    +0.000 N 
ATOM      5  H   UNL     1       8.222   6.208  15.539  0.00  0.00    +0.000 HD
ATOM      6  H   UNL     1       7.317   5.244  14.505  0.00  0.00    +0.000 HD
BRANCH   3   7
ATOM      7  C   UNL     1       5.045   5.230  15.973  0.00  0.00    +0.000 C 
BRANCH   7   8
ATOM      8  C   UNL     1       4.367   4.876  17.260  0.00  0.00    +0.000 A 
ATOM      9  C   UNL     1       3.295   5.492  17.881  0.00  0.00    +0.000 A 
ATOM     10  S   UNL     1       2.899   4.681  19.338  0.00  0.00    +0.000 S 
ATOM     11  C   UNL     1       4.173   3.566  19.054  0.00  0.00    +0.000 A 
ATOM     12  C   UNL     1       4.430   2.446  20.003  0.00  0.00    +0.000 C 
ATOM     13  N   UNL     1       4.868   3.777  17.955  0.00  0.00    +0.000 NA
ENDBRANCH   7   8
ENDBRANCH   3   7
ENDBRANCH   1   2
BRANCH   1  14
ATOM     14  C   UNL     1       8.011   8.123  18.123  0.00  0.00    +0.000 C 
BRANCH  14  15
ATOM     15  C   UNL     1       8.397   9.600  18.102  0.00  0.00    +0.000 C 
BRANCH  15  16
ATOM     16  O   UNL     1       9.200   9.902  19.248  0.00  0.00    +0.000 OA
BRANCH  16  23
ATOM     17  C   UNL     1      12.167  13.190  17.014  0.00  0.00    +0.000 C 
ATOM     18  C   UNL     1      11.356  12.746  18.195  0.00  0.00    +0.000 A 
ATOM     19  C   UNL     1      11.279  13.520  19.354  0.00  0.00    +0.000 A 
ATOM     20  C   UNL     1      10.513  13.088  20.437  0.00  0.00    +0.000 A 
ATOM     21  C   UNL     1       9.814  11.873  20.382  0.00  0.00    +0.000 A 
ATOM     22  C   UNL     1       8.984  11.438  21.558  0.00  0.00    +0.000 C 
ATOM     23  C   UNL     1       9.893  11.086  19.221  0.00  0.00    +0.000 A 
ATOM     24  C   UNL     1      10.659  11.531  18.138  0.00  0.00    +0.000 A 
ENDBRANCH  16  23
ENDBRANCH  15  16
ENDBRANCH  14  15
ENDBRANCH   1  14
TORSDOF 7
ENDMDL
MODEL 3
REMARK VINA RESULT:      -7.1      3.753      9.600
REMARK  Name = 
REMARK  10 active torsions:
REMARK  status: ('A' for Active; 'I' for Inactive)
REMARK    1  A    between atoms: C_1  and  C_2
REMARK    2  A    between atoms: C_5  and  C_6
REMARK    3  A    between atoms: C_7  and  O_8
REMARK    4  A    between atoms: O_8  and  C_9
REMARK    5  A    between atoms: C_9  and  C_10
REMARK    6  A    between atoms: C_10  and  O_11
REMARK    7  A    between atoms: O_11  and  N_12
REMARK    8  A    between atoms: C_13  and  C_15
REMARK    9  A    between atoms: C_15  and  C_16
REMARK   10  A    between atoms: C_19  and  C_20
REMARK                            x       y       z     vdW  Elec       q    Type
REMARK                         _______ _______ _______ _____ _____    ______ ____
ROOT
ATOM      1  O   UNL     1       8.323   7.550  18.581  0.00  0.00    +0.000 OA
ENDROOT
BRANCH   1   2
ATOM      2  N   UNL     1       8.086   8.715  17.826  0.00  0.00    +0.000 NA
ATOM      3  C   UNL     1       8.629   9.741  18.417  0.00  0.00    +0.000 C 
ATOM      4  N   UNL     1       9.279   9.628  19.628  0.00  0.00    +0.000 N 
ATOM      5  H   UNL     1       9.153   8.685  19.989  0.00  0.00    +0.000 HD
ATOM      6  H   UNL     1       9.022  10.327  20.315  0.00  0.00    +0.000 HD
BRANCH   3   7
ATOM      7  C   UNL     1       8.516  11.126  17.781  0.00  0.00    +0.000 C 
BRANCH   7   8
ATOM      8  C   UNL     1       9.594  12.092  18.161  0.00  0.00    +0.000 A 
ATOM      9  C   UNL     1      10.727  12.459  17.457  0.00  0.00    +0.000 A 
ATOM     10  S   UNL     1      11.633  13.617  18.339  0.00  0.00    +0.000 S 
ATOM     11  C   UNL     1      10.466  13.558  19.597  0.00  0.00    +0.000 A 
ATOM     12  C   UNL     1      10.609  14.416  20.807  0.00  0.00    +0.000 C 
ATOM     13  N   UNL     1       9.466  12.726  19.397  0.00  0.00    +0.000 NA
ENDBRANCH   7   8
ENDBRANCH   3   7
ENDBRANCH   1   2
BRANCH   1  14
ATOM     14  C   UNL     1       7.503   6.483  18.106  0.00  0.00    +0.000 C 
BRANCH  14  15
ATOM     15  C   UNL     1       6.904   5.663  19.248  0.00  0.00    +0.000 C 
BRANCH  15  16
ATOM     16  O   UNL     1       6.330   4.462  18.725  0.00  0.00    +0.000 OA
BRANCH  16  23
ATOM     17  C   UNL     1       1.716   5.009  20.462  0.00  0.00    +0.000 C 
ATOM     18  C   UNL     1       2.668   4.686  19.349  0.00  0.00    +0.000 A 
ATOM     19  C   UNL     1       2.207   4.330  18.081  0.00  0.00    +0.000 A 
ATOM     20  C   UNL     1       3.113   4.040  17.059  0.00  0.00    +0.000 A 
ATOM     21  C   UNL     1       4.496   4.097  17.290  0.00  0.00    +0.000 A 
ATOM     22  C   UNL     1       5.451   3.793  16.170  0.00  0.00    +0.000 C 
ATOM     23  C   UNL     1       4.966   4.447  18.568  0.00  0.00    +0.000 A 
ATOM     24  C   UNL     1       4.049   4.742  19.583  0.00  0.00    +0.000 A 
ENDBRANCH  16  23
ENDBRANCH  15  16
ENDBRANCH  14  15
ENDBRANCH   1  14
TORSDOF 7
ENDMDL
MODEL 4
REMARK VINA RESULT:      -6.9      5.725      7.708
REMARK  Name = 
REMARK  10 active torsions:
REMARK  status: ('A' for Active; 'I' for Inactive)
REMARK    1  A    between atoms: C_1  and  C_2
REMARK    2  A    between atoms: C_5  and  C_6
REMARK    3  A    between atoms: C_7  and  O_8
REMARK    4  A    between atoms: O_8  and  C_9
REMARK    5  A    between atoms: C_9  and  C_10
REMARK    6  A    between atoms: C_10  and  O_11
REMARK    7  A    between atoms: O_11  and  N_12
REMARK    8  A    between atoms: C_13  and  C_15
REMARK    9  A    between atoms: C_15  and  C_16
REMARK   10  A    between atoms: C_19  and  C_20
REMARK                            x       y       z     vdW  Elec       q    Type
REMARK                         _______ _______ _______ _____ _____    ______ ____
ROOT
ATOM      1  O   UNL     1       4.718   5.429  19.960  0.00  0.00    +0.000 OA
ENDROOT
BRANCH   1   2
ATOM      2  N   UNL     1       5.768   4.721  19.342  0.00  0.00    +0.000 NA
ATOM      3  C   UNL     1       6.086   5.297  18.217  0.00  0.00    +0.000 C 
ATOM      4  N   UNL     1       5.409   6.402  17.745  0.00  0.00    +0.000 N 
ATOM      5  H   UNL     1       4.607   6.586  18.344  0.00  0.00    +0.000 HD
ATOM      6  H   UNL     1       5.141   6.352  16.770  0.00  0.00    +0.000 HD
BRANCH   3   7
ATOM      7  C   UNL     1       7.213   4.718  17.363  0.00  0.00    +0.000 C 
BRANCH   7   8
ATOM      8  C   UNL     1       6.881   4.521  15.917  0.00  0.00    +0.000 A 
ATOM      9  C   UNL     1       5.867   3.772  15.347  0.00  0.00    +0.000 A 
ATOM     10  S   UNL     1       5.921   3.893  13.638  0.00  0.00    +0.000 S 
ATOM     11  C   UNL     1       7.285   4.929  13.762  0.00  0.00    +0.000 A 
ATOM     12  C   UNL     1       7.919   5.502  12.541  0.00  0.00    +0.000 C 
ATOM     13  N   UNL     1       7.695   5.170  14.990  0.00  0.00    +0.000 NA
ENDBRANCH   7   8
ENDBRANCH   3   7
ENDBRANCH   1   2
BRANCH   1  14
ATOM     14  C   UNL     1       3.468   4.808  19.660  0.00  0.00    +0.000 C 
BRANCH  14  15
ATOM     15  C   UNL     1       2.284   5.728  19.949  0.00  0.00    +0.000 C 
BRANCH  15  16
ATOM     16  O   UNL     1       2.589   7.054  19.507  0.00  0.00    +0.000 OA
BRANCH  16  23
ATOM     17  C   UNL     1      -0.434   9.190  22.810  0.00  0.00    +0.000 C 
ATOM     18  C   UNL     1       0.215   9.153  21.458  0.00  0.00    +0.000 A 
ATOM     19  C   UNL     1      -0.046  10.136  20.502  0.00  0.00    +0.000 A 
ATOM     20  C   UNL     1       0.576  10.084  19.254  0.00  0.00    +0.000 A 
ATOM     21  C   UNL     1       1.464   9.045  18.938  0.00  0.00    +0.000 A 
ATOM     22  C   UNL     1       2.131   9.019  17.591  0.00  0.00    +0.000 C 
ATOM     23  C   UNL     1       1.725   8.048  19.893  0.00  0.00    +0.000 A 
ATOM     24  C   UNL     1       1.102   8.114  21.145  0.00  0.00    +0.000 A 
ENDBRANCH  16  23
ENDBRANCH  15  16
ENDBRANCH  14  15
ENDBRANCH   1  14
TORSDOF 7
ENDMDL
MODEL 5
REMARK VINA RESULT:      -6.8      5.047      7.802
REMARK  Name = 
REMARK  10 active torsions:
REMARK  status: ('A' for Active; 'I' for Inactive)
REMARK    1  A    between atoms: C_1  and  C_2
REMARK    2  A    between atoms: C_5  and  C_6
REMARK    3  A    between atoms: C_7  and  O_8
REMARK    4  A    between atoms: O_8  and  C_9
REMARK    5  A    between atoms: C_9  and  C_10
REMARK    6  A    between atoms: C_10  and  O_11
REMARK    7  A    between atoms: O_11  and  N_12
REMARK    8  A    between atoms: C_13  and  C_15
REMARK    9  A    between atoms: C_15  and  C_16
REMARK   10  A    between atoms: C_19  and  C_20
REMARK                            x       y       z     vdW  Elec       q    Type
REMARK                         _______ _______ _______ _____ _____    ______ ____
ROOT
ATOM      1  O   UNL     1       1.300   4.309  19.227  0.00  0.00    +0.000 OA
ENDROOT
BRANCH   1   2
ATOM      2  N   UNL     1       2.254   3.375  18.777  0.00  0.00    +0.000 NA
ATOM      3  C   UNL     1       3.061   3.944  17.926  0.00  0.00    +0.000 C 
ATOM      4  N   UNL     1       2.903   5.257  17.535  0.00  0.00    +0.000 N 
ATOM      5  H   UNL     1       2.035   5.621  17.923  0.00  0.00    +0.000 HD
ATOM      6  H   UNL     1       2.958   5.413  16.536  0.00  0.00    +0.000 HD
BRANCH   3   7
ATOM      7  C   UNL     1       4.195   3.132  17.302  0.00  0.00    +0.000 C 
BRANCH   7   8
ATOM      8  C   UNL     1       5.312   3.940  16.721  0.00  0.00    +0.000 A 
ATOM      9  C   UNL     1       5.963   3.789  15.509  0.00  0.00    +0.000 A 
ATOM     10  S   UNL     1       7.169   4.992  15.321  0.00  0.00    +0.000 S 
ATOM     11  C   UNL     1       6.754   5.636  16.857  0.00  0.00    +0.000 A 
ATOM     12  C   UNL     1       7.453   6.839  17.392  0.00  0.00    +0.000 C 
ATOM     13  N   UNL     1       5.789   5.002  17.490  0.00  0.00    +0.000 NA
ENDBRANCH   7   8
ENDBRANCH   3   7
ENDBRANCH   1   2
BRANCH   1  14
ATOM     14  C   UNL     1       1.408   4.477  20.640  0.00  0.00    +0.000 C 
BRANCH  14  15
ATOM     15  C   UNL     1       2.152   5.757  21.015  0.00  0.00    +0.000 C 
BRANCH  15  16
ATOM     16  O   UNL     1       2.003   6.721  19.968  0.00  0.00    +0.000 OA
BRANCH  16  23
ATOM     17  C   UNL     1      -0.203   9.761  23.207  0.00  0.00    +0.000 C 
ATOM     18  C   UNL     1       0.364   9.483  21.848  0.00  0.00    +0.000 A 
ATOM     19  C   UNL     1       0.352  10.453  20.844  0.00  0.00    +0.000 A 
ATOM     20  C   UNL     1       0.893  10.173  19.589  0.00  0.00    +0.000 A 
ATOM     21  C   UNL     1       1.451   8.916  19.313  0.00  0.00    +0.000 A 
ATOM     22  C   UNL     1       2.039   8.643  17.957  0.00  0.00    +0.000 C 
ATOM     23  C   UNL     1       1.459   7.932  20.316  0.00  0.00    +0.000 A 
ATOM     24  C   UNL     1       0.921   8.226  21.574  0.00  0.00    +0.000 A 
ENDBRANCH  16  23
ENDBRANCH  15  16
ENDBRANCH  14  15
ENDBRANCH   1  14
TORSDOF 7
ENDMDL
MODEL 6
REMARK VINA RESULT:      -6.7      4.093      9.732
REMARK  Name = 
REMARK  10 active torsions:
REMARK  status: ('A' for Active; 'I' for Inactive)
REMARK    1  A    between atoms: C_1  and  C_2
REMARK    2  A    between atoms: C_5  and  C_6
REMARK    3  A    between atoms: C_7  and  O_8
REMARK    4  A    between atoms: O_8  and  C_9
REMARK    5  A    between atoms: C_9  and  C_10
REMARK    6  A    between atoms: C_10  and  O_11
REMARK    7  A    between atoms: O_11  and  N_12
REMARK    8  A    between atoms: C_13  and  C_15
REMARK    9  A    between atoms: C_15  and  C_16
REMARK   10  A    between atoms: C_19  and  C_20
REMARK                            x       y       z     vdW  Elec       q    Type
REMARK                         _______ _______ _______ _____ _____    ______ ____
ROOT
ATOM      1  O   UNL     1       8.630   9.331  18.819  0.00  0.00    +0.000 OA
ENDROOT
BRANCH   1   2
ATOM      2  N   UNL     1       9.391  10.467  18.482  0.00  0.00    +0.000 NA
ATOM      3  C   UNL     1       9.820  11.049  19.567  0.00  0.00    +0.000 C 
ATOM      4  N   UNL     1       9.488  10.587  20.823  0.00  0.00    +0.000 N 
ATOM      5  H   UNL     1       8.804   9.838  20.736  0.00  0.00    +0.000 HD
ATOM      6  H   UNL     1       9.176  11.301  21.470  0.00  0.00    +0.000 HD
BRANCH   3   7
ATOM      7  C   UNL     1      10.683  12.305  19.460  0.00  0.00    +0.000 C 
BRANCH   7   8
ATOM      8  C   UNL     1       9.996  13.504  18.886  0.00  0.00    +0.000 A 
ATOM      9  C   UNL     1       8.675  13.898  19.010  0.00  0.00    +0.000 A 
ATOM     10  S   UNL     1       8.404  15.362  18.160  0.00  0.00    +0.000 S 
ATOM     11  C   UNL     1      10.052  15.380  17.681  0.00  0.00    +0.000 A 
ATOM     12  C   UNL     1      10.591  16.495  16.852  0.00  0.00    +0.000 C 
ATOM     13  N   UNL     1      10.771  14.362  18.107  0.00  0.00    +0.000 NA
ENDBRANCH   7   8
ENDBRANCH   3   7
ENDBRANCH   1   2
BRANCH   1  14
ATOM     14  C   UNL     1       7.865   8.902  17.693  0.00  0.00    +0.000 C 
BRANCH  14  15
ATOM     15  C   UNL     1       7.682   7.386  17.664  0.00  0.00    +0.000 C 
BRANCH  15  16
ATOM     16  O   UNL     1       6.914   7.019  16.514  0.00  0.00    +0.000 OA
BRANCH  16  23
ATOM     17  C   UNL     1       2.503   6.125  18.601  0.00  0.00    +0.000 C 
ATOM     18  C   UNL     1       3.650   5.708  17.729  0.00  0.00    +0.000 A 
ATOM     19  C   UNL     1       3.666   4.463  17.099  0.00  0.00    +0.000 A 
ATOM     20  C   UNL     1       4.741   4.100  16.286  0.00  0.00    +0.000 A 
ATOM     21  C   UNL     1       5.821   4.974  16.094  0.00  0.00    +0.000 A 
ATOM     22  C   UNL     1       6.961   4.565  15.203  0.00  0.00    +0.000 C 
ATOM     23  C   UNL     1       5.815   6.226  16.732  0.00  0.00    +0.000 A 
ATOM     24  C   UNL     1       4.728   6.583  17.539  0.00  0.00    +0.000 A 
ENDBRANCH  16  23
ENDBRANCH  15  16
ENDBRANCH  14  15
ENDBRANCH   1  14
TORSDOF 7
ENDMDL
MODEL 7
REMARK VINA RESULT:      -6.7      3.764      9.530
REMARK  Name = 
REMARK  10 active torsions:
REMARK  status: ('A' for Active; 'I' for Inactive)
REMARK    1  A    between atoms: C_1  and  C_2
REMARK    2  A    between atoms: C_5  and  C_6
REMARK    3  A    between atoms: C_7  and  O_8
REMARK    4  A    between atoms: O_8  and  C_9
REMARK    5  A    between atoms: C_9  and  C_10
REMARK    6  A    between atoms: C_10  and  O_11
REMARK    7  A    between atoms: O_11  and  N_12
REMARK    8  A    between atoms: C_13  and  C_15
REMARK    9  A    between atoms: C_15  and  C_16
REMARK   10  A    between atoms: C_19  and  C_20
REMARK                            x       y       z     vdW  Elec       q    Type
REMARK                         _______ _______ _______ _____ _____    ______ ____
ROOT
ATOM      1  O   UNL     1       7.618   8.095  17.687  0.00  0.00    +0.000 OA
ENDROOT
BRANCH   1   2
ATOM      2  N   UNL     1       8.617   8.554  18.569  0.00  0.00    +0.000 NA
ATOM      3  C   UNL     1       8.710   9.851  18.493  0.00  0.00    +0.000 C 
ATOM      4  N   UNL     1       7.945  10.589  17.614  0.00  0.00    +0.000 N 
ATOM      5  H   UNL     1       7.426   9.956  17.009  0.00  0.00    +0.000 HD
ATOM      6  H   UNL     1       8.458  11.278  17.078  0.00  0.00    +0.000 HD
BRANCH   3   7
ATOM      7  C   UNL     1       9.723  10.589  19.368  0.00  0.00    +0.000 C 
BRANCH   7   8
ATOM      8  C   UNL     1      10.432  11.726  18.702  0.00  0.00    +0.000 A 
ATOM      9  C   UNL     1      11.680  11.748  18.105  0.00  0.00    +0.000 A 
ATOM     10  S   UNL     1      12.018  13.308  17.480  0.00  0.00    +0.000 S 
ATOM     11  C   UNL     1      10.491  13.855  18.042  0.00  0.00    +0.000 A 
ATOM     12  C   UNL     1      10.050  15.259  17.803  0.00  0.00    +0.000 C 
ATOM     13  N   UNL     1       9.767  12.951  18.668  0.00  0.00    +0.000 NA
ENDBRANCH   7   8
ENDBRANCH   3   7
ENDBRANCH   1   2
BRANCH   1  14
ATOM     14  C   UNL     1       7.389   6.701  17.890  0.00  0.00    +0.000 C 
BRANCH  14  15
ATOM     15  C   UNL     1       6.646   6.063  16.718  0.00  0.00    +0.000 C 
BRANCH  15  16
ATOM     16  O   UNL     1       5.295   6.533  16.694  0.00  0.00    +0.000 OA
BRANCH  16  23
ATOM     17  C   UNL     1       3.527   2.039  17.826  0.00  0.00    +0.000 C 
ATOM     18  C   UNL     1       3.403   3.533  17.820  0.00  0.00    +0.000 A 
ATOM     19  C   UNL     1       2.285   4.170  18.362  0.00  0.00    +0.000 A 
ATOM     20  C   UNL     1       2.196   5.562  18.351  0.00  0.00    +0.000 A 
ATOM     21  C   UNL     1       3.219   6.342  17.793  0.00  0.00    +0.000 A 
ATOM     22  C   UNL     1       3.105   7.841  17.806  0.00  0.00    +0.000 C 
ATOM     23  C   UNL     1       4.344   5.707  17.239  0.00  0.00    +0.000 A 
ATOM     24  C   UNL     1       4.427   4.310  17.262  0.00  0.00    +0.000 A 
ENDBRANCH  16  23
ENDBRANCH  15  16
ENDBRANCH  14  15
ENDBRANCH   1  14
TORSDOF 7
ENDMDL
MODEL 8
REMARK VINA RESULT:      -6.7      2.820      2.940
REMARK  Name = 
REMARK  10 active torsions:
REMARK  status: ('A' for Active; 'I' for Inactive)
REMARK    1  A    between atoms: C_1  and  C_2
REMARK    2  A    between atoms: C_5  and  C_6
REMARK    3  A    between atoms: C_7  and  O_8
REMARK    4  A    between atoms: O_8  and  C_9
REMARK    5  A    between atoms: C_9  and  C_10
REMARK    6  A    between atoms: C_10  and  O_11
REMARK    7  A    between atoms: O_11  and  N_12
REMARK    8  A    between atoms: C_13  and  C_15
REMARK    9  A    between atoms: C_15  and  C_16
REMARK   10  A    between atoms: C_19  and  C_20
REMARK                            x       y       z     vdW  Elec       q    Type
REMARK                         _______ _______ _______ _____ _____    ______ ____
ROOT
ATOM      1  O   UNL     1       7.073   7.645  16.987  0.00  0.00    +0.000 OA
ENDROOT
BRANCH   1   2
ATOM      2  N   UNL     1       5.930   7.271  17.721  0.00  0.00    +0.000 NA
ATOM      3  C   UNL     1       5.052   6.730  16.924  0.00  0.00    +0.000 C 
ATOM      4  N   UNL     1       5.265   6.624  15.566  0.00  0.00    +0.000 N 
ATOM      5  H   UNL     1       6.121   7.119  15.321  0.00  0.00    +0.000 HD
ATOM      6  H   UNL     1       4.487   6.920  14.988  0.00  0.00    +0.000 HD
BRANCH   3   7
ATOM      7  C   UNL     1       3.724   6.231  17.491  0.00  0.00    +0.000 C 
BRANCH   7   8
ATOM      8  C   UNL     1       2.872   7.279  18.136  0.00  0.00    +0.000 A 
ATOM      9  C   UNL     1       2.383   8.458  17.604  0.00  0.00    +0.000 A 
ATOM     10  S   UNL     1       1.445   9.298  18.767  0.00  0.00    +0.000 S 
ATOM     11  C   UNL     1       1.747   8.046  19.902  0.00  0.00    +0.000 A 
ATOM     12  C   UNL     1       1.160   8.103  21.271  0.00  0.00    +0.000 C 
ATOM     13  N   UNL     1       2.506   7.064  19.465  0.00  0.00    +0.000 NA
ENDBRANCH   7   8
ENDBRANCH   3   7
ENDBRANCH   1   2
BRANCH   1  14
ATOM     14  C   UNL     1       8.127   8.013  17.877  0.00  0.00    +0.000 C 
BRANCH  14  15
ATOM     15  C   UNL     1       8.248   9.528  18.031  0.00  0.00    +0.000 C 
BRANCH  15  16
ATOM     16  O   UNL     1       9.171   9.830  19.081  0.00  0.00    +0.000 OA
BRANCH  16  23
ATOM     17  C   UNL     1      11.818  13.242  16.640  0.00  0.00    +0.000 C 
ATOM     18  C   UNL     1      11.125  12.761  17.880  0.00  0.00    +0.000 A 
ATOM     19  C   UNL     1      11.114  13.525  19.048  0.00  0.00    +0.000 A 
ATOM     20  C   UNL     1      10.456  13.058  20.187  0.00  0.00    +0.000 A 
ATOM     21  C   UNL     1       9.802  11.818  20.179  0.00  0.00    +0.000 A 
ATOM     22  C   UNL     1       9.089  11.344  21.415  0.00  0.00    +0.000 C 
ATOM     23  C   UNL     1       9.815  11.040  19.008  0.00  0.00    +0.000 A 
ATOM     24  C   UNL     1      10.472  11.521  17.870  0.00  0.00    +0.000 A 
ENDBRANCH  16  23
ENDBRANCH  15  16
ENDBRANCH  14  15
ENDBRANCH   1  14
TORSDOF 7
ENDMDL
MODEL 9
REMARK VINA RESULT:      -6.6      1.382      1.496
REMARK  Name = 
REMARK  10 active torsions:
REMARK  status: ('A' for Active; 'I' for Inactive)
REMARK    1  A    between atoms: C_1  and  C_2
REMARK    2  A    between atoms: C_5  and  C_6
REMARK    3  A    between atoms: C_7  and  O_8
REMARK    4  A    between atoms: O_8  and  C_9
REMARK    5  A    between atoms: C_9  and  C_10
REMARK    6  A    between atoms: C_10  and  O_11
REMARK    7  A    between atoms: O_11  and  N_12
REMARK    8  A    between atoms: C_13  and  C_15
REMARK    9  A    between atoms: C_15  and  C_16
REMARK   10  A    between atoms: C_19  and  C_20
REMARK                            x       y       z     vdW  Elec       q    Type
REMARK                         _______ _______ _______ _____ _____    ______ ____
ROOT
ATOM      1  O   UNL     1       7.446   7.486  17.981  0.00  0.00    +0.000 OA
ENDROOT
BRANCH   1   2
ATOM      2  N   UNL     1       6.427   7.108  17.085  0.00  0.00    +0.000 NA
ATOM      3  C   UNL     1       5.869   6.003  17.492  0.00  0.00    +0.000 C 
ATOM      4  N   UNL     1       6.306   5.335  18.616  0.00  0.00    +0.000 N 
ATOM      5  H   UNL     1       7.153   5.779  18.963  0.00  0.00    +0.000 HD
ATOM      6  H   UNL     1       6.432   4.337  18.497  0.00  0.00    +0.000 HD
BRANCH   3   7
ATOM      7  C   UNL     1       4.722   5.394  16.686  0.00  0.00    +0.000 C 
BRANCH   7   8
ATOM      8  C   UNL     1       3.641   4.755  17.500  0.00  0.00    +0.000 A 
ATOM      9  C   UNL     1       2.950   3.579  17.265  0.00  0.00    +0.000 A 
ATOM     10  S   UNL     1       1.814   3.291  18.517  0.00  0.00    +0.000 S 
ATOM     11  C   UNL     1       2.310   4.742  19.289  0.00  0.00    +0.000 A 
ATOM     12  C   UNL     1       1.701   5.162  20.583  0.00  0.00    +0.000 C 
ATOM     13  N   UNL     1       3.251   5.418  18.663  0.00  0.00    +0.000 NA
ENDBRANCH   7   8
ENDBRANCH   3   7
ENDBRANCH   1   2
BRANCH   1  14
ATOM     14  C   UNL     1       8.251   8.512  17.402  0.00  0.00    +0.000 C 
BRANCH  14  15
ATOM     15  C   UNL     1       8.152   9.827  18.173  0.00  0.00    +0.000 C 
BRANCH  15  16
ATOM     16  O   UNL     1       9.239   9.923  19.098  0.00  0.00    +0.000 OA
BRANCH  16  23
ATOM     17  C   UNL     1      12.150  13.247  16.844  0.00  0.00    +0.000 C 
ATOM     18  C   UNL     1      11.401  12.765  18.050  0.00  0.00    +0.000 A 
ATOM     19  C   UNL     1      11.414  13.483  19.247  0.00  0.00    +0.000 A 
ATOM     20  C   UNL     1      10.703  13.017  20.354  0.00  0.00    +0.000 A 
ATOM     21  C   UNL     1       9.971  11.822  20.285  0.00  0.00    +0.000 A 
ATOM     22  C   UNL     1       9.203  11.349  21.487  0.00  0.00    +0.000 C 
ATOM     23  C   UNL     1       9.960  11.090  19.085  0.00  0.00    +0.000 A 
ATOM     24  C   UNL     1      10.671  11.571  17.979  0.00  0.00    +0.000 A 
ENDBRANCH  16  23
ENDBRANCH  15  16
ENDBRANCH  14  15
ENDBRANCH   1  14
TORSDOF 7
ENDMDL
