MODEL 1
REMARK VINA RESULT:      -7.1      0.000      0.000
REMARK  Name = 
REMARK  10 active torsions:
REMARK  status: ('A' for Active; 'I' for Inactive)
REMARK    1  A    between atoms: C_1  and  C_2
REMARK    2  A    between atoms: C_7  and  O_8
REMARK    3  A    between atoms: O_8  and  C_9
REMARK    4  A    between atoms: C_9  and  C_10
REMARK    5  A    between atoms: C_18  and  C_19
REMARK    6  A    between atoms: C_19  and  C_20
REMARK    7  A    between atoms: C_20  and  N_21
REMARK    8  A    between atoms: C_24  and  N_25
REMARK    9  A    between atoms: N_25  and  C_26
REMARK   10  A    between atoms: N_25  and  C_27
REMARK                            x       y       z     vdW  Elec       q    Type
REMARK                         _______ _______ _______ _____ _____    ______ ____
ROOT
ATOM      1  C   UNL     1       2.269   8.338  18.375  0.00  0.00    +0.000 A 
ATOM      2  S   UNL     1       1.875   9.959  18.003  0.00  0.00    +0.000 S 
ATOM      3  C   UNL     1       1.101  10.218  19.507  0.00  0.00    +0.000 A 
ATOM      4  C   UNL     1       0.486  11.411  19.934  0.00  0.00    +0.000 A 
ATOM      5  C   UNL     1      -0.126  11.452  21.188  0.00  0.00    +0.000 A 
ATOM      6  C   UNL     1      -0.121  10.334  22.001  0.00  0.00    +0.000 A 
ATOM      7  C   UNL     1       0.500   9.155  21.578  0.00  0.00    +0.000 A 
ATOM      8  C   UNL     1       1.134   9.072  20.305  0.00  0.00    +0.000 A 
ATOM      9  C   UNL     1       1.831   7.972  19.644  0.00  0.00    +0.000 A 
ENDROOT
BRANCH   1  10
ATOM     10  C   UNL     1       3.051   7.556  17.353  0.00  0.00    +0.000 C 
BRANCH  10  11
ATOM     11  O   UNL     1       4.398   7.482  17.783  0.00  0.00    +0.000 OA
BRANCH  11  18
ATOM     12  C   UNL     1       7.586   7.582  17.555  0.00  0.00    +0.000 C 
ATOM     13  C   UNL     1       6.629   6.508  17.110  0.00  0.00    +0.000 A 
ATOM     14  C   UNL     1       7.228   5.374  16.513  0.00  0.00    +0.000 A 
ATOM     15  C   UNL     1       6.474   4.291  16.067  0.00  0.00    +0.000 A 
ATOM     16  C   UNL     1       5.096   4.315  16.210  0.00  0.00    +0.000 A 
ATOM     17  C   UNL     1       4.485   5.424  16.794  0.00  0.00    +0.000 A 
ATOM     18  C   UNL     1       5.227   6.528  17.248  0.00  0.00    +0.000 A 
ENDBRANCH  11  18
ENDBRANCH  10  11
ENDBRANCH   1  10
BRANCH   9  19
ATOM     19  C   UNL     1       2.008   6.594  20.260  0.00  0.00    +0.000 C 
BRANCH  19  20
ATOM     20  C   UNL     1       0.693   5.810  20.446  0.00  0.00    +0.000 C 
BRANCH  20  21
ATOM     21  N   UNL     1       0.878   4.357  20.650  0.00  0.00    +0.000 NA
ATOM     22  C   UNL     1       0.850   3.675  19.341  0.00  0.00    +0.000 C 
ATOM     23  C   UNL     1       1.080   2.168  19.471  0.00  0.00    +0.000 C 
ATOM     24  C   UNL     1       2.431   1.863  20.148  0.00  0.00    +0.000 C 
ATOM     25  C   UNL     1       2.360   2.561  21.520  0.00  0.00    +0.000 C 
ATOM     26  C   UNL     1       2.129   4.067  21.369  0.00  0.00    +0.000 C 
BRANCH  24  27
ATOM     27  N   UNL     1       3.609   2.296  19.344  0.00  0.00    +0.000 NA
ATOM     28  C   UNL     1       4.876   2.061  20.046  0.00  0.00    +0.000 C 
ATOM     29  C   UNL     1       3.665   1.642  18.033  0.00  0.00    +0.000 C 
ENDBRANCH  24  27
ENDBRANCH  20  21
ENDBRANCH  19  20
ENDBRANCH   9  19
TORSDOF 7
ENDMDL
MODEL 2
REMARK VINA RESULT:      -7.1      2.115      4.811
REMARK  Name = 
REMARK  10 active torsions:
REMARK  status: ('A' for Active; 'I' for Inactive)
REMARK    1  A    between atoms: C_1  and  C_2
REMARK    2  A    between atoms: C_7  and  O_8
REMARK    3  A    between atoms: O_8  and  C_9
REMARK    4  A    between atoms: C_9  and  C_10
REMARK    5  A    between atoms: C_18  and  C_19
REMARK    6  A    between atoms: C_19  and  C_20
REMARK    7  A    between atoms: C_20  and  N_21
REMARK    8  A    between atoms: C_24  and  N_25
REMARK    9  A    between atoms: N_25  and  C_26
REMARK   10  A    between atoms: N_25  and  C_27
REMARK                            x       y       z     vdW  Elec       q    Type
REMARK                         _______ _______ _______ _____ _____    ______ ____
ROOT
ATOM      1  C   UNL     1       1.755   7.041  20.185  0.00  0.00    +0.000 A 
ATOM      2  S   UNL     1       1.060   8.133  21.302  0.00  0.00    +0.000 S 
ATOM      3  C   UNL     1       1.185   9.460  20.231  0.00  0.00    +0.000 A 
ATOM      4  C   UNL     1       0.783  10.785  20.494  0.00  0.00    +0.000 A 
ATOM      5  C   UNL     1       0.976  11.763  19.517  0.00  0.00    +0.000 A 
ATOM      6  C   UNL     1       1.549  11.431  18.303  0.00  0.00    +0.000 A 
ATOM      7  C   UNL     1       1.935  10.113  18.041  0.00  0.00    +0.000 A 
ATOM      8  C   UNL     1       1.758   9.086  19.013  0.00  0.00    +0.000 A 
ATOM      9  C   UNL     1       2.081   7.662  18.983  0.00  0.00    +0.000 A 
ENDROOT
BRANCH   1  10
ATOM     10  C   UNL     1       1.876   5.599  20.599  0.00  0.00    +0.000 C 
BRANCH  10  11
ATOM     11  O   UNL     1       3.108   5.097  20.112  0.00  0.00    +0.000 OA
BRANCH  11  18
ATOM     12  C   UNL     1       1.125   3.893  17.912  0.00  0.00    +0.000 C 
ATOM     13  C   UNL     1       2.315   3.255  18.579  0.00  0.00    +0.000 A 
ATOM     14  C   UNL     1       2.603   1.933  18.164  0.00  0.00    +0.000 A 
ATOM     15  C   UNL     1       3.683   1.219  18.678  0.00  0.00    +0.000 A 
ATOM     16  C   UNL     1       4.506   1.811  19.622  0.00  0.00    +0.000 A 
ATOM     17  C   UNL     1       4.239   3.112  20.046  0.00  0.00    +0.000 A 
ATOM     18  C   UNL     1       3.152   3.849  19.542  0.00  0.00    +0.000 A 
ENDBRANCH  11  18
ENDBRANCH  10  11
ENDBRANCH   1  10
BRANCH   9  19
ATOM     19  C   UNL     1       2.733   6.970  17.797  0.00  0.00    +0.000 C 
BRANCH  19  20
ATOM     20  C   UNL     1       4.225   7.311  17.606  0.00  0.00    +0.000 C 
BRANCH  20  21
ATOM     21  N   UNL     1       5.101   6.129  17.454  0.00  0.00    +0.000 NA
ATOM     22  C   UNL     1       4.414   5.117  16.629  0.00  0.00    +0.000 C 
ATOM     23  C   UNL     1       5.281   3.879  16.392  0.00  0.00    +0.000 C 
ATOM     24  C   UNL     1       6.609   4.248  15.702  0.00  0.00    +0.000 C 
ATOM     25  C   UNL     1       7.285   5.262  16.646  0.00  0.00    +0.000 C 
ATOM     26  C   UNL     1       6.402   6.492  16.870  0.00  0.00    +0.000 C 
BRANCH  24  27
ATOM     27  N   UNL     1       6.432   4.780  14.321  0.00  0.00    +0.000 NA
ATOM     28  C   UNL     1       7.706   5.185  13.715  0.00  0.00    +0.000 C 
ATOM     29  C   UNL     1       5.767   3.823  13.431  0.00  0.00    +0.000 C 
ENDBRANCH  24  27
ENDBRANCH  20  21
ENDBRANCH  19  20
ENDBRANCH   9  19
TORSDOF 7
ENDMDL
MODEL 3
REMARK VINA RESULT:      -7.0      2.081      4.483
REMARK  Name = 
REMARK  10 active torsions:
REMARK  status: ('A' for Active; 'I' for Inactive)
REMARK    1  A    between atoms: C_1  and  C_2
REMARK    2  A    between atoms: C_7  and  O_8
REMARK    3  A    between atoms: O_8  and  C_9
REMARK    4  A    between atoms: C_9  and  C_10
REMARK    5  A    between atoms: C_18  and  C_19
REMARK    6  A    between atoms: C_19  and  C_20
REMARK    7  A    between atoms: C_20  and  N_21
REMARK    8  A    between atoms: C_24  and  N_25
REMARK    9  A    between atoms: N_25  and  C_26
REMARK   10  A    between atoms: N_25  and  C_27
REMARK                            x       y       z     vdW  Elec       q    Type
REMARK                         _______ _______ _______ _____ _____    ______ ____
ROOT
ATOM      1  C   UNL     1       1.575   7.871  20.522  0.00  0.00    +0.000 A 
ATOM      2  S   UNL     1       0.921   8.737  21.843  0.00  0.00    +0.000 S 
ATOM      3  C   UNL     1       0.555  10.108  20.887  0.00  0.00    +0.000 A 
ATOM      4  C   UNL     1      -0.041  11.303  21.337  0.00  0.00    +0.000 A 
ATOM      5  C   UNL     1      -0.252  12.343  20.430  0.00  0.00    +0.000 A 
ATOM      6  C   UNL     1       0.113  12.196  19.105  0.00  0.00    +0.000 A 
ATOM      7  C   UNL     1       0.694  11.003  18.660  0.00  0.00    +0.000 A 
ATOM      8  C   UNL     1       0.928   9.919  19.555  0.00  0.00    +0.000 A 
ATOM      9  C   UNL     1       1.517   8.600  19.339  0.00  0.00    +0.000 A 
ENDROOT
BRANCH   1  10
ATOM     10  C   UNL     1       2.065   6.470  20.778  0.00  0.00    +0.000 C 
BRANCH  10  11
ATOM     11  O   UNL     1       1.072   5.563  20.335  0.00  0.00    +0.000 OA
BRANCH  11  18
ATOM     12  C   UNL     1       1.873   2.844  21.815  0.00  0.00    +0.000 C 
ATOM     13  C   UNL     1       1.819   3.151  20.342  0.00  0.00    +0.000 A 
ATOM     14  C   UNL     1       2.164   2.076  19.488  0.00  0.00    +0.000 A 
ATOM     15  C   UNL     1       2.144   2.202  18.101  0.00  0.00    +0.000 A 
ATOM     16  C   UNL     1       1.776   3.410  17.531  0.00  0.00    +0.000 A 
ATOM     17  C   UNL     1       1.433   4.482  18.354  0.00  0.00    +0.000 A 
ATOM     18  C   UNL     1       1.450   4.377  19.756  0.00  0.00    +0.000 A 
ENDBRANCH  11  18
ENDBRANCH  10  11
ENDBRANCH   1  10
BRANCH   9  19
ATOM     19  C   UNL     1       2.036   8.118  17.994  0.00  0.00    +0.000 C 
BRANCH  19  20
ATOM     20  C   UNL     1       3.546   7.804  17.974  0.00  0.00    +0.000 C 
BRANCH  20  21
ATOM     21  N   UNL     1       3.864   6.377  17.746  0.00  0.00    +0.000 NA
ATOM     22  C   UNL     1       4.383   6.208  16.374  0.00  0.00    +0.000 C 
ATOM     23  C   UNL     1       4.776   4.759  16.080  0.00  0.00    +0.000 C 
ATOM     24  C   UNL     1       5.846   4.256  17.071  0.00  0.00    +0.000 C 
ATOM     25  C   UNL     1       5.209   4.416  18.466  0.00  0.00    +0.000 C 
ATOM     26  C   UNL     1       4.823   5.871  18.740  0.00  0.00    +0.000 C 
BRANCH  24  27
ATOM     27  N   UNL     1       7.149   4.969  16.949  0.00  0.00    +0.000 NA
ATOM     28  C   UNL     1       8.157   4.445  17.878  0.00  0.00    +0.000 C 
ATOM     29  C   UNL     1       7.690   4.922  15.587  0.00  0.00    +0.000 C 
ENDBRANCH  24  27
ENDBRANCH  20  21
ENDBRANCH  19  20
ENDBRANCH   9  19
TORSDOF 7
ENDMDL
MODEL 4
REMARK VINA RESULT:      -6.9      3.479      7.521
REMARK  Name = 
REMARK  10 active torsions:
REMARK  status: ('A' for Active; 'I' for Inactive)
REMARK    1  A    between atoms: C_1  and  C_2
REMARK    2  A    between atoms: C_7  and  O_8
REMARK    3  A    between atoms: O_8  and  C_9
REMARK    4  A    between atoms: C_9  and  C_10
REMARK    5  A    between atoms: C_18  and  C_19
REMARK    6  A    between atoms: C_19  and  C_20
REMARK    7  A    between atoms: C_20  and  N_21
REMARK    8  A    between atoms: C_24  and  N_25
REMARK    9  A    between atoms: N_25  and  C_26
REMARK   10  A    between atoms: N_25  and  C_27
REMARK                            x       y       z     vdW  Elec       q    Type
REMARK                         _______ _______ _______ _____ _____    ______ ____
ROOT
ATOM      1  C   UNL     1       1.609   8.804  19.466  0.00  0.00    +0.000 A 
ATOM      2  S   UNL     1       1.351   7.961  20.931  0.00  0.00    +0.000 S 
ATOM      3  C   UNL     1       0.392   9.213  21.594  0.00  0.00    +0.000 A 
ATOM      4  C   UNL     1      -0.207   9.218  22.870  0.00  0.00    +0.000 A 
ATOM      5  C   UNL     1      -0.943  10.332  23.273  0.00  0.00    +0.000 A 
ATOM      6  C   UNL     1      -1.088  11.415  22.425  0.00  0.00    +0.000 A 
ATOM      7  C   UNL     1      -0.502  11.402  21.156  0.00  0.00    +0.000 A 
ATOM      8  C   UNL     1       0.260  10.284  20.707  0.00  0.00    +0.000 A 
ATOM      9  C   UNL     1       0.965  10.037  19.453  0.00  0.00    +0.000 A 
ENDROOT
BRANCH   1  10
ATOM     10  C   UNL     1       2.419   8.118  18.398  0.00  0.00    +0.000 C 
BRANCH  10  11
ATOM     11  O   UNL     1       2.127   6.733  18.437  0.00  0.00    +0.000 OA
BRANCH  11  18
ATOM     12  C   UNL     1       1.719   3.584  18.062  0.00  0.00    +0.000 C 
ATOM     13  C   UNL     1       2.880   4.452  17.656  0.00  0.00    +0.000 A 
ATOM     14  C   UNL     1       3.941   3.779  17.005  0.00  0.00    +0.000 A 
ATOM     15  C   UNL     1       5.074   4.451  16.555  0.00  0.00    +0.000 A 
ATOM     16  C   UNL     1       5.176   5.820  16.743  0.00  0.00    +0.000 A 
ATOM     17  C   UNL     1       4.143   6.503  17.384  0.00  0.00    +0.000 A 
ATOM     18  C   UNL     1       2.992   5.843  17.849  0.00  0.00    +0.000 A 
ENDBRANCH  11  18
ENDBRANCH  10  11
ENDBRANCH   1  10
BRANCH   9  19
ATOM     19  C   UNL     1       1.017  11.032  18.305  0.00  0.00    +0.000 C 
BRANCH  19  20
ATOM     20  C   UNL     1       2.234  11.979  18.342  0.00  0.00    +0.000 C 
BRANCH  20  21
ATOM     21  N   UNL     1       1.884  13.409  18.487  0.00  0.00    +0.000 NA
ATOM     22  C   UNL     1       0.416  13.557  18.440  0.00  0.00    +0.000 C 
ATOM     23  C   UNL     1      -0.023  15.010  18.629  0.00  0.00    +0.000 C 
ATOM     24  C   UNL     1       0.480  15.579  19.971  0.00  0.00    +0.000 C 
ATOM     25  C   UNL     1       2.014  15.436  19.919  0.00  0.00    +0.000 C 
ATOM     26  C   UNL     1       2.432  13.976  19.729  0.00  0.00    +0.000 C 
BRANCH  24  27
ATOM     27  N   UNL     1      -0.119  14.910  21.160  0.00  0.00    +0.000 NA
ATOM     28  C   UNL     1       0.400  15.452  22.422  0.00  0.00    +0.000 C 
ATOM     29  C   UNL     1      -1.583  14.994  21.175  0.00  0.00    +0.000 C 
ENDBRANCH  24  27
ENDBRANCH  20  21
ENDBRANCH  19  20
ENDBRANCH   9  19
TORSDOF 7
ENDMDL
MODEL 5
REMARK VINA RESULT:      -6.9      3.958      7.829
REMARK  Name = 
REMARK  10 active torsions:
REMARK  status: ('A' for Active; 'I' for Inactive)
REMARK    1  A    between atoms: C_1  and  C_2
REMARK    2  A    between atoms: C_7  and  O_8
REMARK    3  A    between atoms: O_8  and  C_9
REMARK    4  A    between atoms: C_9  and  C_10
REMARK    5  A    between atoms: C_18  and  C_19
REMARK    6  A    between atoms: C_19  and  C_20
REMARK    7  A    between atoms: C_20  and  N_21
REMARK    8  A    between atoms: C_24  and  N_25
REMARK    9  A    between atoms: N_25  and  C_26
REMARK   10  A    between atoms: N_25  and  C_27
REMARK                            x       y       z     vdW  Elec       q    Type
REMARK                         _______ _______ _______ _____ _____    ______ ____
ROOT
ATOM      1  C   UNL     1       1.498   8.879  19.491  0.00  0.00    +0.000 A 
ATOM      2  S   UNL     1       1.195   8.046  20.953  0.00  0.00    +0.000 S 
ATOM      3  C   UNL     1       0.279   9.333  21.609  0.00  0.00    +0.000 A 
ATOM      4  C   UNL     1      -0.331   9.361  22.879  0.00  0.00    +0.000 A 
ATOM      5  C   UNL     1      -1.027  10.503  23.276  0.00  0.00    +0.000 A 
ATOM      6  C   UNL     1      -1.122  11.591  22.428  0.00  0.00    +0.000 A 
ATOM      7  C   UNL     1      -0.526  11.555  21.164  0.00  0.00    +0.000 A 
ATOM      8  C   UNL     1       0.196  10.409  20.722  0.00  0.00    +0.000 A 
ATOM      9  C   UNL     1       0.902  10.136  19.473  0.00  0.00    +0.000 A 
ENDROOT
BRANCH   1  10
ATOM     10  C   UNL     1       2.291   8.163  18.430  0.00  0.00    +0.000 C 
BRANCH  10  11
ATOM     11  O   UNL     1       2.838   6.987  18.999  0.00  0.00    +0.000 OA
BRANCH  11  18
ATOM     12  C   UNL     1       1.600   4.078  18.520  0.00  0.00    +0.000 C 
ATOM     13  C   UNL     1       2.834   4.702  17.923  0.00  0.00    +0.000 A 
ATOM     14  C   UNL     1       3.543   3.887  17.010  0.00  0.00    +0.000 A 
ATOM     15  C   UNL     1       4.693   4.333  16.363  0.00  0.00    +0.000 A 
ATOM     16  C   UNL     1       5.164   5.612  16.614  0.00  0.00    +0.000 A 
ATOM     17  C   UNL     1       4.481   6.431  17.511  0.00  0.00    +0.000 A 
ATOM     18  C   UNL     1       3.320   5.999  18.177  0.00  0.00    +0.000 A 
ENDBRANCH  11  18
ENDBRANCH  10  11
ENDBRANCH   1  10
BRANCH   9  19
ATOM     19  C   UNL     1       1.003  11.129  18.327  0.00  0.00    +0.000 C 
BRANCH  19  20
ATOM     20  C   UNL     1       2.272  12.005  18.357  0.00  0.00    +0.000 C 
BRANCH  20  21
ATOM     21  N   UNL     1       2.026  13.436  18.073  0.00  0.00    +0.000 NA
ATOM     22  C   UNL     1       0.984  13.941  18.988  0.00  0.00    +0.000 C 
ATOM     23  C   UNL     1       0.707  15.431  18.781  0.00  0.00    +0.000 C 
ATOM     24  C   UNL     1       1.983  16.273  18.986  0.00  0.00    +0.000 C 
ATOM     25  C   UNL     1       2.997  15.721  17.965  0.00  0.00    +0.000 C 
ATOM     26  C   UNL     1       3.259  14.230  18.188  0.00  0.00    +0.000 C 
BRANCH  24  27
ATOM     27  N   UNL     1       2.499  16.237  20.384  0.00  0.00    +0.000 NA
ATOM     28  C   UNL     1       3.728  17.024  20.542  0.00  0.00    +0.000 C 
ATOM     29  C   UNL     1       1.510  16.703  21.360  0.00  0.00    +0.000 C 
ENDBRANCH  24  27
ENDBRANCH  20  21
ENDBRANCH  19  20
ENDBRANCH   9  19
TORSDOF 7
ENDMDL
MODEL 6
REMARK VINA RESULT:      -6.9      2.118      4.942
REMARK  Name = 
REMARK  10 active torsions:
REMARK  status: ('A' for Active; 'I' for Inactive)
REMARK    1  A    between atoms: C_1  and  C_2
REMARK    2  A    between atoms: C_7  and  O_8
REMARK    3  A    between atoms: O_8  and  C_9
REMARK    4  A    between atoms: C_9  and  C_10
REMARK    5  A    between atoms: C_18  and  C_19
REMARK    6  A    between atoms: C_19  and  C_20
REMARK    7  A    between atoms: C_20  and  N_21
REMARK    8  A    between atoms: C_24  and  N_25
REMARK    9  A    between atoms: N_25  and  C_26
REMARK   10  A    between atoms: N_25  and  C_27
REMARK                            x       y       z     vdW  Elec       q    Type
REMARK                         _______ _______ _______ _____ _____    ______ ____
ROOT
ATOM      1  C   UNL     1       1.830   7.608  20.349  0.00  0.00    +0.000 A 
ATOM      2  S   UNL     1       1.090   8.568  21.554  0.00  0.00    +0.000 S 
ATOM      3  C   UNL     1       0.787   9.861  20.476  0.00  0.00    +0.000 A 
ATOM      4  C   UNL     1       0.164  11.084  20.794  0.00  0.00    +0.000 A 
ATOM      5  C   UNL     1       0.012  12.051  19.800  0.00  0.00    +0.000 A 
ATOM      6  C   UNL     1       0.464  11.807  18.516  0.00  0.00    +0.000 A 
ATOM      7  C   UNL     1       1.072  10.587  18.202  0.00  0.00    +0.000 A 
ATOM      8  C   UNL     1       1.248   9.575  19.189  0.00  0.00    +0.000 A 
ATOM      9  C   UNL     1       1.849   8.246  19.112  0.00  0.00    +0.000 A 
ENDROOT
BRANCH   1  10
ATOM     10  C   UNL     1       2.302   6.233  20.741  0.00  0.00    +0.000 C 
BRANCH  10  11
ATOM     11  O   UNL     1       1.237   5.321  20.537  0.00  0.00    +0.000 OA
BRANCH  11  18
ATOM     12  C   UNL     1       1.716   2.474  21.912  0.00  0.00    +0.000 C 
ATOM     13  C   UNL     1       1.707   2.842  20.451  0.00  0.00    +0.000 A 
ATOM     14  C   UNL     1       1.933   1.769  19.557  0.00  0.00    +0.000 A 
ATOM     15  C   UNL     1       1.937   1.950  18.176  0.00  0.00    +0.000 A 
ATOM     16  C   UNL     1       1.711   3.213  17.652  0.00  0.00    +0.000 A 
ATOM     17  C   UNL     1       1.487   4.284  18.516  0.00  0.00    +0.000 A 
ATOM     18  C   UNL     1       1.483   4.124  19.913  0.00  0.00    +0.000 A 
ENDBRANCH  11  18
ENDBRANCH  10  11
ENDBRANCH   1  10
BRANCH   9  19
ATOM     19  C   UNL     1       2.455   7.667  17.845  0.00  0.00    +0.000 C 
BRANCH  19  20
ATOM     20  C   UNL     1       3.950   7.993  17.651  0.00  0.00    +0.000 C 
BRANCH  20  21
ATOM     21  N   UNL     1       4.838   6.810  17.696  0.00  0.00    +0.000 NA
ATOM     22  C   UNL     1       4.173   5.677  17.021  0.00  0.00    +0.000 C 
ATOM     23  C   UNL     1       5.054   4.427  16.990  0.00  0.00    +0.000 C 
ATOM     24  C   UNL     1       6.393   4.701  16.275  0.00  0.00    +0.000 C 
ATOM     25  C   UNL     1       7.043   5.853  17.067  0.00  0.00    +0.000 C 
ATOM     26  C   UNL     1       6.147   7.093  17.087  0.00  0.00    +0.000 C 
BRANCH  24  27
ATOM     27  N   UNL     1       6.238   5.016  14.827  0.00  0.00    +0.000 NA
ATOM     28  C   UNL     1       7.531   5.202  14.158  0.00  0.00    +0.000 C 
ATOM     29  C   UNL     1       5.475   3.991  14.107  0.00  0.00    +0.000 C 
ENDBRANCH  24  27
ENDBRANCH  20  21
ENDBRANCH  19  20
ENDBRANCH   9  19
TORSDOF 7
ENDMDL
MODEL 7
REMARK VINA RESULT:      -6.9      4.907     10.300
REMARK  Name = 
REMARK  10 active torsions:
REMARK  status: ('A' for Active; 'I' for Inactive)
REMARK    1  A    between atoms: C_1  and  C_2
REMARK    2  A    between atoms: C_7  and  O_8
REMARK    3  A    between atoms: O_8  and  C_9
REMARK    4  A    between atoms: C_9  and  C_10
REMARK    5  A    between atoms: C_18  and  C_19
REMARK    6  A    between atoms: C_19  and  C_20
REMARK    7  A    between atoms: C_20  and  N_21
REMARK    8  A    between atoms: C_24  and  N_25
REMARK    9  A    between atoms: N_25  and  C_26
REMARK   10  A    between atoms: N_25  and  C_27
REMARK                            x       y       z     vdW  Elec       q    Type
REMARK                         _______ _______ _______ _____ _____    ______ ____
ROOT
ATOM      1  C   UNL     1      -0.311  10.102  21.652  0.00  0.00    +0.000 A 
ATOM      2  S   UNL     1       0.663   8.737  21.985  0.00  0.00    +0.000 S 
ATOM      3  C   UNL     1       1.224   8.623  20.372  0.00  0.00    +0.000 A 
ATOM      4  C   UNL     1       2.120   7.660  19.867  0.00  0.00    +0.000 A 
ATOM      5  C   UNL     1       2.461   7.690  18.514  0.00  0.00    +0.000 A 
ATOM      6  C   UNL     1       1.929   8.659  17.683  0.00  0.00    +0.000 A 
ATOM      7  C   UNL     1       1.048   9.619  18.191  0.00  0.00    +0.000 A 
ATOM      8  C   UNL     1       0.673   9.622  19.566  0.00  0.00    +0.000 A 
ATOM      9  C   UNL     1      -0.218  10.497  20.321  0.00  0.00    +0.000 A 
ENDROOT
BRANCH   1  10
ATOM     10  C   UNL     1      -1.074  10.712  22.797  0.00  0.00    +0.000 C 
BRANCH  10  11
ATOM     11  O   UNL     1      -0.536  11.996  23.058  0.00  0.00    +0.000 OA
BRANCH  11  18
ATOM     12  C   UNL     1       0.087  15.052  22.352  0.00  0.00    +0.000 C 
ATOM     13  C   UNL     1      -1.173  14.434  22.900  0.00  0.00    +0.000 A 
ATOM     14  C   UNL     1      -2.240  15.336  23.125  0.00  0.00    +0.000 A 
ATOM     15  C   UNL     1      -3.473  14.911  23.612  0.00  0.00    +0.000 A 
ATOM     16  C   UNL     1      -3.672  13.567  23.885  0.00  0.00    +0.000 A 
ATOM     17  C   UNL     1      -2.634  12.662  23.672  0.00  0.00    +0.000 A 
ATOM     18  C   UNL     1      -1.380  13.071  23.184  0.00  0.00    +0.000 A 
ENDBRANCH  11  18
ENDBRANCH  10  11
ENDBRANCH   1  10
BRANCH   9  19
ATOM     19  C   UNL     1      -0.977  11.662  19.706  0.00  0.00    +0.000 C 
BRANCH  19  20
ATOM     20  C   UNL     1      -2.161  11.244  18.811  0.00  0.00    +0.000 C 
BRANCH  20  21
ATOM     21  N   UNL     1      -3.314  12.171  18.861  0.00  0.00    +0.000 NA
ATOM     22  C   UNL     1      -4.523  11.469  18.387  0.00  0.00    +0.000 C 
ATOM     23  C   UNL     1      -5.768  12.355  18.453  0.00  0.00    +0.000 C 
ATOM     24  C   UNL     1      -6.027  12.854  19.888  0.00  0.00    +0.000 C 
ATOM     25  C   UNL     1      -4.747  13.616  20.287  0.00  0.00    +0.000 C 
ATOM     26  C   UNL     1      -3.514  12.712  20.214  0.00  0.00    +0.000 C 
BRANCH  24  27
ATOM     27  N   UNL     1      -6.365  11.762  20.844  0.00  0.00    +0.000 NA
ATOM     28  C   UNL     1      -6.741  12.277  22.166  0.00  0.00    +0.000 C 
ATOM     29  C   UNL     1      -7.441  10.896  20.349  0.00  0.00    +0.000 C 
ENDBRANCH  24  27
ENDBRANCH  20  21
ENDBRANCH  19  20
ENDBRANCH   9  19
TORSDOF 7
ENDMDL
MODEL 8
REMARK VINA RESULT:      -6.9      3.466      7.594
REMARK  Name = 
REMARK  10 active torsions:
REMARK  status: ('A' for Active; 'I' for Inactive)
REMARK    1  A    between atoms: C_1  and  C_2
REMARK    2  A    between atoms: C_7  and  O_8
REMARK    3  A    between atoms: O_8  and  C_9
REMARK    4  A    between atoms: C_9  and  C_10
REMARK    5  A    between atoms: C_18  and  C_19
REMARK    6  A    between atoms: C_19  and  C_20
REMARK    7  A    between atoms: C_20  and  N_21
REMARK    8  A    between atoms: C_24  and  N_25
REMARK    9  A    between atoms: N_25  and  C_26
REMARK   10  A    between atoms: N_25  and  C_27
REMARK                            x       y       z     vdW  Elec       q    Type
REMARK                         _______ _______ _______ _____ _____    ______ ____
ROOT
ATOM      1  C   UNL     1       1.539   8.600  19.693  0.00  0.00    +0.000 A 
ATOM      2  S   UNL     1       1.238   7.914  21.230  0.00  0.00    +0.000 S 
ATOM      3  C   UNL     1       0.299   9.247  21.748  0.00  0.00    +0.000 A 
ATOM      4  C   UNL     1      -0.320   9.393  23.005  0.00  0.00    +0.000 A 
ATOM      5  C   UNL     1      -1.036  10.558  23.282  0.00  0.00    +0.000 A 
ATOM      6  C   UNL     1      -1.140  11.554  22.328  0.00  0.00    +0.000 A 
ATOM      7  C   UNL     1      -0.534  11.401  21.077  0.00  0.00    +0.000 A 
ATOM      8  C   UNL     1       0.207  10.227  20.757  0.00  0.00    +0.000 A 
ATOM      9  C   UNL     1       0.926   9.840  19.546  0.00  0.00    +0.000 A 
ENDROOT
BRANCH   1  10
ATOM     10  C   UNL     1       2.350   7.793  18.714  0.00  0.00    +0.000 C 
BRANCH  10  11
ATOM     11  O   UNL     1       2.875   6.666  19.392  0.00  0.00    +0.000 OA
BRANCH  11  18
ATOM     12  C   UNL     1       0.953   4.281  20.311  0.00  0.00    +0.000 C 
ATOM     13  C   UNL     1       1.943   4.329  19.177  0.00  0.00    +0.000 A 
ATOM     14  C   UNL     1       2.028   3.150  18.399  0.00  0.00    +0.000 A 
ATOM     15  C   UNL     1       2.886   3.049  17.307  0.00  0.00    +0.000 A 
ATOM     16  C   UNL     1       3.682   4.129  16.962  0.00  0.00    +0.000 A 
ATOM     17  C   UNL     1       3.615   5.300  17.716  0.00  0.00    +0.000 A 
ATOM     18  C   UNL     1       2.759   5.421  18.824  0.00  0.00    +0.000 A 
ENDBRANCH  11  18
ENDBRANCH  10  11
ENDBRANCH   1  10
BRANCH   9  19
ATOM     19  C   UNL     1       1.020  10.714  18.306  0.00  0.00    +0.000 C 
BRANCH  19  20
ATOM     20  C   UNL     1       2.233  11.667  18.293  0.00  0.00    +0.000 C 
BRANCH  20  21
ATOM     21  N   UNL     1       1.874  13.102  18.296  0.00  0.00    +0.000 NA
ATOM     22  C   UNL     1       0.419  13.240  18.509  0.00  0.00    +0.000 C 
ATOM     23  C   UNL     1      -0.020  14.704  18.568  0.00  0.00    +0.000 C 
ATOM     24  C   UNL     1       0.710  15.464  19.694  0.00  0.00    +0.000 C 
ATOM     25  C   UNL     1       2.210  15.318  19.371  0.00  0.00    +0.000 C 
ATOM     26  C   UNL     1       2.629  13.847  19.317  0.00  0.00    +0.000 C 
BRANCH  24  27
ATOM     27  N   UNL     1       0.366  14.975  21.059  0.00  0.00    +0.000 NA
ATOM     28  C   UNL     1       1.142  15.653  22.103  0.00  0.00    +0.000 C 
ATOM     29  C   UNL     1      -1.062  15.116  21.363  0.00  0.00    +0.000 C 
ENDBRANCH  24  27
ENDBRANCH  20  21
ENDBRANCH  19  20
ENDBRANCH   9  19
TORSDOF 7
ENDMDL
MODEL 9
REMARK VINA RESULT:      -6.9      4.067      7.842
REMARK  Name = 
REMARK  10 active torsions:
REMARK  status: ('A' for Active; 'I' for Inactive)
REMARK    1  A    between atoms: C_1  and  C_2
REMARK    2  A    between atoms: C_7  and  O_8
REMARK    3  A    between atoms: O_8  and  C_9
REMARK    4  A    between atoms: C_9  and  C_10
REMARK    5  A    between atoms: C_18  and  C_19
REMARK    6  A    between atoms: C_19  and  C_20
REMARK    7  A    between atoms: C_20  and  N_21
REMARK    8  A    between atoms: C_24  and  N_25
REMARK    9  A    between atoms: N_25  and  C_26
REMARK   10  A    between atoms: N_25  and  C_27
REMARK                            x       y       z     vdW  Elec       q    Type
REMARK                         _______ _______ _______ _____ _____    ______ ____
ROOT
ATOM      1  C   UNL     1       1.478   8.923  19.375  0.00  0.00    +0.000 A 
ATOM      2  S   UNL     1       1.173   8.026  20.798  0.00  0.00    +0.000 S 
ATOM      3  C   UNL     1       0.301   9.302  21.532  0.00  0.00    +0.000 A 
ATOM      4  C   UNL     1      -0.290   9.281  22.811  0.00  0.00    +0.000 A 
ATOM      5  C   UNL     1      -0.950  10.419  23.275  0.00  0.00    +0.000 A 
ATOM      6  C   UNL     1      -1.027  11.551  22.484  0.00  0.00    +0.000 A 
ATOM      7  C   UNL     1      -0.449  11.563  21.211  0.00  0.00    +0.000 A 
ATOM      8  C   UNL     1       0.235  10.422  20.701  0.00  0.00    +0.000 A 
ATOM      9  C   UNL     1       0.916  10.195  19.430  0.00  0.00    +0.000 A 
ENDROOT
BRANCH   1  10
ATOM     10  C   UNL     1       2.237   8.241  18.268  0.00  0.00    +0.000 C 
BRANCH  10  11
ATOM     11  O   UNL     1       3.063   7.243  18.841  0.00  0.00    +0.000 OA
BRANCH  11  18
ATOM     12  C   UNL     1       5.663   6.249  17.268  0.00  0.00    +0.000 C 
ATOM     13  C   UNL     1       4.344   5.552  17.473  0.00  0.00    +0.000 A 
ATOM     14  C   UNL     1       4.243   4.265  16.892  0.00  0.00    +0.000 A 
ATOM     15  C   UNL     1       3.092   3.491  17.011  0.00  0.00    +0.000 A 
ATOM     16  C   UNL     1       2.007   3.985  17.718  0.00  0.00    +0.000 A 
ATOM     17  C   UNL     1       2.084   5.251  18.297  0.00  0.00    +0.000 A 
ATOM     18  C   UNL     1       3.236   6.050  18.186  0.00  0.00    +0.000 A 
ENDBRANCH  11  18
ENDBRANCH  10  11
ENDBRANCH   1  10
BRANCH   9  19
ATOM     19  C   UNL     1       1.028  11.241  18.333  0.00  0.00    +0.000 C 
BRANCH  19  20
ATOM     20  C   UNL     1       2.270  12.148  18.446  0.00  0.00    +0.000 C 
BRANCH  20  21
ATOM     21  N   UNL     1       2.016  13.567  18.116  0.00  0.00    +0.000 NA
ATOM     22  C   UNL     1       1.035  14.120  19.071  0.00  0.00    +0.000 C 
ATOM     23  C   UNL     1       0.755  15.602  18.816  0.00  0.00    +0.000 C 
ATOM     24  C   UNL     1       2.046  16.441  18.904  0.00  0.00    +0.000 C 
ATOM     25  C   UNL     1       2.991  15.837  17.848  0.00  0.00    +0.000 C 
ATOM     26  C   UNL     1       3.258  14.354  18.119  0.00  0.00    +0.000 C 
BRANCH  24  27
ATOM     27  N   UNL     1       2.648  16.462  20.268  0.00  0.00    +0.000 NA
ATOM     28  C   UNL     1       3.889  17.243  20.315  0.00  0.00    +0.000 C 
ATOM     29  C   UNL     1       1.723  16.979  21.282  0.00  0.00    +0.000 C 
ENDBRANCH  24  27
ENDBRANCH  20  21
ENDBRANCH  19  20
ENDBRANCH   9  19
TORSDOF 7
ENDMDL
