MODEL 1
REMARK VINA RESULT:      -7.5      0.000      0.000
REMARK  Name = 
REMARK  11 active torsions:
REMARK  status: ('A' for Active; 'I' for Inactive)
REMARK    1  A    between atoms: C_1  and  C_2
REMARK    2  A    between atoms: C_2  and  C_3
REMARK    3  A    between atoms: C_3  and  C_4
REMARK    4  A    between atoms: C_3  and  C_5
REMARK    5  A    between atoms: C_5  and  O_6
REMARK    6  A    between atoms: C_5  and  C_7
REMARK    7  A    between atoms: N_9  and  C_10
REMARK    8  A    between atoms: C_14  and  C_15
REMARK    9  A    between atoms: C_16  and  O_17
REMARK   10  A    between atoms: C_18  and  C_19
REMARK   11  A    between atoms: C_18  and  C_20
REMARK                            x       y       z     vdW  Elec       q    Type
REMARK                         _______ _______ _______ _____ _____    ______ ____
ROOT
ATOM      1  C   UNL     1       2.807   5.226  18.472  0.00  0.00    +0.000 C 
ATOM      2  C   UNL     1       3.061   4.751  19.930  0.00  0.00    +0.000 C 
ATOM      3  C   UNL     1       1.828   5.231  20.750  0.00  0.00    +0.000 C 
ATOM      4  C   UNL     1       0.724   4.241  20.339  0.00  0.00    +0.000 C 
ATOM      5  C   UNL     1       1.443   3.345  19.289  0.00  0.00    +0.000 C 
ATOM      6  C   UNL     1       0.705   2.041  19.017  0.00  0.00    +0.000 C 
ATOM      7  C   UNL     1       1.672   4.249  18.018  0.00  0.00    +0.000 C 
ATOM      8  C   UNL     1       2.871   3.206  19.901  0.00  0.00    +0.000 C 
ATOM      9  C   UNL     1       2.951   2.576  21.315  0.00  0.00    +0.000 C 
ATOM     10  C   UNL     1       3.853   2.392  19.045  0.00  0.00    +0.000 C 
ENDROOT
BRANCH   1  13
ATOM     11  C   UNL     1       4.573   6.428  17.166  0.00  0.00    +0.000 C 
ATOM     12  O   UNL     1       4.078   7.534  17.364  0.00  0.00    +0.000 OA
ATOM     13  N   UNL     1       4.011   5.264  17.646  0.00  0.00    +0.000 N 
ATOM     14  H   UNL     1       4.454   4.403  17.329  0.00  0.00    +0.000 HD
BRANCH  11  15
ATOM     15  C   UNL     1       5.927   6.227  16.416  0.00  0.00    +0.000 C 
BRANCH  15  16
ATOM     16  C   UNL     1       6.426   4.758  16.497  0.00  0.00    +0.000 C 
ATOM     17  C   UNL     1       7.599   4.623  17.486  0.00  0.00    +0.000 C 
BRANCH  16  19
ATOM     18  C   UNL     1       5.649   4.217  14.105  0.00  0.00    +0.000 C 
ATOM     19  C   UNL     1       6.808   4.215  15.100  0.00  0.00    +0.000 C 
ENDBRANCH  16  19
ENDBRANCH  15  16
BRANCH  15  20
ATOM     20  O   UNL     1       6.935   7.141  16.855  0.00  0.00    +0.000 OA
ATOM     21  H   UNL     1       7.786   6.693  16.759  0.00  0.00    +0.000 HD
ENDBRANCH  15  20
ENDBRANCH  11  15
ENDBRANCH   1  13
BRANCH   7  22
ATOM     22  O   UNL     1       2.018   3.491  16.869  0.00  0.00    +0.000 OA
ATOM     23  H   UNL     1       1.544   3.908  16.127  0.00  0.00    +0.000 HD
ENDBRANCH   7  22
TORSDOF 6
ENDMDL
MODEL 2
REMARK VINA RESULT:      -7.4      1.327      1.993
REMARK  Name = 
REMARK  11 active torsions:
REMARK  status: ('A' for Active; 'I' for Inactive)
REMARK    1  A    between atoms: C_1  and  C_2
REMARK    2  A    between atoms: C_2  and  C_3
REMARK    3  A    between atoms: C_3  and  C_4
REMARK    4  A    between atoms: C_3  and  C_5
REMARK    5  A    between atoms: C_5  and  O_6
REMARK    6  A    between atoms: C_5  and  C_7
REMARK    7  A    between atoms: N_9  and  C_10
REMARK    8  A    between atoms: C_14  and  C_15
REMARK    9  A    between atoms: C_16  and  O_17
REMARK   10  A    between atoms: C_18  and  C_19
REMARK   11  A    between atoms: C_18  and  C_20
REMARK                            x       y       z     vdW  Elec       q    Type
REMARK                         _______ _______ _______ _____ _____    ______ ____
ROOT
ATOM      1  C   UNL     1       3.171   5.111  18.598  0.00  0.00    +0.000 C 
ATOM      2  C   UNL     1       3.179   4.674  20.090  0.00  0.00    +0.000 C 
ATOM      3  C   UNL     1       1.913   5.320  20.724  0.00  0.00    +0.000 C 
ATOM      4  C   UNL     1       0.767   4.437  20.198  0.00  0.00    +0.000 C 
ATOM      5  C   UNL     1       1.510   3.424  19.279  0.00  0.00    +0.000 C 
ATOM      6  C   UNL     1       0.672   2.198  18.949  0.00  0.00    +0.000 C 
ATOM      7  C   UNL     1       2.003   4.243  18.025  0.00  0.00    +0.000 C 
ATOM      8  C   UNL     1       2.822   3.159  20.080  0.00  0.00    +0.000 C 
ATOM      9  C   UNL     1       2.646   2.586  21.509  0.00  0.00    +0.000 C 
ATOM     10  C   UNL     1       3.809   2.208  19.386  0.00  0.00    +0.000 C 
ENDROOT
BRANCH   1  13
ATOM     11  C   UNL     1       4.999   5.942  17.102  0.00  0.00    +0.000 C 
ATOM     12  O   UNL     1       4.399   6.972  16.808  0.00  0.00    +0.000 OA
ATOM     13  N   UNL     1       4.469   4.983  17.939  0.00  0.00    +0.000 N 
ATOM     14  H   UNL     1       5.015   4.128  18.024  0.00  0.00    +0.000 HD
BRANCH  11  15
ATOM     15  C   UNL     1       6.453   5.642  16.619  0.00  0.00    +0.000 C 
BRANCH  15  16
ATOM     16  C   UNL     1       7.515   6.409  17.455  0.00  0.00    +0.000 C 
ATOM     17  C   UNL     1       7.548   5.904  18.910  0.00  0.00    +0.000 C 
BRANCH  16  19
ATOM     18  C   UNL     1       8.337   8.746  18.146  0.00  0.00    +0.000 C 
ATOM     19  C   UNL     1       7.279   7.937  17.399  0.00  0.00    +0.000 C 
ENDBRANCH  16  19
ENDBRANCH  15  16
BRANCH  15  20
ATOM     20  O   UNL     1       6.623   5.880  15.220  0.00  0.00    +0.000 OA
ATOM     21  H   UNL     1       6.184   6.718  15.020  0.00  0.00    +0.000 HD
ENDBRANCH  15  20
ENDBRANCH  11  15
ENDBRANCH   1  13
BRANCH   7  22
ATOM     22  O   UNL     1       2.407   3.404  16.954  0.00  0.00    +0.000 OA
ATOM     23  H   UNL     1       3.380   3.430  16.953  0.00  0.00    +0.000 HD
ENDBRANCH   7  22
TORSDOF 6
ENDMDL
MODEL 3
REMARK VINA RESULT:      -7.3      1.753      2.963
REMARK  Name = 
REMARK  11 active torsions:
REMARK  status: ('A' for Active; 'I' for Inactive)
REMARK    1  A    between atoms: C_1  and  C_2
REMARK    2  A    between atoms: C_2  and  C_3
REMARK    3  A    between atoms: C_3  and  C_4
REMARK    4  A    between atoms: C_3  and  C_5
REMARK    5  A    between atoms: C_5  and  O_6
REMARK    6  A    between atoms: C_5  and  C_7
REMARK    7  A    between atoms: N_9  and  C_10
REMARK    8  A    between atoms: C_14  and  C_15
REMARK    9  A    between atoms: C_16  and  O_17
REMARK   10  A    between atoms: C_18  and  C_19
REMARK   11  A    between atoms: C_18  and  C_20
REMARK                            x       y       z     vdW  Elec       q    Type
REMARK                         _______ _______ _______ _____ _____    ______ ____
ROOT
ATOM      1  C   UNL     1       3.419   3.525  17.578  0.00  0.00    +0.000 C 
ATOM      2  C   UNL     1       2.088   4.119  18.117  0.00  0.00    +0.000 C 
ATOM      3  C   UNL     1       1.077   2.936  18.138  0.00  0.00    +0.000 C 
ATOM      4  C   UNL     1       1.517   2.118  19.366  0.00  0.00    +0.000 C 
ATOM      5  C   UNL     1       2.764   2.902  19.869  0.00  0.00    +0.000 C 
ATOM      6  C   UNL     1       3.155   2.542  21.295  0.00  0.00    +0.000 C 
ATOM      7  C   UNL     1       3.896   2.668  18.796  0.00  0.00    +0.000 C 
ATOM      8  C   UNL     1       2.336   4.383  19.631  0.00  0.00    +0.000 C 
ATOM      9  C   UNL     1       1.054   4.850  20.365  0.00  0.00    +0.000 C 
ATOM     10  C   UNL     1       3.408   5.421  19.998  0.00  0.00    +0.000 C 
ENDROOT
BRANCH   1  13
ATOM     11  C   UNL     1       5.351   4.259  16.162  0.00  0.00    +0.000 C 
ATOM     12  O   UNL     1       5.561   3.131  15.725  0.00  0.00    +0.000 OA
ATOM     13  N   UNL     1       4.353   4.530  17.076  0.00  0.00    +0.000 N 
ATOM     14  H   UNL     1       4.344   5.480  17.442  0.00  0.00    +0.000 HD
BRANCH  11  15
ATOM     15  C   UNL     1       6.139   5.516  15.678  0.00  0.00    +0.000 C 
BRANCH  15  16
ATOM     16  C   UNL     1       7.232   5.946  16.695  0.00  0.00    +0.000 C 
ATOM     17  C   UNL     1       7.606   4.782  17.634  0.00  0.00    +0.000 C 
BRANCH  16  19
ATOM     18  C   UNL     1       7.913   8.216  17.693  0.00  0.00    +0.000 C 
ATOM     19  C   UNL     1       6.796   7.193  17.498  0.00  0.00    +0.000 C 
ENDBRANCH  16  19
ENDBRANCH  15  16
BRANCH  15  20
ATOM     20  O   UNL     1       5.276   6.608  15.353  0.00  0.00    +0.000 OA
ATOM     21  H   UNL     1       4.915   6.942  16.185  0.00  0.00    +0.000 HD
ENDBRANCH  15  20
ENDBRANCH  11  15
ENDBRANCH   1  13
BRANCH   7  22
ATOM     22  O   UNL     1       5.179   3.044  19.273  0.00  0.00    +0.000 OA
ATOM     23  H   UNL     1       5.313   2.539  20.094  0.00  0.00    +0.000 HD
ENDBRANCH   7  22
TORSDOF 6
ENDMDL
MODEL 4
REMARK VINA RESULT:      -7.2      1.797      2.899
REMARK  Name = 
REMARK  11 active torsions:
REMARK  status: ('A' for Active; 'I' for Inactive)
REMARK    1  A    between atoms: C_1  and  C_2
REMARK    2  A    between atoms: C_2  and  C_3
REMARK    3  A    between atoms: C_3  and  C_4
REMARK    4  A    between atoms: C_3  and  C_5
REMARK    5  A    between atoms: C_5  and  O_6
REMARK    6  A    between atoms: C_5  and  C_7
REMARK    7  A    between atoms: N_9  and  C_10
REMARK    8  A    between atoms: C_14  and  C_15
REMARK    9  A    between atoms: C_16  and  O_17
REMARK   10  A    between atoms: C_18  and  C_19
REMARK   11  A    between atoms: C_18  and  C_20
REMARK                            x       y       z     vdW  Elec       q    Type
REMARK                         _______ _______ _______ _____ _____    ______ ____
ROOT
ATOM      1  C   UNL     1       3.863   3.262  17.449  0.00  0.00    +0.000 C 
ATOM      2  C   UNL     1       2.985   4.516  17.712  0.00  0.00    +0.000 C 
ATOM      3  C   UNL     1       1.510   4.032  17.585  0.00  0.00    +0.000 C 
ATOM      4  C   UNL     1       1.277   3.267  18.900  0.00  0.00    +0.000 C 
ATOM      5  C   UNL     1       2.665   3.357  19.599  0.00  0.00    +0.000 C 
ATOM      6  C   UNL     1       2.603   3.031  21.084  0.00  0.00    +0.000 C 
ATOM      7  C   UNL     1       3.641   2.443  18.763  0.00  0.00    +0.000 C 
ATOM      8  C   UNL     1       3.119   4.804  19.236  0.00  0.00    +0.000 C 
ATOM      9  C   UNL     1       2.187   5.951  19.703  0.00  0.00    +0.000 C 
ATOM     10  C   UNL     1       4.513   5.183  19.760  0.00  0.00    +0.000 C 
ENDROOT
BRANCH   1  13
ATOM     11  C   UNL     1       5.599   4.407  16.055  0.00  0.00    +0.000 C 
ATOM     12  O   UNL     1       4.773   4.927  15.311  0.00  0.00    +0.000 OA
ATOM     13  N   UNL     1       5.246   3.573  17.095  0.00  0.00    +0.000 N 
ATOM     14  H   UNL     1       6.022   3.121  17.575  0.00  0.00    +0.000 HD
BRANCH  11  15
ATOM     15  C   UNL     1       7.131   4.691  15.951  0.00  0.00    +0.000 C 
BRANCH  15  16
ATOM     16  C   UNL     1       7.634   5.603  17.104  0.00  0.00    +0.000 C 
ATOM     17  C   UNL     1       7.740   4.819  18.427  0.00  0.00    +0.000 C 
BRANCH  16  19
ATOM     18  C   UNL     1       7.520   8.134  17.548  0.00  0.00    +0.000 C 
ATOM     19  C   UNL     1       6.738   6.853  17.266  0.00  0.00    +0.000 C 
ENDBRANCH  16  19
ENDBRANCH  15  16
BRANCH  15  20
ATOM     20  O   UNL     1       7.502   5.217  14.675  0.00  0.00    +0.000 OA
ATOM     21  H   UNL     1       7.076   4.665  14.005  0.00  0.00    +0.000 HD
ENDBRANCH  15  20
ENDBRANCH  11  15
ENDBRANCH   1  13
BRANCH   7  22
ATOM     22  O   UNL     1       4.848   2.165  19.456  0.00  0.00    +0.000 OA
ATOM     23  H   UNL     1       4.986   2.919  20.057  0.00  0.00    +0.000 HD
ENDBRANCH   7  22
TORSDOF 6
ENDMDL
MODEL 5
REMARK VINA RESULT:      -7.2      1.580      2.807
REMARK  Name = 
REMARK  11 active torsions:
REMARK  status: ('A' for Active; 'I' for Inactive)
REMARK    1  A    between atoms: C_1  and  C_2
REMARK    2  A    between atoms: C_2  and  C_3
REMARK    3  A    between atoms: C_3  and  C_4
REMARK    4  A    between atoms: C_3  and  C_5
REMARK    5  A    between atoms: C_5  and  O_6
REMARK    6  A    between atoms: C_5  and  C_7
REMARK    7  A    between atoms: N_9  and  C_10
REMARK    8  A    between atoms: C_14  and  C_15
REMARK    9  A    between atoms: C_16  and  O_17
REMARK   10  A    between atoms: C_18  and  C_19
REMARK   11  A    between atoms: C_18  and  C_20
REMARK                            x       y       z     vdW  Elec       q    Type
REMARK                         _______ _______ _______ _____ _____    ______ ____
ROOT
ATOM      1  C   UNL     1       4.199   3.727  19.687  0.00  0.00    +0.000 C 
ATOM      2  C   UNL     1       3.116   2.649  19.402  0.00  0.00    +0.000 C 
ATOM      3  C   UNL     1       2.746   2.048  20.790  0.00  0.00    +0.000 C 
ATOM      4  C   UNL     1       1.868   3.141  21.424  0.00  0.00    +0.000 C 
ATOM      5  C   UNL     1       1.887   4.263  20.345  0.00  0.00    +0.000 C 
ATOM      6  C   UNL     1       0.781   5.291  20.538  0.00  0.00    +0.000 C 
ATOM      7  C   UNL     1       3.347   4.858  20.351  0.00  0.00    +0.000 C 
ATOM      8  C   UNL     1       1.833   3.442  19.020  0.00  0.00    +0.000 C 
ATOM      9  C   UNL     1       0.602   2.518  18.838  0.00  0.00    +0.000 C 
ATOM     10  C   UNL     1       1.886   4.294  17.742  0.00  0.00    +0.000 C 
ENDROOT
BRANCH   1  13
ATOM     11  C   UNL     1       6.169   4.802  18.576  0.00  0.00    +0.000 C 
ATOM     12  O   UNL     1       6.643   5.210  19.632  0.00  0.00    +0.000 OA
ATOM     13  N   UNL     1       4.984   4.099  18.512  0.00  0.00    +0.000 N 
ATOM     14  H   UNL     1       4.642   3.906  17.573  0.00  0.00    +0.000 HD
BRANCH  11  15
ATOM     15  C   UNL     1       6.892   4.969  17.202  0.00  0.00    +0.000 C 
BRANCH  15  16
ATOM     16  C   UNL     1       5.919   4.782  16.005  0.00  0.00    +0.000 C 
ATOM     17  C   UNL     1       6.567   3.943  14.887  0.00  0.00    +0.000 C 
BRANCH  16  19
ATOM     18  C   UNL     1       4.619   6.950  16.483  0.00  0.00    +0.000 C 
ATOM     19  C   UNL     1       5.422   6.144  15.465  0.00  0.00    +0.000 C 
ENDBRANCH  16  19
ENDBRANCH  15  16
BRANCH  15  20
ATOM     20  O   UNL     1       8.034   4.118  17.079  0.00  0.00    +0.000 OA
ATOM     21  H   UNL     1       7.742   3.220  17.287  0.00  0.00    +0.000 HD
ENDBRANCH  15  20
ENDBRANCH  11  15
ENDBRANCH   1  13
BRANCH   7  22
ATOM     22  O   UNL     1       3.431   6.095  19.660  0.00  0.00    +0.000 OA
ATOM     23  H   UNL     1       3.890   5.899  18.824  0.00  0.00    +0.000 HD
ENDBRANCH   7  22
TORSDOF 6
ENDMDL
MODEL 6
REMARK VINA RESULT:      -7.2      1.472      2.546
REMARK  Name = 
REMARK  11 active torsions:
REMARK  status: ('A' for Active; 'I' for Inactive)
REMARK    1  A    between atoms: C_1  and  C_2
REMARK    2  A    between atoms: C_2  and  C_3
REMARK    3  A    between atoms: C_3  and  C_4
REMARK    4  A    between atoms: C_3  and  C_5
REMARK    5  A    between atoms: C_5  and  O_6
REMARK    6  A    between atoms: C_5  and  C_7
REMARK    7  A    between atoms: N_9  and  C_10
REMARK    8  A    between atoms: C_14  and  C_15
REMARK    9  A    between atoms: C_16  and  O_17
REMARK   10  A    between atoms: C_18  and  C_19
REMARK   11  A    between atoms: C_18  and  C_20
REMARK                            x       y       z     vdW  Elec       q    Type
REMARK                         _______ _______ _______ _____ _____    ______ ____
ROOT
ATOM      1  C   UNL     1       4.598   4.376  19.246  0.00  0.00    +0.000 C 
ATOM      2  C   UNL     1       3.992   2.971  18.973  0.00  0.00    +0.000 C 
ATOM      3  C   UNL     1       3.985   2.240  20.348  0.00  0.00    +0.000 C 
ATOM      4  C   UNL     1       2.807   2.896  21.089  0.00  0.00    +0.000 C 
ATOM      5  C   UNL     1       2.313   3.964  20.070  0.00  0.00    +0.000 C 
ATOM      6  C   UNL     1       0.916   4.480  20.382  0.00  0.00    +0.000 C 
ATOM      7  C   UNL     1       3.431   5.075  20.018  0.00  0.00    +0.000 C 
ATOM      8  C   UNL     1       2.477   3.217  18.711  0.00  0.00    +0.000 C 
ATOM      9  C   UNL     1       1.683   1.895  18.557  0.00  0.00    +0.000 C 
ATOM     10  C   UNL     1       2.104   4.053  17.476  0.00  0.00    +0.000 C 
ENDROOT
BRANCH   1  13
ATOM     11  C   UNL     1       6.396   4.977  17.610  0.00  0.00    +0.000 C 
ATOM     12  O   UNL     1       7.268   4.369  18.223  0.00  0.00    +0.000 OA
ATOM     13  N   UNL     1       5.089   5.049  18.047  0.00  0.00    +0.000 N 
ATOM     14  H   UNL     1       4.484   5.668  17.511  0.00  0.00    +0.000 HD
BRANCH  11  15
ATOM     15  C   UNL     1       6.654   5.672  16.236  0.00  0.00    +0.000 C 
BRANCH  15  16
ATOM     16  C   UNL     1       7.015   4.648  15.124  0.00  0.00    +0.000 C 
ATOM     17  C   UNL     1       7.623   5.353  13.896  0.00  0.00    +0.000 C 
BRANCH  16  19
ATOM     18  C   UNL     1       5.598   3.661  13.218  0.00  0.00    +0.000 C 
ATOM     19  C   UNL     1       5.790   3.792  14.727  0.00  0.00    +0.000 C 
ENDBRANCH  16  19
ENDBRANCH  15  16
BRANCH  15  20
ATOM     20  O   UNL     1       7.634   6.708  16.325  0.00  0.00    +0.000 OA
ATOM     21  H   UNL     1       7.189   7.490  16.679  0.00  0.00    +0.000 HD
ENDBRANCH  15  20
ENDBRANCH  11  15
ENDBRANCH   1  13
BRANCH   7  22
ATOM     22  O   UNL     1       2.982   6.265  19.387  0.00  0.00    +0.000 OA
ATOM     23  H   UNL     1       2.698   5.999  18.494  0.00  0.00    +0.000 HD
ENDBRANCH   7  22
TORSDOF 6
ENDMDL
MODEL 7
REMARK VINA RESULT:      -7.1      1.749      3.039
REMARK  Name = 
REMARK  11 active torsions:
REMARK  status: ('A' for Active; 'I' for Inactive)
REMARK    1  A    between atoms: C_1  and  C_2
REMARK    2  A    between atoms: C_2  and  C_3
REMARK    3  A    between atoms: C_3  and  C_4
REMARK    4  A    between atoms: C_3  and  C_5
REMARK    5  A    between atoms: C_5  and  O_6
REMARK    6  A    between atoms: C_5  and  C_7
REMARK    7  A    between atoms: N_9  and  C_10
REMARK    8  A    between atoms: C_14  and  C_15
REMARK    9  A    between atoms: C_16  and  O_17
REMARK   10  A    between atoms: C_18  and  C_19
REMARK   11  A    between atoms: C_18  and  C_20
REMARK                            x       y       z     vdW  Elec       q    Type
REMARK                         _______ _______ _______ _____ _____    ______ ____
ROOT
ATOM      1  C   UNL     1       3.561   3.579  17.778  0.00  0.00    +0.000 C 
ATOM      2  C   UNL     1       2.154   4.081  18.208  0.00  0.00    +0.000 C 
ATOM      3  C   UNL     1       1.204   2.857  18.049  0.00  0.00    +0.000 C 
ATOM      4  C   UNL     1       1.553   1.981  19.265  0.00  0.00    +0.000 C 
ATOM      5  C   UNL     1       2.702   2.782  19.945  0.00  0.00    +0.000 C 
ATOM      6  C   UNL     1       2.959   2.346  21.380  0.00  0.00    +0.000 C 
ATOM      7  C   UNL     1       3.949   2.665  18.987  0.00  0.00    +0.000 C 
ATOM      8  C   UNL     1       2.230   4.256  19.753  0.00  0.00    +0.000 C 
ATOM      9  C   UNL     1       0.857   4.621  20.372  0.00  0.00    +0.000 C 
ATOM     10  C   UNL     1       3.207   5.312  20.294  0.00  0.00    +0.000 C 
ENDROOT
BRANCH   1  13
ATOM     11  C   UNL     1       5.456   4.548  16.459  0.00  0.00    +0.000 C 
ATOM     12  O   UNL     1       5.637   3.520  15.813  0.00  0.00    +0.000 OA
ATOM     13  N   UNL     1       4.492   4.653  17.441  0.00  0.00    +0.000 N 
ATOM     14  H   UNL     1       4.508   5.518  17.977  0.00  0.00    +0.000 HD
BRANCH  11  15
ATOM     15  C   UNL     1       6.246   5.867  16.191  0.00  0.00    +0.000 C 
BRANCH  15  16
ATOM     16  C   UNL     1       6.822   6.478  17.498  0.00  0.00    +0.000 C 
ATOM     17  C   UNL     1       7.570   7.795  17.215  0.00  0.00    +0.000 C 
BRANCH  16  19
ATOM     18  C   UNL     1       7.718   5.637  19.758  0.00  0.00    +0.000 C 
ATOM     19  C   UNL     1       7.730   5.469  18.240  0.00  0.00    +0.000 C 
ENDBRANCH  16  19
ENDBRANCH  15  16
BRANCH  15  20
ATOM     20  O   UNL     1       5.474   6.828  15.467  0.00  0.00    +0.000 OA
ATOM     21  H   UNL     1       5.964   7.661  15.488  0.00  0.00    +0.000 HD
ENDBRANCH  15  20
ENDBRANCH  11  15
ENDBRANCH   1  13
BRANCH   7  22
ATOM     22  O   UNL     1       5.156   3.063  19.620  0.00  0.00    +0.000 OA
ATOM     23  H   UNL     1       5.044   4.007  19.830  0.00  0.00    +0.000 HD
ENDBRANCH   7  22
TORSDOF 6
ENDMDL
MODEL 8
REMARK VINA RESULT:      -7.1      1.919      3.179
REMARK  Name = 
REMARK  11 active torsions:
REMARK  status: ('A' for Active; 'I' for Inactive)
REMARK    1  A    between atoms: C_1  and  C_2
REMARK    2  A    between atoms: C_2  and  C_3
REMARK    3  A    between atoms: C_3  and  C_4
REMARK    4  A    between atoms: C_3  and  C_5
REMARK    5  A    between atoms: C_5  and  O_6
REMARK    6  A    between atoms: C_5  and  C_7
REMARK    7  A    between atoms: N_9  and  C_10
REMARK    8  A    between atoms: C_14  and  C_15
REMARK    9  A    between atoms: C_16  and  O_17
REMARK   10  A    between atoms: C_18  and  C_19
REMARK   11  A    between atoms: C_18  and  C_20
REMARK                            x       y       z     vdW  Elec       q    Type
REMARK                         _______ _______ _______ _____ _____    ______ ____
ROOT
ATOM      1  C   UNL     1       4.050   3.000  17.986  0.00  0.00    +0.000 C 
ATOM      2  C   UNL     1       2.753   3.853  18.052  0.00  0.00    +0.000 C 
ATOM      3  C   UNL     1       1.585   2.868  17.751  0.00  0.00    +0.000 C 
ATOM      4  C   UNL     1       1.446   2.076  19.063  0.00  0.00    +0.000 C 
ATOM      5  C   UNL     1       2.589   2.666  19.941  0.00  0.00    +0.000 C 
ATOM      6  C   UNL     1       2.425   2.347  21.420  0.00  0.00    +0.000 C 
ATOM      7  C   UNL     1       3.940   2.163  19.303  0.00  0.00    +0.000 C 
ATOM      8  C   UNL     1       2.545   4.178  19.560  0.00  0.00    +0.000 C 
ATOM      9  C   UNL     1       1.207   4.912  19.826  0.00  0.00    +0.000 C 
ATOM     10  C   UNL     1       3.617   5.038  20.249  0.00  0.00    +0.000 C 
ENDROOT
BRANCH   1  13
ATOM     11  C   UNL     1       5.717   4.235  16.584  0.00  0.00    +0.000 C 
ATOM     12  O   UNL     1       5.147   3.968  15.530  0.00  0.00    +0.000 OA
ATOM     13  N   UNL     1       5.267   3.789  17.809  0.00  0.00    +0.000 N 
ATOM     14  H   UNL     1       5.880   3.988  18.597  0.00  0.00    +0.000 HD
BRANCH  11  15
ATOM     15  C   UNL     1       6.967   5.168  16.659  0.00  0.00    +0.000 C 
BRANCH  15  16
ATOM     16  C   UNL     1       6.726   6.391  17.586  0.00  0.00    +0.000 C 
ATOM     17  C   UNL     1       5.586   7.279  17.052  0.00  0.00    +0.000 C 
BRANCH  16  19
ATOM     18  C   UNL     1       7.809   8.720  17.725  0.00  0.00    +0.000 C 
ATOM     19  C   UNL     1       8.023   7.210  17.788  0.00  0.00    +0.000 C 
ENDBRANCH  16  19
ENDBRANCH  15  16
BRANCH  15  20
ATOM     20  O   UNL     1       7.419   5.578  15.367  0.00  0.00    +0.000 OA
ATOM     21  H   UNL     1       6.834   5.166  14.717  0.00  0.00    +0.000 HD
ENDBRANCH  15  20
ENDBRANCH  11  15
ENDBRANCH   1  13
BRANCH   7  22
ATOM     22  O   UNL     1       5.049   2.344  20.171  0.00  0.00    +0.000 OA
ATOM     23  H   UNL     1       4.705   2.837  20.937  0.00  0.00    +0.000 HD
ENDBRANCH   7  22
TORSDOF 6
ENDMDL
MODEL 9
REMARK VINA RESULT:      -6.9      1.565      2.638
REMARK  Name = 
REMARK  11 active torsions:
REMARK  status: ('A' for Active; 'I' for Inactive)
REMARK    1  A    between atoms: C_1  and  C_2
REMARK    2  A    between atoms: C_2  and  C_3
REMARK    3  A    between atoms: C_3  and  C_4
REMARK    4  A    between atoms: C_3  and  C_5
REMARK    5  A    between atoms: C_5  and  O_6
REMARK    6  A    between atoms: C_5  and  C_7
REMARK    7  A    between atoms: N_9  and  C_10
REMARK    8  A    between atoms: C_14  and  C_15
REMARK    9  A    between atoms: C_16  and  O_17
REMARK   10  A    between atoms: C_18  and  C_19
REMARK   11  A    between atoms: C_18  and  C_20
REMARK                            x       y       z     vdW  Elec       q    Type
REMARK                         _______ _______ _______ _____ _____    ______ ____
ROOT
ATOM      1  C   UNL     1       4.465   3.914  19.709  0.00  0.00    +0.000 C 
ATOM      2  C   UNL     1       3.532   2.702  19.437  0.00  0.00    +0.000 C 
ATOM      3  C   UNL     1       3.158   2.135  20.838  0.00  0.00    +0.000 C 
ATOM      4  C   UNL     1       2.126   3.149  21.363  0.00  0.00    +0.000 C 
ATOM      5  C   UNL     1       2.074   4.206  20.222  0.00  0.00    +0.000 C 
ATOM      6  C   UNL     1       0.847   5.103  20.300  0.00  0.00    +0.000 C 
ATOM      7  C   UNL     1       3.453   4.970  20.263  0.00  0.00    +0.000 C 
ATOM      8  C   UNL     1       2.188   3.315  18.947  0.00  0.00    +0.000 C 
ATOM      9  C   UNL     1       1.084   2.243  18.761  0.00  0.00    +0.000 C 
ATOM     10  C   UNL     1       2.212   4.098  17.625  0.00  0.00    +0.000 C 
ENDROOT
BRANCH   1  13
ATOM     11  C   UNL     1       6.435   5.038  18.648  0.00  0.00    +0.000 C 
ATOM     12  O   UNL     1       6.882   5.443  19.718  0.00  0.00    +0.000 OA
ATOM     13  N   UNL     1       5.265   4.315  18.554  0.00  0.00    +0.000 N 
ATOM     14  H   UNL     1       4.944   4.126  17.607  0.00  0.00    +0.000 HD
BRANCH  11  15
ATOM     15  C   UNL     1       7.180   5.235  17.290  0.00  0.00    +0.000 C 
BRANCH  15  16
ATOM     16  C   UNL     1       6.206   5.611  16.140  0.00  0.00    +0.000 C 
ATOM     17  C   UNL     1       5.157   6.636  16.612  0.00  0.00    +0.000 C 
BRANCH  16  19
ATOM     18  C   UNL     1       5.921   4.080  14.092  0.00  0.00    +0.000 C 
ATOM     19  C   UNL     1       5.529   4.355  15.542  0.00  0.00    +0.000 C 
ENDBRANCH  16  19
ENDBRANCH  15  16
BRANCH  15  20
ATOM     20  O   UNL     1       7.984   4.106  16.941  0.00  0.00    +0.000 OA
ATOM     21  H   UNL     1       7.432   3.520  16.406  0.00  0.00    +0.000 HD
ENDBRANCH  15  20
ENDBRANCH  11  15
ENDBRANCH   1  13
BRANCH   7  22
ATOM     22  O   UNL     1       3.430   6.170  19.506  0.00  0.00    +0.000 OA
ATOM     23  H   UNL     1       2.947   5.955  18.688  0.00  0.00    +0.000 HD
ENDBRANCH   7  22
TORSDOF 6
ENDMDL
