MODEL 1
REMARK VINA RESULT:      -6.3      0.000      0.000
REMARK  Name = 
REMARK  6 active torsions:
REMARK  status: ('A' for Active; 'I' for Inactive)
REMARK    1  A    between atoms: C_1  and  C_2
REMARK    2  A    between atoms: C_5  and  S_6
REMARK    3  A    between atoms: S_6  and  C_7
REMARK    4  A    between atoms: C_7  and  C_8
REMARK    5  A    between atoms: C_8  and  O_9
REMARK    6  A    between atoms: O_9  and  C_10
REMARK                            x       y       z     vdW  Elec       q    Type
REMARK                         _______ _______ _______ _____ _____    ______ ____
ROOT
ATOM      1  C   UNL     1       6.012   5.441  18.850  0.00  0.00    +0.000 C 
ENDROOT
BRANCH   1   2
ATOM      2  S   UNL     1       5.320   6.447  17.502  0.00  0.00    +0.000 S 
BRANCH   2   7
ATOM      3  C   UNL     1       6.645   3.765  12.859  0.00  0.00    +0.000 C 
ATOM      4  C   UNL     1       6.625   4.591  14.092  0.00  0.00    +0.000 A 
ATOM      5  N   UNL     1       7.643   5.270  14.576  0.00  0.00    +0.000 NA
ATOM      6  N   UNL     1       7.316   5.944  15.742  0.00  0.00    +0.000 NA
ATOM      7  C   UNL     1       6.062   5.745  16.088  0.00  0.00    +0.000 A 
ATOM      8  S   UNL     1       5.188   4.725  15.022  0.00  0.00    +0.000 S 
ENDBRANCH   2   7
ENDBRANCH   1   2
BRANCH   1   9
ATOM      9  C   UNL     1       5.416   4.035  18.750  0.00  0.00    +0.000 C 
BRANCH   9  10
ATOM     10  O   UNL     1       4.029   4.123  18.403  0.00  0.00    +0.000 OA
BRANCH  10  11
ATOM     11  C   UNL     1       3.157   3.738  19.391  0.00  0.00    +0.000 A 
ATOM     12  C   UNL     1       1.885   4.311  19.327  0.00  0.00    +0.000 A 
ATOM     13  C   UNL     1       0.915   3.994  20.281  0.00  0.00    +0.000 A 
ATOM     14  C   UNL     1       1.208   3.087  21.297  0.00  0.00    +0.000 A 
ATOM     15  C   UNL     1       2.467   2.494  21.354  0.00  0.00    +0.000 A 
ATOM     16  C   UNL     1       3.440   2.818  20.403  0.00  0.00    +0.000 A 
ENDBRANCH  10  11
ENDBRANCH   9  10
ENDBRANCH   1   9
TORSDOF 5
ENDMDL
MODEL 2
REMARK VINA RESULT:      -6.3      1.064      1.666
REMARK  Name = 
REMARK  6 active torsions:
REMARK  status: ('A' for Active; 'I' for Inactive)
REMARK    1  A    between atoms: C_1  and  C_2
REMARK    2  A    between atoms: C_5  and  S_6
REMARK    3  A    between atoms: S_6  and  C_7
REMARK    4  A    between atoms: C_7  and  C_8
REMARK    5  A    between atoms: C_8  and  O_9
REMARK    6  A    between atoms: O_9  and  C_10
REMARK                            x       y       z     vdW  Elec       q    Type
REMARK                         _______ _______ _______ _____ _____    ______ ____
ROOT
ATOM      1  C   UNL     1       4.133   6.927  17.373  0.00  0.00    +0.000 C 
ENDROOT
BRANCH   1   2
ATOM      2  S   UNL     1       5.679   6.072  17.805  0.00  0.00    +0.000 S 
BRANCH   2   7
ATOM      3  C   UNL     1       6.492   3.759  12.856  0.00  0.00    +0.000 C 
ATOM      4  C   UNL     1       6.591   4.521  14.126  0.00  0.00    +0.000 A 
ATOM      5  N   UNL     1       7.606   5.277  14.488  0.00  0.00    +0.000 NA
ATOM      6  N   UNL     1       7.406   5.859  15.730  0.00  0.00    +0.000 NA
ATOM      7  C   UNL     1       6.249   5.516  16.252  0.00  0.00    +0.000 A 
ATOM      8  S   UNL     1       5.315   4.463  15.273  0.00  0.00    +0.000 S 
ENDBRANCH   2   7
ENDBRANCH   1   2
BRANCH   1   9
ATOM      9  C   UNL     1       2.986   6.243  18.120  0.00  0.00    +0.000 C 
BRANCH   9  10
ATOM     10  O   UNL     1       3.136   4.822  18.038  0.00  0.00    +0.000 OA
BRANCH  10  11
ATOM     11  C   UNL     1       2.623   4.120  19.101  0.00  0.00    +0.000 A 
ATOM     12  C   UNL     1       3.557   3.411  19.859  0.00  0.00    +0.000 A 
ATOM     13  C   UNL     1       3.150   2.660  20.965  0.00  0.00    +0.000 A 
ATOM     14  C   UNL     1       1.806   2.628  21.328  0.00  0.00    +0.000 A 
ATOM     15  C   UNL     1       0.872   3.351  20.591  0.00  0.00    +0.000 A 
ATOM     16  C   UNL     1       1.279   4.097  19.480  0.00  0.00    +0.000 A 
ENDBRANCH  10  11
ENDBRANCH   9  10
ENDBRANCH   1   9
TORSDOF 5
ENDMDL
MODEL 3
REMARK VINA RESULT:      -6.2      0.954      1.127
REMARK  Name = 
REMARK  6 active torsions:
REMARK  status: ('A' for Active; 'I' for Inactive)
REMARK    1  A    between atoms: C_1  and  C_2
REMARK    2  A    between atoms: C_5  and  S_6
REMARK    3  A    between atoms: S_6  and  C_7
REMARK    4  A    between atoms: C_7  and  C_8
REMARK    5  A    between atoms: C_8  and  O_9
REMARK    6  A    between atoms: O_9  and  C_10
REMARK                            x       y       z     vdW  Elec       q    Type
REMARK                         _______ _______ _______ _____ _____    ______ ____
ROOT
ATOM      1  C   UNL     1       6.697   5.118  18.852  0.00  0.00    +0.000 C 
ENDROOT
BRANCH   1   2
ATOM      2  S   UNL     1       6.760   6.505  17.677  0.00  0.00    +0.000 S 
BRANCH   2   7
ATOM      3  C   UNL     1       5.685   3.585  13.114  0.00  0.00    +0.000 C 
ATOM      4  C   UNL     1       6.277   4.437  14.175  0.00  0.00    +0.000 A 
ATOM      5  N   UNL     1       7.462   5.009  14.125  0.00  0.00    +0.000 NA
ATOM      6  N   UNL     1       7.736   5.742  15.269  0.00  0.00    +0.000 NA
ATOM      7  C   UNL     1       6.746   5.691  16.133  0.00  0.00    +0.000 A 
ATOM      8  S   UNL     1       5.407   4.751  15.621  0.00  0.00    +0.000 S 
ENDBRANCH   2   7
ENDBRANCH   1   2
BRANCH   1   9
ATOM      9  C   UNL     1       5.273   5.025  19.404  0.00  0.00    +0.000 C 
BRANCH   9  10
ATOM     10  O   UNL     1       4.917   3.651  19.594  0.00  0.00    +0.000 OA
BRANCH  10  11
ATOM     11  C   UNL     1       3.569   3.403  19.660  0.00  0.00    +0.000 A 
ATOM     12  C   UNL     1       2.840   3.731  18.514  0.00  0.00    +0.000 A 
ATOM     13  C   UNL     1       1.459   3.523  18.468  0.00  0.00    +0.000 A 
ATOM     14  C   UNL     1       0.801   2.970  19.563  0.00  0.00    +0.000 A 
ATOM     15  C   UNL     1       1.524   2.619  20.701  0.00  0.00    +0.000 A 
ATOM     16  C   UNL     1       2.905   2.834  20.750  0.00  0.00    +0.000 A 
ENDBRANCH  10  11
ENDBRANCH   9  10
ENDBRANCH   1   9
TORSDOF 5
ENDMDL
MODEL 4
REMARK VINA RESULT:      -6.1      1.869      2.305
REMARK  Name = 
REMARK  6 active torsions:
REMARK  status: ('A' for Active; 'I' for Inactive)
REMARK    1  A    between atoms: C_1  and  C_2
REMARK    2  A    between atoms: C_5  and  S_6
REMARK    3  A    between atoms: S_6  and  C_7
REMARK    4  A    between atoms: C_7  and  C_8
REMARK    5  A    between atoms: C_8  and  O_9
REMARK    6  A    between atoms: O_9  and  C_10
REMARK                            x       y       z     vdW  Elec       q    Type
REMARK                         _______ _______ _______ _____ _____    ______ ____
ROOT
ATOM      1  C   UNL     1       7.568   5.490  19.175  0.00  0.00    +0.000 C 
ENDROOT
BRANCH   1   2
ATOM      2  S   UNL     1       7.661   6.860  17.982  0.00  0.00    +0.000 S 
BRANCH   2   7
ATOM      3  C   UNL     1       5.553   3.946  13.790  0.00  0.00    +0.000 C 
ATOM      4  C   UNL     1       5.883   4.968  14.814  0.00  0.00    +0.000 A 
ATOM      5  N   UNL     1       5.300   6.142  14.940  0.00  0.00    +0.000 NA
ATOM      6  N   UNL     1       5.826   6.877  15.990  0.00  0.00    +0.000 NA
ATOM      7  C   UNL     1       6.785   6.226  16.612  0.00  0.00    +0.000 A 
ATOM      8  S   UNL     1       7.118   4.672  15.969  0.00  0.00    +0.000 S 
ENDBRANCH   2   7
ENDBRANCH   1   2
BRANCH   1   9
ATOM      9  C   UNL     1       6.093   5.233  19.491  0.00  0.00    +0.000 C 
BRANCH   9  10
ATOM     10  O   UNL     1       5.773   3.864  19.216  0.00  0.00    +0.000 OA
BRANCH  10  11
ATOM     11  C   UNL     1       4.474   3.636  18.832  0.00  0.00    +0.000 A 
ATOM     12  C   UNL     1       3.893   2.472  19.339  0.00  0.00    +0.000 A 
ATOM     13  C   UNL     1       2.576   2.137  19.015  0.00  0.00    +0.000 A 
ATOM     14  C   UNL     1       1.826   2.975  18.195  0.00  0.00    +0.000 A 
ATOM     15  C   UNL     1       2.391   4.150  17.704  0.00  0.00    +0.000 A 
ATOM     16  C   UNL     1       3.712   4.481  18.022  0.00  0.00    +0.000 A 
ENDBRANCH  10  11
ENDBRANCH   9  10
ENDBRANCH   1   9
TORSDOF 5
ENDMDL
MODEL 5
REMARK VINA RESULT:      -6.1      1.191      1.354
REMARK  Name = 
REMARK  6 active torsions:
REMARK  status: ('A' for Active; 'I' for Inactive)
REMARK    1  A    between atoms: C_1  and  C_2
REMARK    2  A    between atoms: C_5  and  S_6
REMARK    3  A    between atoms: S_6  and  C_7
REMARK    4  A    between atoms: C_7  and  C_8
REMARK    5  A    between atoms: C_8  and  O_9
REMARK    6  A    between atoms: O_9  and  C_10
REMARK                            x       y       z     vdW  Elec       q    Type
REMARK                         _______ _______ _______ _____ _____    ______ ____
ROOT
ATOM      1  C   UNL     1       6.764   4.547  18.028  0.00  0.00    +0.000 C 
ENDROOT
BRANCH   1   2
ATOM      2  S   UNL     1       6.770   5.995  16.927  0.00  0.00    +0.000 S 
BRANCH   2   7
ATOM      3  C   UNL     1       5.857   3.164  12.273  0.00  0.00    +0.000 C 
ATOM      4  C   UNL     1       6.381   4.045  13.346  0.00  0.00    +0.000 A 
ATOM      5  N   UNL     1       7.461   4.794  13.263  0.00  0.00    +0.000 NA
ATOM      6  N   UNL     1       7.695   5.506  14.429  0.00  0.00    +0.000 NA
ATOM      7  C   UNL     1       6.780   5.263  15.343  0.00  0.00    +0.000 A 
ATOM      8  S   UNL     1       5.567   4.154  14.853  0.00  0.00    +0.000 S 
ENDBRANCH   2   7
ENDBRANCH   1   2
BRANCH   1   9
ATOM      9  C   UNL     1       5.547   4.654  18.949  0.00  0.00    +0.000 C 
BRANCH   9  10
ATOM     10  O   UNL     1       4.348   4.488  18.184  0.00  0.00    +0.000 OA
BRANCH  10  11
ATOM     11  C   UNL     1       3.214   4.254  18.922  0.00  0.00    +0.000 A 
ATOM     12  C   UNL     1       2.320   3.331  18.376  0.00  0.00    +0.000 A 
ATOM     13  C   UNL     1       1.132   3.015  19.040  0.00  0.00    +0.000 A 
ATOM     14  C   UNL     1       0.839   3.610  20.264  0.00  0.00    +0.000 A 
ATOM     15  C   UNL     1       1.737   4.515  20.827  0.00  0.00    +0.000 A 
ATOM     16  C   UNL     1       2.922   4.836  20.158  0.00  0.00    +0.000 A 
ENDBRANCH  10  11
ENDBRANCH   9  10
ENDBRANCH   1   9
TORSDOF 5
ENDMDL
MODEL 6
REMARK VINA RESULT:      -6.1      1.683      1.971
REMARK  Name = 
REMARK  6 active torsions:
REMARK  status: ('A' for Active; 'I' for Inactive)
REMARK    1  A    between atoms: C_1  and  C_2
REMARK    2  A    between atoms: C_5  and  S_6
REMARK    3  A    between atoms: S_6  and  C_7
REMARK    4  A    between atoms: C_7  and  C_8
REMARK    5  A    between atoms: C_8  and  O_9
REMARK    6  A    between atoms: O_9  and  C_10
REMARK                            x       y       z     vdW  Elec       q    Type
REMARK                         _______ _______ _______ _____ _____    ______ ____
ROOT
ATOM      1  C   UNL     1       5.815   6.062  18.314  0.00  0.00    +0.000 C 
ENDROOT
BRANCH   1   2
ATOM      2  S   UNL     1       7.129   4.892  17.853  0.00  0.00    +0.000 S 
BRANCH   2   7
ATOM      3  C   UNL     1       5.805   3.565  12.657  0.00  0.00    +0.000 C 
ATOM      4  C   UNL     1       6.345   4.177  13.897  0.00  0.00    +0.000 A 
ATOM      5  N   UNL     1       7.143   5.223  13.949  0.00  0.00    +0.000 NA
ATOM      6  N   UNL     1       7.478   5.559  15.252  0.00  0.00    +0.000 NA
ATOM      7  C   UNL     1       6.919   4.752  16.126  0.00  0.00    +0.000 A 
ATOM      8  S   UNL     1       5.942   3.525  15.433  0.00  0.00    +0.000 S 
ENDBRANCH   2   7
ENDBRANCH   1   2
BRANCH   1   9
ATOM      9  C   UNL     1       4.787   6.095  17.181  0.00  0.00    +0.000 C 
BRANCH   9  10
ATOM     10  O   UNL     1       3.572   6.691  17.649  0.00  0.00    +0.000 OA
BRANCH  10  11
ATOM     11  C   UNL     1       2.796   5.882  18.442  0.00  0.00    +0.000 A 
ATOM     12  C   UNL     1       2.266   4.753  17.814  0.00  0.00    +0.000 A 
ATOM     13  C   UNL     1       1.460   3.858  18.523  0.00  0.00    +0.000 A 
ATOM     14  C   UNL     1       1.193   4.081  19.871  0.00  0.00    +0.000 A 
ATOM     15  C   UNL     1       1.735   5.192  20.511  0.00  0.00    +0.000 A 
ATOM     16  C   UNL     1       2.536   6.091  19.799  0.00  0.00    +0.000 A 
ENDBRANCH  10  11
ENDBRANCH   9  10
ENDBRANCH   1   9
TORSDOF 5
ENDMDL
MODEL 7
REMARK VINA RESULT:      -5.9      2.547      6.699
REMARK  Name = 
REMARK  6 active torsions:
REMARK  status: ('A' for Active; 'I' for Inactive)
REMARK    1  A    between atoms: C_1  and  C_2
REMARK    2  A    between atoms: C_5  and  S_6
REMARK    3  A    between atoms: S_6  and  C_7
REMARK    4  A    between atoms: C_7  and  C_8
REMARK    5  A    between atoms: C_8  and  O_9
REMARK    6  A    between atoms: O_9  and  C_10
REMARK                            x       y       z     vdW  Elec       q    Type
REMARK                         _______ _______ _______ _____ _____    ______ ____
ROOT
ATOM      1  C   UNL     1       6.572   5.380  17.989  0.00  0.00    +0.000 C 
ENDROOT
BRANCH   1   2
ATOM      2  S   UNL     1       5.127   6.323  17.414  0.00  0.00    +0.000 S 
BRANCH   2   7
ATOM      3  C   UNL     1       0.986   3.930  20.177  0.00  0.00    +0.000 C 
ATOM      4  C   UNL     1       2.014   4.338  19.187  0.00  0.00    +0.000 A 
ATOM      5  N   UNL     1       2.196   3.792  18.003  0.00  0.00    +0.000 NA
ATOM      6  N   UNL     1       3.235   4.389  17.306  0.00  0.00    +0.000 NA
ATOM      7  C   UNL     1       3.793   5.360  17.995  0.00  0.00    +0.000 A 
ATOM      8  S   UNL     1       3.096   5.623  19.540  0.00  0.00    +0.000 S 
ENDBRANCH   2   7
ENDBRANCH   1   2
BRANCH   1   9
ATOM      9  C   UNL     1       7.145   4.611  16.796  0.00  0.00    +0.000 C 
BRANCH   9  10
ATOM     10  O   UNL     1       7.302   5.497  15.682  0.00  0.00    +0.000 OA
BRANCH  10  11
ATOM     11  C   UNL     1       7.057   4.934  14.453  0.00  0.00    +0.000 A 
ATOM     12  C   UNL     1       5.967   4.063  14.397  0.00  0.00    +0.000 A 
ATOM     13  C   UNL     1       5.624   3.431  13.199  0.00  0.00    +0.000 A 
ATOM     14  C   UNL     1       6.362   3.681  12.045  0.00  0.00    +0.000 A 
ATOM     15  C   UNL     1       7.437   4.565  12.088  0.00  0.00    +0.000 A 
ATOM     16  C   UNL     1       7.784   5.192  13.289  0.00  0.00    +0.000 A 
ENDBRANCH  10  11
ENDBRANCH   9  10
ENDBRANCH   1   9
TORSDOF 5
ENDMDL
MODEL 8
REMARK VINA RESULT:      -5.9      1.391      1.811
REMARK  Name = 
REMARK  6 active torsions:
REMARK  status: ('A' for Active; 'I' for Inactive)
REMARK    1  A    between atoms: C_1  and  C_2
REMARK    2  A    between atoms: C_5  and  S_6
REMARK    3  A    between atoms: S_6  and  C_7
REMARK    4  A    between atoms: C_7  and  C_8
REMARK    5  A    between atoms: C_8  and  O_9
REMARK    6  A    between atoms: O_9  and  C_10
REMARK                            x       y       z     vdW  Elec       q    Type
REMARK                         _______ _______ _______ _____ _____    ______ ____
ROOT
ATOM      1  C   UNL     1       3.798   5.562  17.559  0.00  0.00    +0.000 C 
ENDROOT
BRANCH   1   2
ATOM      2  S   UNL     1       5.556   5.987  17.752  0.00  0.00    +0.000 S 
BRANCH   2   7
ATOM      3  C   UNL     1       6.744   3.864  12.793  0.00  0.00    +0.000 C 
ATOM      4  C   UNL     1       6.732   4.601  14.081  0.00  0.00    +0.000 A 
ATOM      5  N   UNL     1       7.667   5.428  14.499  0.00  0.00    +0.000 NA
ATOM      6  N   UNL     1       7.373   5.963  15.744  0.00  0.00    +0.000 NA
ATOM      7  C   UNL     1       6.228   5.516  16.212  0.00  0.00    +0.000 A 
ATOM      8  S   UNL     1       5.422   4.414  15.175  0.00  0.00    +0.000 S 
ENDBRANCH   2   7
ENDBRANCH   1   2
BRANCH   1   9
ATOM      9  C   UNL     1       2.971   6.605  18.314  0.00  0.00    +0.000 C 
BRANCH   9  10
ATOM     10  O   UNL     1       2.905   6.256  19.702  0.00  0.00    +0.000 OA
BRANCH  10  11
ATOM     11  C   UNL     1       2.313   5.047  19.970  0.00  0.00    +0.000 A 
ATOM     12  C   UNL     1       2.534   4.540  21.253  0.00  0.00    +0.000 A 
ATOM     13  C   UNL     1       1.982   3.316  21.638  0.00  0.00    +0.000 A 
ATOM     14  C   UNL     1       1.189   2.599  20.745  0.00  0.00    +0.000 A 
ATOM     15  C   UNL     1       0.945   3.108  19.472  0.00  0.00    +0.000 A 
ATOM     16  C   UNL     1       1.504   4.330  19.085  0.00  0.00    +0.000 A 
ENDBRANCH  10  11
ENDBRANCH   9  10
ENDBRANCH   1   9
TORSDOF 5
ENDMDL
MODEL 9
REMARK VINA RESULT:      -5.9      2.708      3.504
REMARK  Name = 
REMARK  6 active torsions:
REMARK  status: ('A' for Active; 'I' for Inactive)
REMARK    1  A    between atoms: C_1  and  C_2
REMARK    2  A    between atoms: C_5  and  S_6
REMARK    3  A    between atoms: S_6  and  C_7
REMARK    4  A    between atoms: C_7  and  C_8
REMARK    5  A    between atoms: C_8  and  O_9
REMARK    6  A    between atoms: O_9  and  C_10
REMARK                            x       y       z     vdW  Elec       q    Type
REMARK                         _______ _______ _______ _____ _____    ______ ____
ROOT
ATOM      1  C   UNL     1       4.324   3.820  18.740  0.00  0.00    +0.000 C 
ENDROOT
BRANCH   1   2
ATOM      2  S   UNL     1       5.769   4.924  18.720  0.00  0.00    +0.000 S 
BRANCH   2   7
ATOM      3  C   UNL     1       6.415   4.113  13.295  0.00  0.00    +0.000 C 
ATOM      4  C   UNL     1       6.553   4.492  14.723  0.00  0.00    +0.000 A 
ATOM      5  N   UNL     1       7.567   5.149  15.247  0.00  0.00    +0.000 NA
ATOM      6  N   UNL     1       7.409   5.354  16.609  0.00  0.00    +0.000 NA
ATOM      7  C   UNL     1       6.282   4.842  17.054  0.00  0.00    +0.000 A 
ATOM      8  S   UNL     1       5.329   4.076  15.853  0.00  0.00    +0.000 S 
ENDBRANCH   2   7
ENDBRANCH   1   2
BRANCH   1   9
ATOM      9  C   UNL     1       3.074   4.674  18.965  0.00  0.00    +0.000 C 
BRANCH   9  10
ATOM     10  O   UNL     1       3.429   5.873  19.664  0.00  0.00    +0.000 OA
BRANCH  10  11
ATOM     11  C   UNL     1       2.728   6.992  19.290  0.00  0.00    +0.000 A 
ATOM     12  C   UNL     1       1.957   7.582  20.294  0.00  0.00    +0.000 A 
ATOM     13  C   UNL     1       1.200   8.726  20.029  0.00  0.00    +0.000 A 
ATOM     14  C   UNL     1       1.224   9.297  18.759  0.00  0.00    +0.000 A 
ATOM     15  C   UNL     1       2.008   8.728  17.758  0.00  0.00    +0.000 A 
ATOM     16  C   UNL     1       2.760   7.579  18.023  0.00  0.00    +0.000 A 
ENDBRANCH  10  11
ENDBRANCH   9  10
ENDBRANCH   1   9
TORSDOF 5
ENDMDL
