MODEL 1
REMARK VINA RESULT:      -8.0      0.000      0.000
REMARK  Name = 
REMARK  8 active torsions:
REMARK  status: ('A' for Active; 'I' for Inactive)
REMARK    1  A    between atoms: C_1  and  N_2
REMARK    2  A    between atoms: N_2  and  C_3
REMARK    3  A    between atoms: N_2  and  C_4
REMARK    4  A    between atoms: C_4  and  C_5
REMARK    5  A    between atoms: C_5  and  S_6
REMARK    6  A    between atoms: S_6  and  C_7
REMARK    7  A    between atoms: C_9  and  C_10
REMARK    8  A    between atoms: C_18  and  C_19
REMARK                            x       y       z     vdW  Elec       q    Type
REMARK                         _______ _______ _______ _____ _____    ______ ____
ROOT
ATOM      1  C   UNL     1       3.115   5.923  19.086  0.00  0.00    +0.000 A 
ATOM      2  N   UNL     1       3.866   5.939  17.968  0.00  0.00    +0.000 NA
ATOM      3  C   UNL     1       4.387   4.765  17.618  0.00  0.00    +0.000 A 
ATOM      4  N   UNL     1       4.251   3.605  18.271  0.00  0.00    +0.000 NA
ATOM      5  C   UNL     1       3.540   3.625  19.402  0.00  0.00    +0.000 A 
ATOM      6  C   UNL     1       3.407   2.441  20.119  0.00  0.00    +0.000 A 
ATOM      7  C   UNL     1       2.675   2.375  21.308  0.00  0.00    +0.000 A 
ATOM      8  C   UNL     1       2.049   3.515  21.793  0.00  0.00    +0.000 A 
ATOM      9  C   UNL     1       2.167   4.712  21.090  0.00  0.00    +0.000 A 
ATOM     10  C   UNL     1       2.922   4.782  19.887  0.00  0.00    +0.000 A 
ENDROOT
BRANCH   3  11
ATOM     11  C   UNL     1       5.206   4.744  16.422  0.00  0.00    +0.000 A 
ATOM     12  N   UNL     1       4.865   3.968  15.336  0.00  0.00    +0.000 N 
ATOM     13  C   UNL     1       5.736   4.174  14.294  0.00  0.00    +0.000 A 
ATOM     14  C   UNL     1       5.742   3.637  12.998  0.00  0.00    +0.000 A 
ATOM     15  C   UNL     1       6.777   4.021  12.141  0.00  0.00    +0.000 A 
ATOM     16  C   UNL     1       7.766   4.907  12.563  0.00  0.00    +0.000 A 
ATOM     17  C   UNL     1       7.739   5.438  13.857  0.00  0.00    +0.000 A 
ATOM     18  C   UNL     1       6.703   5.071  14.741  0.00  0.00    +0.000 A 
ATOM     19  C   UNL     1       6.373   5.425  16.090  0.00  0.00    +0.000 A 
ATOM     20  H   UNL     1       4.059   3.359  15.310  0.00  0.00    +0.000 HD
BRANCH  19  21
ATOM     21  C   UNL     1       7.109   6.317  16.972  0.00  0.00    +0.000 C 
ATOM     22  O   UNL     1       6.950   7.534  17.006  0.00  0.00    +0.000 OA
ENDBRANCH  19  21
ENDBRANCH   3  11
BRANCH   1  23
ATOM     23  S   UNL     1       2.315   7.482  19.452  0.00  0.00    +0.000 S 
BRANCH  23  24
ATOM     24  C   UNL     1       2.364   8.231  17.777  0.00  0.00    +0.000 C 
BRANCH  24  25
ATOM     25  C   UNL     1       1.906   9.701  17.793  0.00  0.00    +0.000 C 
BRANCH  25  27
ATOM     26  C   UNL     1       1.071  11.294  19.388  0.00  0.00    +0.000 C 
ATOM     27  N   UNL     1       0.805  10.010  18.727  0.00  0.00    +0.000 NA
ATOM     28  C   UNL     1      -0.498  10.060  18.066  0.00  0.00    +0.000 C 
ENDBRANCH  25  27
ENDBRANCH  24  25
ENDBRANCH  23  24
ENDBRANCH   1  23
TORSDOF 6
ENDMDL
MODEL 2
REMARK VINA RESULT:      -7.8      2.508      7.653
REMARK  Name = 
REMARK  8 active torsions:
REMARK  status: ('A' for Active; 'I' for Inactive)
REMARK    1  A    between atoms: C_1  and  N_2
REMARK    2  A    between atoms: N_2  and  C_3
REMARK    3  A    between atoms: N_2  and  C_4
REMARK    4  A    between atoms: C_4  and  C_5
REMARK    5  A    between atoms: C_5  and  S_6
REMARK    6  A    between atoms: S_6  and  C_7
REMARK    7  A    between atoms: C_9  and  C_10
REMARK    8  A    between atoms: C_18  and  C_19
REMARK                            x       y       z     vdW  Elec       q    Type
REMARK                         _______ _______ _______ _____ _____    ______ ____
ROOT
ATOM      1  C   UNL     1       3.028   4.798  17.730  0.00  0.00    +0.000 A 
ATOM      2  N   UNL     1       2.266   5.643  18.450  0.00  0.00    +0.000 NA
ATOM      3  C   UNL     1       2.792   6.849  18.652  0.00  0.00    +0.000 A 
ATOM      4  N   UNL     1       3.987   7.278  18.232  0.00  0.00    +0.000 NA
ATOM      5  C   UNL     1       4.744   6.407  17.560  0.00  0.00    +0.000 A 
ATOM      6  C   UNL     1       6.004   6.815  17.137  0.00  0.00    +0.000 A 
ATOM      7  C   UNL     1       6.855   5.966  16.424  0.00  0.00    +0.000 A 
ATOM      8  C   UNL     1       6.439   4.680  16.113  0.00  0.00    +0.000 A 
ATOM      9  C   UNL     1       5.180   4.250  16.524  0.00  0.00    +0.000 A 
ATOM     10  C   UNL     1       4.318   5.109  17.261  0.00  0.00    +0.000 A 
ENDROOT
BRANCH   3  11
ATOM     11  C   UNL     1       2.002   7.784  19.427  0.00  0.00    +0.000 A 
ATOM     12  N   UNL     1       1.707   7.545  20.752  0.00  0.00    +0.000 N 
ATOM     13  C   UNL     1       1.023   8.602  21.301  0.00  0.00    +0.000 A 
ATOM     14  C   UNL     1       0.570   8.805  22.613  0.00  0.00    +0.000 A 
ATOM     15  C   UNL     1      -0.121   9.990  22.884  0.00  0.00    +0.000 A 
ATOM     16  C   UNL     1      -0.349  10.932  21.885  0.00  0.00    +0.000 A 
ATOM     17  C   UNL     1       0.117  10.716  20.584  0.00  0.00    +0.000 A 
ATOM     18  C   UNL     1       0.823   9.531  20.283  0.00  0.00    +0.000 A 
ATOM     19  C   UNL     1       1.433   9.011  19.096  0.00  0.00    +0.000 A 
ATOM     20  H   UNL     1       1.990   6.713  21.251  0.00  0.00    +0.000 HD
BRANCH  19  21
ATOM     21  C   UNL     1       1.459   9.623  17.777  0.00  0.00    +0.000 C 
ATOM     22  O   UNL     1       2.355  10.362  17.380  0.00  0.00    +0.000 OA
ENDBRANCH  19  21
ENDBRANCH   3  11
BRANCH   1  23
ATOM     23  S   UNL     1       2.236   3.236  17.356  0.00  0.00    +0.000 S 
BRANCH  23  24
ATOM     24  C   UNL     1       1.146   3.107  18.826  0.00  0.00    +0.000 C 
BRANCH  24  25
ATOM     25  C   UNL     1       1.637   2.030  19.811  0.00  0.00    +0.000 C 
BRANCH  25  27
ATOM     26  C   UNL     1       3.873   2.512  20.549  0.00  0.00    +0.000 C 
ATOM     27  N   UNL     1       2.456   2.528  20.935  0.00  0.00    +0.000 NA
ATOM     28  C   UNL     1       2.078   3.876  21.354  0.00  0.00    +0.000 C 
ENDBRANCH  25  27
ENDBRANCH  24  25
ENDBRANCH  23  24
ENDBRANCH   1  23
TORSDOF 6
ENDMDL
MODEL 3
REMARK VINA RESULT:      -7.7      2.551      7.523
REMARK  Name = 
REMARK  8 active torsions:
REMARK  status: ('A' for Active; 'I' for Inactive)
REMARK    1  A    between atoms: C_1  and  N_2
REMARK    2  A    between atoms: N_2  and  C_3
REMARK    3  A    between atoms: N_2  and  C_4
REMARK    4  A    between atoms: C_4  and  C_5
REMARK    5  A    between atoms: C_5  and  S_6
REMARK    6  A    between atoms: S_6  and  C_7
REMARK    7  A    between atoms: C_9  and  C_10
REMARK    8  A    between atoms: C_18  and  C_19
REMARK                            x       y       z     vdW  Elec       q    Type
REMARK                         _______ _______ _______ _____ _____    ______ ____
ROOT
ATOM      1  C   UNL     1       4.208   4.704  18.959  0.00  0.00    +0.000 A 
ATOM      2  N   UNL     1       3.379   5.551  19.598  0.00  0.00    +0.000 NA
ATOM      3  C   UNL     1       3.104   6.677  18.944  0.00  0.00    +0.000 A 
ATOM      4  N   UNL     1       3.582   7.042  17.749  0.00  0.00    +0.000 NA
ATOM      5  C   UNL     1       4.438   6.205  17.156  0.00  0.00    +0.000 A 
ATOM      6  C   UNL     1       4.974   6.571  15.926  0.00  0.00    +0.000 A 
ATOM      7  C   UNL     1       5.872   5.751  15.238  0.00  0.00    +0.000 A 
ATOM      8  C   UNL     1       6.239   4.528  15.781  0.00  0.00    +0.000 A 
ATOM      9  C   UNL     1       5.713   4.140  17.010  0.00  0.00    +0.000 A 
ATOM     10  C   UNL     1       4.809   4.979  17.717  0.00  0.00    +0.000 A 
ENDROOT
BRANCH   3  11
ATOM     11  C   UNL     1       2.219   7.616  19.604  0.00  0.00    +0.000 A 
ATOM     12  N   UNL     1       1.879   7.467  20.931  0.00  0.00    +0.000 N 
ATOM     13  C   UNL     1       1.103   8.517  21.359  0.00  0.00    +0.000 A 
ATOM     14  C   UNL     1       0.577   8.795  22.629  0.00  0.00    +0.000 A 
ATOM     15  C   UNL     1      -0.202   9.947  22.770  0.00  0.00    +0.000 A 
ATOM     16  C   UNL     1      -0.444  10.786  21.685  0.00  0.00    +0.000 A 
ATOM     17  C   UNL     1       0.095  10.496  20.428  0.00  0.00    +0.000 A 
ATOM     18  C   UNL     1       0.889   9.342  20.258  0.00  0.00    +0.000 A 
ATOM     19  C   UNL     1       1.587   8.769  19.146  0.00  0.00    +0.000 A 
ATOM     20  H   UNL     1       2.194   6.701  21.510  0.00  0.00    +0.000 HD
BRANCH  19  21
ATOM     21  C   UNL     1       1.634   9.270  17.781  0.00  0.00    +0.000 C 
ATOM     22  O   UNL     1       2.236  10.285  17.443  0.00  0.00    +0.000 OA
ENDBRANCH  19  21
ENDBRANCH   3  11
BRANCH   1  23
ATOM     23  S   UNL     1       4.445   3.140  19.799  0.00  0.00    +0.000 S 
BRANCH  23  24
ATOM     24  C   UNL     1       3.301   2.104  18.807  0.00  0.00    +0.000 C 
BRANCH  24  25
ATOM     25  C   UNL     1       1.962   1.873  19.533  0.00  0.00    +0.000 C 
BRANCH  25  27
ATOM     26  C   UNL     1       0.722   3.787  20.293  0.00  0.00    +0.000 C 
ATOM     27  N   UNL     1       0.887   2.827  19.193  0.00  0.00    +0.000 NA
ATOM     28  C   UNL     1       1.147   3.549  17.949  0.00  0.00    +0.000 C 
ENDBRANCH  25  27
ENDBRANCH  24  25
ENDBRANCH  23  24
ENDBRANCH   1  23
TORSDOF 6
ENDMDL
MODEL 4
REMARK VINA RESULT:      -7.6      3.022      5.502
REMARK  Name = 
REMARK  8 active torsions:
REMARK  status: ('A' for Active; 'I' for Inactive)
REMARK    1  A    between atoms: C_1  and  N_2
REMARK    2  A    between atoms: N_2  and  C_3
REMARK    3  A    between atoms: N_2  and  C_4
REMARK    4  A    between atoms: C_4  and  C_5
REMARK    5  A    between atoms: C_5  and  S_6
REMARK    6  A    between atoms: S_6  and  C_7
REMARK    7  A    between atoms: C_9  and  C_10
REMARK    8  A    between atoms: C_18  and  C_19
REMARK                            x       y       z     vdW  Elec       q    Type
REMARK                         _______ _______ _______ _____ _____    ______ ____
ROOT
ATOM      1  C   UNL     1       0.395  10.093  19.276  0.00  0.00    +0.000 A 
ATOM      2  N   UNL     1       1.165   9.234  18.581  0.00  0.00    +0.000 NA
ATOM      3  C   UNL     1       1.703   8.248  19.295  0.00  0.00    +0.000 A 
ATOM      4  N   UNL     1       1.567   8.051  20.611  0.00  0.00    +0.000 NA
ATOM      5  C   UNL     1       0.837   8.942  21.287  0.00  0.00    +0.000 A 
ATOM      6  C   UNL     1       0.703   8.780  22.661  0.00  0.00    +0.000 A 
ATOM      7  C   UNL     1      -0.048   9.664  23.440  0.00  0.00    +0.000 A 
ATOM      8  C   UNL     1      -0.693  10.734  22.836  0.00  0.00    +0.000 A 
ATOM      9  C   UNL     1      -0.575  10.914  21.460  0.00  0.00    +0.000 A 
ATOM     10  C   UNL     1       0.199  10.022  20.668  0.00  0.00    +0.000 A 
ENDROOT
BRANCH   3  11
ATOM     11  C   UNL     1       2.542   7.307  18.580  0.00  0.00    +0.000 A 
ATOM     12  N   UNL     1       3.416   7.729  17.602  0.00  0.00    +0.000 N 
ATOM     13  C   UNL     1       4.163   6.679  17.125  0.00  0.00    +0.000 A 
ATOM     14  C   UNL     1       5.192   6.657  16.172  0.00  0.00    +0.000 A 
ATOM     15  C   UNL     1       5.770   5.421  15.871  0.00  0.00    +0.000 A 
ATOM     16  C   UNL     1       5.339   4.255  16.499  0.00  0.00    +0.000 A 
ATOM     17  C   UNL     1       4.317   4.297  17.452  0.00  0.00    +0.000 A 
ATOM     18  C   UNL     1       3.719   5.533  17.779  0.00  0.00    +0.000 A 
ATOM     19  C   UNL     1       2.687   5.928  18.692  0.00  0.00    +0.000 A 
ATOM     20  H   UNL     1       3.510   8.691  17.307  0.00  0.00    +0.000 HD
BRANCH  19  21
ATOM     21  C   UNL     1       1.914   5.068  19.575  0.00  0.00    +0.000 C 
ATOM     22  O   UNL     1       1.264   4.099  19.193  0.00  0.00    +0.000 OA
ENDBRANCH  19  21
ENDBRANCH   3  11
BRANCH   1  23
ATOM     23  S   UNL     1      -0.426  11.323  18.267  0.00  0.00    +0.000 S 
BRANCH  23  24
ATOM     24  C   UNL     1      -2.046  10.486  18.055  0.00  0.00    +0.000 C 
BRANCH  24  25
ATOM     25  C   UNL     1      -2.248   9.984  16.613  0.00  0.00    +0.000 C 
BRANCH  25  27
ATOM     26  C   UNL     1      -3.307  10.195  14.465  0.00  0.00    +0.000 C 
ATOM     27  N   UNL     1      -3.046  10.871  15.743  0.00  0.00    +0.000 NA
ATOM     28  C   UNL     1      -4.312  11.270  16.353  0.00  0.00    +0.000 C 
ENDBRANCH  25  27
ENDBRANCH  24  25
ENDBRANCH  23  24
ENDBRANCH   1  23
TORSDOF 6
ENDMDL
MODEL 5
REMARK VINA RESULT:      -7.4      2.310      7.366
REMARK  Name = 
REMARK  8 active torsions:
REMARK  status: ('A' for Active; 'I' for Inactive)
REMARK    1  A    between atoms: C_1  and  N_2
REMARK    2  A    between atoms: N_2  and  C_3
REMARK    3  A    between atoms: N_2  and  C_4
REMARK    4  A    between atoms: C_4  and  C_5
REMARK    5  A    between atoms: C_5  and  S_6
REMARK    6  A    between atoms: S_6  and  C_7
REMARK    7  A    between atoms: C_9  and  C_10
REMARK    8  A    between atoms: C_18  and  C_19
REMARK                            x       y       z     vdW  Elec       q    Type
REMARK                         _______ _______ _______ _____ _____    ______ ____
ROOT
ATOM      1  C   UNL     1       4.288   5.295  19.053  0.00  0.00    +0.000 A 
ATOM      2  N   UNL     1       3.679   6.439  19.418  0.00  0.00    +0.000 NA
ATOM      3  C   UNL     1       2.386   6.324  19.715  0.00  0.00    +0.000 A 
ATOM      4  N   UNL     1       1.653   5.206  19.665  0.00  0.00    +0.000 NA
ATOM      5  C   UNL     1       2.269   4.094  19.255  0.00  0.00    +0.000 A 
ATOM      6  C   UNL     1       1.525   2.923  19.165  0.00  0.00    +0.000 A 
ATOM      7  C   UNL     1       2.095   1.715  18.751  0.00  0.00    +0.000 A 
ATOM      8  C   UNL     1       3.443   1.668  18.428  0.00  0.00    +0.000 A 
ATOM      9  C   UNL     1       4.209   2.828  18.515  0.00  0.00    +0.000 A 
ATOM     10  C   UNL     1       3.627   4.060  18.924  0.00  0.00    +0.000 A 
ENDROOT
BRANCH   3  11
ATOM     11  C   UNL     1       1.696   7.537  20.107  0.00  0.00    +0.000 A 
ATOM     12  N   UNL     1       1.261   7.725  21.401  0.00  0.00    +0.000 N 
ATOM     13  C   UNL     1       0.713   8.975  21.558  0.00  0.00    +0.000 A 
ATOM     14  C   UNL     1       0.195   9.600  22.701  0.00  0.00    +0.000 A 
ATOM     15  C   UNL     1      -0.318  10.893  22.557  0.00  0.00    +0.000 A 
ATOM     16  C   UNL     1      -0.310  11.534  21.321  0.00  0.00    +0.000 A 
ATOM     17  C   UNL     1       0.218  10.897  20.193  0.00  0.00    +0.000 A 
ATOM     18  C   UNL     1       0.746   9.594  20.311  0.00  0.00    +0.000 A 
ATOM     19  C   UNL     1       1.359   8.681  19.392  0.00  0.00    +0.000 A 
ATOM     20  H   UNL     1       1.367   7.039  22.137  0.00  0.00    +0.000 HD
BRANCH  19  21
ATOM     21  C   UNL     1       1.588   8.884  17.969  0.00  0.00    +0.000 C 
ATOM     22  O   UNL     1       2.701   8.962  17.458  0.00  0.00    +0.000 OA
ENDBRANCH  19  21
ENDBRANCH   3  11
BRANCH   1  23
ATOM     23  S   UNL     1       6.053   5.455  18.797  0.00  0.00    +0.000 S 
BRANCH  23  24
ATOM     24  C   UNL     1       6.031   6.452  17.257  0.00  0.00    +0.000 C 
BRANCH  24  25
ATOM     25  C   UNL     1       5.262   5.743  16.126  0.00  0.00    +0.000 C 
BRANCH  25  27
ATOM     26  C   UNL     1       5.364   4.308  14.200  0.00  0.00    +0.000 C 
ATOM     27  N   UNL     1       5.959   4.595  15.512  0.00  0.00    +0.000 NA
ATOM     28  C   UNL     1       7.394   4.824  15.359  0.00  0.00    +0.000 C 
ENDBRANCH  25  27
ENDBRANCH  24  25
ENDBRANCH  23  24
ENDBRANCH   1  23
TORSDOF 6
ENDMDL
MODEL 6
REMARK VINA RESULT:      -7.3      3.029      7.427
REMARK  Name = 
REMARK  8 active torsions:
REMARK  status: ('A' for Active; 'I' for Inactive)
REMARK    1  A    between atoms: C_1  and  N_2
REMARK    2  A    between atoms: N_2  and  C_3
REMARK    3  A    between atoms: N_2  and  C_4
REMARK    4  A    between atoms: C_4  and  C_5
REMARK    5  A    between atoms: C_5  and  S_6
REMARK    6  A    between atoms: S_6  and  C_7
REMARK    7  A    between atoms: C_9  and  C_10
REMARK    8  A    between atoms: C_18  and  C_19
REMARK                            x       y       z     vdW  Elec       q    Type
REMARK                         _______ _______ _______ _____ _____    ______ ____
ROOT
ATOM      1  C   UNL     1       3.850   5.900  17.541  0.00  0.00    +0.000 A 
ATOM      2  N   UNL     1       3.232   6.950  18.115  0.00  0.00    +0.000 NA
ATOM      3  C   UNL     1       2.406   6.645  19.113  0.00  0.00    +0.000 A 
ATOM      4  N   UNL     1       2.127   5.420  19.571  0.00  0.00    +0.000 NA
ATOM      5  C   UNL     1       2.716   4.391  18.955  0.00  0.00    +0.000 A 
ATOM      6  C   UNL     1       2.422   3.104  19.390  0.00  0.00    +0.000 A 
ATOM      7  C   UNL     1       3.000   1.975  18.803  0.00  0.00    +0.000 A 
ATOM      8  C   UNL     1       3.905   2.130  17.762  0.00  0.00    +0.000 A 
ATOM      9  C   UNL     1       4.217   3.411  17.312  0.00  0.00    +0.000 A 
ATOM     10  C   UNL     1       3.619   4.559  17.900  0.00  0.00    +0.000 A 
ENDROOT
BRANCH   3  11
ATOM     11  C   UNL     1       1.719   7.750  19.752  0.00  0.00    +0.000 A 
ATOM     12  N   UNL     1       1.309   7.673  21.066  0.00  0.00    +0.000 N 
ATOM     13  C   UNL     1       0.759   8.862  21.479  0.00  0.00    +0.000 A 
ATOM     14  C   UNL     1       0.261   9.243  22.733  0.00  0.00    +0.000 A 
ATOM     15  C   UNL     1      -0.259  10.535  22.859  0.00  0.00    +0.000 A 
ATOM     16  C   UNL     1      -0.279  11.409  21.776  0.00  0.00    +0.000 A 
ATOM     17  C   UNL     1       0.230  11.013  20.534  0.00  0.00    +0.000 A 
ATOM     18  C   UNL     1       0.765   9.717  20.380  0.00  0.00    +0.000 A 
ATOM     19  C   UNL     1       1.363   9.011  19.286  0.00  0.00    +0.000 A 
ATOM     20  H   UNL     1       1.432   6.856  21.647  0.00  0.00    +0.000 HD
BRANCH  19  21
ATOM     21  C   UNL     1       1.563   9.495  17.928  0.00  0.00    +0.000 C 
ATOM     22  O   UNL     1       2.328  10.408  17.631  0.00  0.00    +0.000 OA
ENDBRANCH  19  21
ENDBRANCH   3  11
BRANCH   1  23
ATOM     23  S   UNL     1       5.059   6.352  16.299  0.00  0.00    +0.000 S 
BRANCH  23  24
ATOM     24  C   UNL     1       6.095   7.484  17.306  0.00  0.00    +0.000 C 
BRANCH  24  25
ATOM     25  C   UNL     1       7.427   6.828  17.718  0.00  0.00    +0.000 C 
BRANCH  25  27
ATOM     26  C   UNL     1       7.772   4.449  17.700  0.00  0.00    +0.000 C 
ATOM     27  N   UNL     1       7.300   5.584  18.504  0.00  0.00    +0.000 NA
ATOM     28  C   UNL     1       8.043   5.635  19.762  0.00  0.00    +0.000 C 
ENDBRANCH  25  27
ENDBRANCH  24  25
ENDBRANCH  23  24
ENDBRANCH   1  23
TORSDOF 6
ENDMDL
MODEL 7
REMARK VINA RESULT:      -7.2      2.636      7.486
REMARK  Name = 
REMARK  8 active torsions:
REMARK  status: ('A' for Active; 'I' for Inactive)
REMARK    1  A    between atoms: C_1  and  N_2
REMARK    2  A    between atoms: N_2  and  C_3
REMARK    3  A    between atoms: N_2  and  C_4
REMARK    4  A    between atoms: C_4  and  C_5
REMARK    5  A    between atoms: C_5  and  S_6
REMARK    6  A    between atoms: S_6  and  C_7
REMARK    7  A    between atoms: C_9  and  C_10
REMARK    8  A    between atoms: C_18  and  C_19
REMARK                            x       y       z     vdW  Elec       q    Type
REMARK                         _______ _______ _______ _____ _____    ______ ____
ROOT
ATOM      1  C   UNL     1       3.271   4.862  17.410  0.00  0.00    +0.000 A 
ATOM      2  N   UNL     1       2.456   5.788  17.951  0.00  0.00    +0.000 NA
ATOM      3  C   UNL     1       3.000   6.990  18.125  0.00  0.00    +0.000 A 
ATOM      4  N   UNL     1       4.256   7.346  17.838  0.00  0.00    +0.000 NA
ATOM      5  C   UNL     1       5.059   6.398  17.346  0.00  0.00    +0.000 A 
ATOM      6  C   UNL     1       6.380   6.731  17.065  0.00  0.00    +0.000 A 
ATOM      7  C   UNL     1       7.281   5.800  16.543  0.00  0.00    +0.000 A 
ATOM      8  C   UNL     1       6.857   4.505  16.282  0.00  0.00    +0.000 A 
ATOM      9  C   UNL     1       5.538   4.150  16.553  0.00  0.00    +0.000 A 
ATOM     10  C   UNL     1       4.623   5.093  17.096  0.00  0.00    +0.000 A 
ENDROOT
BRANCH   3  11
ATOM     11  C   UNL     1       2.153   8.011  18.710  0.00  0.00    +0.000 A 
ATOM     12  N   UNL     1       1.788   9.132  17.997  0.00  0.00    +0.000 N 
ATOM     13  C   UNL     1       0.920   9.913  18.720  0.00  0.00    +0.000 A 
ATOM     14  C   UNL     1       0.267  11.104  18.371  0.00  0.00    +0.000 A 
ATOM     15  C   UNL     1      -0.561  11.694  19.331  0.00  0.00    +0.000 A 
ATOM     16  C   UNL     1      -0.730  11.116  20.586  0.00  0.00    +0.000 A 
ATOM     17  C   UNL     1      -0.077   9.924  20.913  0.00  0.00    +0.000 A 
ATOM     18  C   UNL     1       0.761   9.304  19.962  0.00  0.00    +0.000 A 
ATOM     19  C   UNL     1       1.548   8.106  19.960  0.00  0.00    +0.000 A 
ATOM     20  H   UNL     1       2.099   9.326  17.055  0.00  0.00    +0.000 HD
BRANCH  19  21
ATOM     21  C   UNL     1       1.711   7.156  21.049  0.00  0.00    +0.000 C 
ATOM     22  O   UNL     1       1.334   5.988  21.003  0.00  0.00    +0.000 OA
ENDBRANCH  19  21
ENDBRANCH   3  11
BRANCH   1  23
ATOM     23  S   UNL     1       2.471   3.299  17.058  0.00  0.00    +0.000 S 
BRANCH  23  24
ATOM     24  C   UNL     1       1.273   3.270  18.447  0.00  0.00    +0.000 C 
BRANCH  24  25
ATOM     25  C   UNL     1       1.742   2.350  19.590  0.00  0.00    +0.000 C 
BRANCH  25  27
ATOM     26  C   UNL     1       2.340   2.756  21.883  0.00  0.00    +0.000 C 
ATOM     27  N   UNL     1       2.763   2.928  20.487  0.00  0.00    +0.000 NA
ATOM     28  C   UNL     1       4.083   2.329  20.298  0.00  0.00    +0.000 C 
ENDBRANCH  25  27
ENDBRANCH  24  25
ENDBRANCH  23  24
ENDBRANCH   1  23
TORSDOF 6
ENDMDL
MODEL 8
REMARK VINA RESULT:      -7.1      2.829      7.161
REMARK  Name = 
REMARK  8 active torsions:
REMARK  status: ('A' for Active; 'I' for Inactive)
REMARK    1  A    between atoms: C_1  and  N_2
REMARK    2  A    between atoms: N_2  and  C_3
REMARK    3  A    between atoms: N_2  and  C_4
REMARK    4  A    between atoms: C_4  and  C_5
REMARK    5  A    between atoms: C_5  and  S_6
REMARK    6  A    between atoms: S_6  and  C_7
REMARK    7  A    between atoms: C_9  and  C_10
REMARK    8  A    between atoms: C_18  and  C_19
REMARK                            x       y       z     vdW  Elec       q    Type
REMARK                         _______ _______ _______ _____ _____    ______ ____
ROOT
ATOM      1  C   UNL     1       4.191   4.998  19.337  0.00  0.00    +0.000 A 
ATOM      2  N   UNL     1       3.642   6.187  19.648  0.00  0.00    +0.000 NA
ATOM      3  C   UNL     1       2.319   6.179  19.797  0.00  0.00    +0.000 A 
ATOM      4  N   UNL     1       1.506   5.127  19.650  0.00  0.00    +0.000 NA
ATOM      5  C   UNL     1       2.070   3.968  19.296  0.00  0.00    +0.000 A 
ATOM      6  C   UNL     1       1.247   2.864  19.106  0.00  0.00    +0.000 A 
ATOM      7  C   UNL     1       1.758   1.616  18.741  0.00  0.00    +0.000 A 
ATOM      8  C   UNL     1       3.125   1.457  18.570  0.00  0.00    +0.000 A 
ATOM      9  C   UNL     1       3.969   2.549  18.758  0.00  0.00    +0.000 A 
ATOM     10  C   UNL     1       3.449   3.822  19.117  0.00  0.00    +0.000 A 
ENDROOT
BRANCH   3  11
ATOM     11  C   UNL     1       1.691   7.443  20.127  0.00  0.00    +0.000 A 
ATOM     12  N   UNL     1       1.210   7.693  21.394  0.00  0.00    +0.000 N 
ATOM     13  C   UNL     1       0.738   8.979  21.495  0.00  0.00    +0.000 A 
ATOM     14  C   UNL     1       0.209   9.666  22.597  0.00  0.00    +0.000 A 
ATOM     15  C   UNL     1      -0.211  10.985  22.398  0.00  0.00    +0.000 A 
ATOM     16  C   UNL     1      -0.105  11.591  21.149  0.00  0.00    +0.000 A 
ATOM     17  C   UNL     1       0.432  10.891  20.063  0.00  0.00    +0.000 A 
ATOM     18  C   UNL     1       0.869   9.561  20.237  0.00  0.00    +0.000 A 
ATOM     19  C   UNL     1       1.463   8.587  19.370  0.00  0.00    +0.000 A 
ATOM     20  H   UNL     1       1.238   7.022  22.150  0.00  0.00    +0.000 HD
BRANCH  19  21
ATOM     21  C   UNL     1       1.770   8.737  17.955  0.00  0.00    +0.000 C 
ATOM     22  O   UNL     1       2.407   9.676  17.487  0.00  0.00    +0.000 OA
ENDBRANCH  19  21
ENDBRANCH   3  11
BRANCH   1  23
ATOM     23  S   UNL     1       5.981   5.011  19.282  0.00  0.00    +0.000 S 
BRANCH  23  24
ATOM     24  C   UNL     1       6.215   4.771  17.477  0.00  0.00    +0.000 C 
BRANCH  24  25
ATOM     25  C   UNL     1       7.354   5.648  16.925  0.00  0.00    +0.000 C 
BRANCH  25  27
ATOM     26  C   UNL     1       5.515   7.166  16.614  0.00  0.00    +0.000 C 
ATOM     27  N   UNL     1       6.979   7.040  16.603  0.00  0.00    +0.000 NA
ATOM     28  C   UNL     1       7.560   8.009  17.531  0.00  0.00    +0.000 C 
ENDBRANCH  25  27
ENDBRANCH  24  25
ENDBRANCH  23  24
ENDBRANCH   1  23
TORSDOF 6
ENDMDL
MODEL 9
REMARK VINA RESULT:      -7.0      1.431      1.598
REMARK  Name = 
REMARK  8 active torsions:
REMARK  status: ('A' for Active; 'I' for Inactive)
REMARK    1  A    between atoms: C_1  and  N_2
REMARK    2  A    between atoms: N_2  and  C_3
REMARK    3  A    between atoms: N_2  and  C_4
REMARK    4  A    between atoms: C_4  and  C_5
REMARK    5  A    between atoms: C_5  and  S_6
REMARK    6  A    between atoms: S_6  and  C_7
REMARK    7  A    between atoms: C_9  and  C_10
REMARK    8  A    between atoms: C_18  and  C_19
REMARK                            x       y       z     vdW  Elec       q    Type
REMARK                         _______ _______ _______ _____ _____    ______ ____
ROOT
ATOM      1  C   UNL     1       2.997   6.008  18.726  0.00  0.00    +0.000 A 
ATOM      2  N   UNL     1       3.769   5.979  17.624  0.00  0.00    +0.000 NA
ATOM      3  C   UNL     1       4.373   4.817  17.385  0.00  0.00    +0.000 A 
ATOM      4  N   UNL     1       4.299   3.711  18.134  0.00  0.00    +0.000 NA
ATOM      5  C   UNL     1       3.565   3.779  19.248  0.00  0.00    +0.000 A 
ATOM      6  C   UNL     1       3.494   2.654  20.062  0.00  0.00    +0.000 A 
ATOM      7  C   UNL     1       2.742   2.641  21.240  0.00  0.00    +0.000 A 
ATOM      8  C   UNL     1       2.032   3.774  21.614  0.00  0.00    +0.000 A 
ATOM      9  C   UNL     1       2.087   4.911  20.812  0.00  0.00    +0.000 A 
ATOM     10  C   UNL     1       2.861   4.929  19.620  0.00  0.00    +0.000 A 
ENDROOT
BRANCH   3  11
ATOM     11  C   UNL     1       5.218   4.749  16.209  0.00  0.00    +0.000 A 
ATOM     12  N   UNL     1       4.882   3.957  15.132  0.00  0.00    +0.000 N 
ATOM     13  C   UNL     1       5.781   4.117  14.106  0.00  0.00    +0.000 A 
ATOM     14  C   UNL     1       5.802   3.551  12.823  0.00  0.00    +0.000 A 
ATOM     15  C   UNL     1       6.865   3.891  11.982  0.00  0.00    +0.000 A 
ATOM     16  C   UNL     1       7.865   4.762  12.406  0.00  0.00    +0.000 A 
ATOM     17  C   UNL     1       7.823   5.323  13.686  0.00  0.00    +0.000 A 
ATOM     18  C   UNL     1       6.758   5.002  14.555  0.00  0.00    +0.000 A 
ATOM     19  C   UNL     1       6.408   5.394  15.887  0.00  0.00    +0.000 A 
ATOM     20  H   UNL     1       4.063   3.366  15.102  0.00  0.00    +0.000 HD
BRANCH  19  21
ATOM     21  C   UNL     1       7.146   6.289  16.766  0.00  0.00    +0.000 C 
ATOM     22  O   UNL     1       6.852   7.466  16.950  0.00  0.00    +0.000 OA
ENDBRANCH  19  21
ENDBRANCH   3  11
BRANCH   1  23
ATOM     23  S   UNL     1       2.088   7.536  18.943  0.00  0.00    +0.000 S 
BRANCH  23  24
ATOM     24  C   UNL     1       1.935   7.522  20.772  0.00  0.00    +0.000 C 
BRANCH  24  25
ATOM     25  C   UNL     1       0.664   8.251  21.246  0.00  0.00    +0.000 C 
BRANCH  25  27
ATOM     26  C   UNL     1       0.772  10.652  21.217  0.00  0.00    +0.000 C 
ATOM     27  N   UNL     1       0.897   9.458  22.064  0.00  0.00    +0.000 NA
ATOM     28  C   UNL     1      -0.026   9.561  23.192  0.00  0.00    +0.000 C 
ENDBRANCH  25  27
ENDBRANCH  24  25
ENDBRANCH  23  24
ENDBRANCH   1  23
TORSDOF 6
ENDMDL
