MODEL 1
REMARK VINA RESULT:      -8.8      0.000      0.000
REMARK  Name = 
REMARK  8 active torsions:
REMARK  status: ('A' for Active; 'I' for Inactive)
REMARK    1  A    between atoms: C_2  and  C_3
REMARK    2  A    between atoms: C_6  and  C_7
REMARK    3  A    between atoms: C_8  and  C_9
REMARK    4  A    between atoms: N_11  and  C_12
REMARK    5  A    between atoms: N_11  and  C_19
REMARK    6  A    between atoms: C_12  and  C_13
REMARK    7  A    between atoms: C_19  and  C_20
REMARK    8  A    between atoms: C_26  and  N_27
REMARK                            x       y       z     vdW  Elec       q    Type
REMARK                         _______ _______ _______ _____ _____    ______ ____
ROOT
ATOM      1  C   UNL     1       7.393   6.443  18.358  0.00  0.00    +0.000 C 
ATOM      2  O   UNL     1       7.943   5.936  19.335  0.00  0.00    +0.000 OA
ATOM      3  N   UNL     1       6.341   5.815  17.688  0.00  0.00    +0.000 N 
ENDROOT
BRANCH   1   5
ATOM      4  C   UNL     1       8.467   8.659  18.690  0.00  0.00    +0.000 C 
ATOM      5  C   UNL     1       7.849   7.788  17.868  0.00  0.00    +0.000 C 
BRANCH   4   9
ATOM      6  C   UNL     1       9.688  12.754  17.968  0.00  0.00    +0.000 A 
ATOM      7  C   UNL     1       8.467  12.288  17.468  0.00  0.00    +0.000 A 
ATOM      8  C   UNL     1       8.069  10.954  17.673  0.00  0.00    +0.000 A 
ATOM      9  C   UNL     1       8.880  10.050  18.373  0.00  0.00    +0.000 A 
ATOM     10  C   UNL     1      10.113  10.531  18.858  0.00  0.00    +0.000 A 
ATOM     11  C   UNL     1      10.513  11.862  18.658  0.00  0.00    +0.000 A 
BRANCH   6  13
ATOM     12  N   UNL     1      10.398  15.237  17.642  0.00  0.00    +0.000 NA
ATOM     13  C   UNL     1      10.076  14.127  17.791  0.00  0.00    +0.000 C 
ENDBRANCH   6  13
ENDBRANCH   4   9
ENDBRANCH   1   5
BRANCH   3  14
ATOM     14  C   UNL     1       5.835   6.242  16.377  0.00  0.00    +0.000 C 
BRANCH  14  15
ATOM     15  C   UNL     1       6.038   5.329  15.174  0.00  0.00    +0.000 A 
ATOM     16  C   UNL     1       5.093   4.415  14.684  0.00  0.00    +0.000 A 
ATOM     17  C   UNL     1       5.341   3.695  13.504  0.00  0.00    +0.000 A 
ATOM     18  C   UNL     1       6.538   3.852  12.805  0.00  0.00    +0.000 A 
ATOM     19  C   UNL     1       7.492   4.743  13.284  0.00  0.00    +0.000 A 
ATOM     20  C   UNL     1       7.235   5.480  14.446  0.00  0.00    +0.000 A 
ENDBRANCH  14  15
ENDBRANCH   3  14
BRANCH   3  21
ATOM     21  C   UNL     1       5.759   4.580  18.275  0.00  0.00    +0.000 C 
BRANCH  21  22
ATOM     22  C   UNL     1       4.444   4.707  19.059  0.00  0.00    +0.000 A 
ATOM     23  C   UNL     1       3.729   5.923  19.057  0.00  0.00    +0.000 A 
ATOM     24  C   UNL     1       2.539   6.077  19.779  0.00  0.00    +0.000 A 
ATOM     25  F   UNL     1       1.876   7.240  19.719  0.00  0.00    +0.000 F 
ATOM     26  C   UNL     1       2.019   5.049  20.548  0.00  0.00    +0.000 A 
ATOM     27  C   UNL     1       2.651   3.811  20.520  0.00  0.00    +0.000 A 
ATOM     28  C   UNL     1       3.818   3.617  19.739  0.00  0.00    +0.000 A 
BRANCH  28  29
ATOM     29  N   UNL     1       4.257   2.213  19.585  0.00  0.00    +0.000 N 
ATOM     30  O   UNL     1       3.736   1.526  18.695  0.00  0.00    +0.000 OA
ATOM     31  O   UNL     1       5.094   1.778  20.387  0.00  0.00    +0.000 OA
ENDBRANCH  28  29
ENDBRANCH  21  22
ENDBRANCH   3  21
TORSDOF 8
ENDMDL
MODEL 2
REMARK VINA RESULT:      -8.7      4.740      8.201
REMARK  Name = 
REMARK  8 active torsions:
REMARK  status: ('A' for Active; 'I' for Inactive)
REMARK    1  A    between atoms: C_2  and  C_3
REMARK    2  A    between atoms: C_6  and  C_7
REMARK    3  A    between atoms: C_8  and  C_9
REMARK    4  A    between atoms: N_11  and  C_12
REMARK    5  A    between atoms: N_11  and  C_19
REMARK    6  A    between atoms: C_12  and  C_13
REMARK    7  A    between atoms: C_19  and  C_20
REMARK    8  A    between atoms: C_26  and  N_27
REMARK                            x       y       z     vdW  Elec       q    Type
REMARK                         _______ _______ _______ _____ _____    ______ ____
ROOT
ATOM      1  C   UNL     1       2.787   8.026  17.922  0.00  0.00    +0.000 C 
ATOM      2  O   UNL     1       3.714   8.828  17.823  0.00  0.00    +0.000 OA
ATOM      3  N   UNL     1       2.994   6.686  18.253  0.00  0.00    +0.000 N 
ENDROOT
BRANCH   1   5
ATOM      4  C   UNL     1       0.946   9.674  18.183  0.00  0.00    +0.000 C 
ATOM      5  C   UNL     1       1.377   8.494  17.694  0.00  0.00    +0.000 C 
BRANCH   4   9
ATOM      6  C   UNL     1      -3.111  11.201  18.205  0.00  0.00    +0.000 A 
ATOM      7  C   UNL     1      -2.738  10.212  17.286  0.00  0.00    +0.000 A 
ATOM      8  C   UNL     1      -1.418   9.725  17.251  0.00  0.00    +0.000 A 
ATOM      9  C   UNL     1      -0.436  10.216  18.123  0.00  0.00    +0.000 A 
ATOM     10  C   UNL     1      -0.823  11.221  19.032  0.00  0.00    +0.000 A 
ATOM     11  C   UNL     1      -2.140  11.707  19.072  0.00  0.00    +0.000 A 
BRANCH   6  13
ATOM     12  N   UNL     1      -5.569  12.051  18.305  0.00  0.00    +0.000 NA
ATOM     13  C   UNL     1      -4.469  11.669  18.265  0.00  0.00    +0.000 C 
ENDBRANCH   6  13
ENDBRANCH   4   9
ENDBRANCH   1   5
BRANCH   3  14
ATOM     14  C   UNL     1       1.968   5.643  18.123  0.00  0.00    +0.000 C 
BRANCH  14  15
ATOM     15  C   UNL     1       1.920   4.522  19.155  0.00  0.00    +0.000 A 
ATOM     16  C   UNL     1       1.845   4.704  20.544  0.00  0.00    +0.000 A 
ATOM     17  C   UNL     1       1.700   3.602  21.402  0.00  0.00    +0.000 A 
ATOM     18  C   UNL     1       1.650   2.301  20.898  0.00  0.00    +0.000 A 
ATOM     19  C   UNL     1       1.737   2.102  19.525  0.00  0.00    +0.000 A 
ATOM     20  C   UNL     1       1.856   3.202  18.668  0.00  0.00    +0.000 A 
ENDBRANCH  14  15
ENDBRANCH   3  14
BRANCH   3  21
ATOM     21  C   UNL     1       4.356   6.256  18.663  0.00  0.00    +0.000 C 
BRANCH  21  22
ATOM     22  C   UNL     1       5.255   5.606  17.601  0.00  0.00    +0.000 A 
ATOM     23  C   UNL     1       4.746   5.313  16.319  0.00  0.00    +0.000 A 
ATOM     24  C   UNL     1       5.535   4.703  15.336  0.00  0.00    +0.000 A 
ATOM     25  F   UNL     1       5.017   4.475  14.121  0.00  0.00    +0.000 F 
ATOM     26  C   UNL     1       6.847   4.336  15.583  0.00  0.00    +0.000 A 
ATOM     27  C   UNL     1       7.412   4.671  16.809  0.00  0.00    +0.000 A 
ATOM     28  C   UNL     1       6.649   5.353  17.790  0.00  0.00    +0.000 A 
BRANCH  28  29
ATOM     29  N   UNL     1       7.414   5.879  18.942  0.00  0.00    +0.000 N 
ATOM     30  O   UNL     1       8.148   6.861  18.764  0.00  0.00    +0.000 OA
ATOM     31  O   UNL     1       7.319   5.279  20.020  0.00  0.00    +0.000 OA
ENDBRANCH  28  29
ENDBRANCH  21  22
ENDBRANCH   3  21
TORSDOF 8
ENDMDL
MODEL 3
REMARK VINA RESULT:      -8.5      4.622      7.853
REMARK  Name = 
REMARK  8 active torsions:
REMARK  status: ('A' for Active; 'I' for Inactive)
REMARK    1  A    between atoms: C_2  and  C_3
REMARK    2  A    between atoms: C_6  and  C_7
REMARK    3  A    between atoms: C_8  and  C_9
REMARK    4  A    between atoms: N_11  and  C_12
REMARK    5  A    between atoms: N_11  and  C_19
REMARK    6  A    between atoms: C_12  and  C_13
REMARK    7  A    between atoms: C_19  and  C_20
REMARK    8  A    between atoms: C_26  and  N_27
REMARK                            x       y       z     vdW  Elec       q    Type
REMARK                         _______ _______ _______ _____ _____    ______ ____
ROOT
ATOM      1  C   UNL     1       3.381   7.141  17.691  0.00  0.00    +0.000 C 
ATOM      2  O   UNL     1       4.396   7.788  17.439  0.00  0.00    +0.000 OA
ATOM      3  N   UNL     1       3.402   5.753  17.839  0.00  0.00    +0.000 N 
ENDROOT
BRANCH   1   5
ATOM      4  C   UNL     1       1.988   9.002  18.570  0.00  0.00    +0.000 C 
ATOM      5  C   UNL     1       2.071   7.856  17.864  0.00  0.00    +0.000 C 
BRANCH   4   9
ATOM      6  C   UNL     1      -1.566  11.344  19.390  0.00  0.00    +0.000 A 
ATOM      7  C   UNL     1      -0.611  11.143  20.394  0.00  0.00    +0.000 A 
ATOM      8  C   UNL     1       0.536  10.364  20.150  0.00  0.00    +0.000 A 
ATOM      9  C   UNL     1       0.755   9.759  18.904  0.00  0.00    +0.000 A 
ATOM     10  C   UNL     1      -0.223   9.958  17.909  0.00  0.00    +0.000 A 
ATOM     11  C   UNL     1      -1.367  10.737  18.148  0.00  0.00    +0.000 A 
BRANCH   6  13
ATOM     12  N   UNL     1      -3.650  12.838  19.833  0.00  0.00    +0.000 NA
ATOM     13  C   UNL     1      -2.717  12.171  19.630  0.00  0.00    +0.000 C 
ENDBRANCH   6  13
ENDBRANCH   4   9
ENDBRANCH   1   5
BRANCH   3  14
ATOM     14  C   UNL     1       2.196   4.916  17.873  0.00  0.00    +0.000 C 
BRANCH  14  15
ATOM     15  C   UNL     1       1.929   4.056  19.103  0.00  0.00    +0.000 A 
ATOM     16  C   UNL     1       1.582   2.696  19.081  0.00  0.00    +0.000 A 
ATOM     17  C   UNL     1       1.461   1.971  20.276  0.00  0.00    +0.000 A 
ATOM     18  C   UNL     1       1.658   2.586  21.513  0.00  0.00    +0.000 A 
ATOM     19  C   UNL     1       1.988   3.936  21.555  0.00  0.00    +0.000 A 
ATOM     20  C   UNL     1       2.135   4.654  20.362  0.00  0.00    +0.000 A 
ENDBRANCH  14  15
ENDBRANCH   3  14
BRANCH   3  21
ATOM     21  C   UNL     1       4.716   5.058  17.859  0.00  0.00    +0.000 C 
BRANCH  21  22
ATOM     22  C   UNL     1       5.485   4.937  16.535  0.00  0.00    +0.000 A 
ATOM     23  C   UNL     1       4.856   4.402  15.392  0.00  0.00    +0.000 A 
ATOM     24  C   UNL     1       5.537   4.260  14.176  0.00  0.00    +0.000 A 
ATOM     25  F   UNL     1       4.887   3.779  13.108  0.00  0.00    +0.000 F 
ATOM     26  C   UNL     1       6.868   4.616  14.045  0.00  0.00    +0.000 A 
ATOM     27  C   UNL     1       7.507   5.215  15.125  0.00  0.00    +0.000 A 
ATOM     28  C   UNL     1       6.812   5.431  16.342  0.00  0.00    +0.000 A 
BRANCH  28  29
ATOM     29  N   UNL     1       7.502   6.294  17.326  0.00  0.00    +0.000 N 
ATOM     30  O   UNL     1       7.863   5.793  18.400  0.00  0.00    +0.000 OA
ATOM     31  O   UNL     1       7.641   7.492  17.046  0.00  0.00    +0.000 OA
ENDBRANCH  28  29
ENDBRANCH  21  22
ENDBRANCH   3  21
TORSDOF 8
ENDMDL
MODEL 4
REMARK VINA RESULT:      -8.5      4.636      7.719
REMARK  Name = 
REMARK  8 active torsions:
REMARK  status: ('A' for Active; 'I' for Inactive)
REMARK    1  A    between atoms: C_2  and  C_3
REMARK    2  A    between atoms: C_6  and  C_7
REMARK    3  A    between atoms: C_8  and  C_9
REMARK    4  A    between atoms: N_11  and  C_12
REMARK    5  A    between atoms: N_11  and  C_19
REMARK    6  A    between atoms: C_12  and  C_13
REMARK    7  A    between atoms: C_19  and  C_20
REMARK    8  A    between atoms: C_26  and  N_27
REMARK                            x       y       z     vdW  Elec       q    Type
REMARK                         _______ _______ _______ _____ _____    ______ ____
ROOT
ATOM      1  C   UNL     1       3.499   7.423  17.589  0.00  0.00    +0.000 C 
ATOM      2  O   UNL     1       4.607   7.840  17.255  0.00  0.00    +0.000 OA
ATOM      3  N   UNL     1       3.289   6.100  17.980  0.00  0.00    +0.000 N 
ENDROOT
BRANCH   1   5
ATOM      4  C   UNL     1       1.902   8.945  18.733  0.00  0.00    +0.000 C 
ATOM      5  C   UNL     1       2.326   8.363  17.594  0.00  0.00    +0.000 C 
BRANCH   4   9
ATOM      6  C   UNL     1      -1.630  11.365  19.407  0.00  0.00    +0.000 A 
ATOM      7  C   UNL     1      -1.493  10.639  18.218  0.00  0.00    +0.000 A 
ATOM      8  C   UNL     1      -0.341   9.869  17.974  0.00  0.00    +0.000 A 
ATOM      9  C   UNL     1       0.707   9.810  18.904  0.00  0.00    +0.000 A 
ATOM     10  C   UNL     1       0.561  10.558  20.090  0.00  0.00    +0.000 A 
ATOM     11  C   UNL     1      -0.589  11.325  20.337  0.00  0.00    +0.000 A 
BRANCH   6  13
ATOM     12  N   UNL     1      -3.788  12.741  19.881  0.00  0.00    +0.000 NA
ATOM     13  C   UNL     1      -2.824  12.121  19.670  0.00  0.00    +0.000 C 
ENDBRANCH   6  13
ENDBRANCH   4   9
ENDBRANCH   1   5
BRANCH   3  14
ATOM     14  C   UNL     1       1.960   5.492  18.128  0.00  0.00    +0.000 C 
BRANCH  14  15
ATOM     15  C   UNL     1       1.752   4.422  19.193  0.00  0.00    +0.000 A 
ATOM     16  C   UNL     1       1.373   3.094  18.944  0.00  0.00    +0.000 A 
ATOM     17  C   UNL     1       1.311   2.160  19.991  0.00  0.00    +0.000 A 
ATOM     18  C   UNL     1       1.601   2.534  21.304  0.00  0.00    +0.000 A 
ATOM     19  C   UNL     1       1.965   3.848  21.571  0.00  0.00    +0.000 A 
ATOM     20  C   UNL     1       2.052   4.773  20.525  0.00  0.00    +0.000 A 
ENDBRANCH  14  15
ENDBRANCH   3  14
BRANCH   3  21
ATOM     21  C   UNL     1       4.469   5.214  18.161  0.00  0.00    +0.000 C 
BRANCH  21  22
ATOM     22  C   UNL     1       5.348   4.930  16.934  0.00  0.00    +0.000 A 
ATOM     23  C   UNL     1       4.759   4.595  15.697  0.00  0.00    +0.000 A 
ATOM     24  C   UNL     1       5.534   4.310  14.567  0.00  0.00    +0.000 A 
ATOM     25  F   UNL     1       4.929   4.030  13.404  0.00  0.00    +0.000 F 
ATOM     26  C   UNL     1       6.918   4.320  14.615  0.00  0.00    +0.000 A 
ATOM     27  C   UNL     1       7.541   4.716  15.794  0.00  0.00    +0.000 A 
ATOM     28  C   UNL     1       6.770   5.076  16.928  0.00  0.00    +0.000 A 
BRANCH  28  29
ATOM     29  N   UNL     1       7.519   5.716  18.031  0.00  0.00    +0.000 N 
ATOM     30  O   UNL     1       7.674   6.944  18.005  0.00  0.00    +0.000 OA
ATOM     31  O   UNL     1       7.996   4.982  18.907  0.00  0.00    +0.000 OA
ENDBRANCH  28  29
ENDBRANCH  21  22
ENDBRANCH   3  21
TORSDOF 8
ENDMDL
MODEL 5
REMARK VINA RESULT:      -8.5      0.240      1.051
REMARK  Name = 
REMARK  8 active torsions:
REMARK  status: ('A' for Active; 'I' for Inactive)
REMARK    1  A    between atoms: C_2  and  C_3
REMARK    2  A    between atoms: C_6  and  C_7
REMARK    3  A    between atoms: C_8  and  C_9
REMARK    4  A    between atoms: N_11  and  C_12
REMARK    5  A    between atoms: N_11  and  C_19
REMARK    6  A    between atoms: C_12  and  C_13
REMARK    7  A    between atoms: C_19  and  C_20
REMARK    8  A    between atoms: C_26  and  N_27
REMARK                            x       y       z     vdW  Elec       q    Type
REMARK                         _______ _______ _______ _____ _____    ______ ____
ROOT
ATOM      1  C   UNL     1       7.451   6.255  18.490  0.00  0.00    +0.000 C 
ATOM      2  O   UNL     1       7.980   5.690  19.446  0.00  0.00    +0.000 OA
ATOM      3  N   UNL     1       6.386   5.688  17.787  0.00  0.00    +0.000 N 
ENDROOT
BRANCH   1   5
ATOM      4  C   UNL     1       8.504   8.459  18.948  0.00  0.00    +0.000 C 
ATOM      5  C   UNL     1       7.948   7.608  18.063  0.00  0.00    +0.000 C 
BRANCH   4   9
ATOM      6  C   UNL     1       9.799  12.484  17.996  0.00  0.00    +0.000 A 
ATOM      7  C   UNL     1      10.545  11.698  18.882  0.00  0.00    +0.000 A 
ATOM      8  C   UNL     1      10.123  10.399  19.220  0.00  0.00    +0.000 A 
ATOM      9  C   UNL     1       8.944   9.854  18.691  0.00  0.00    +0.000 A 
ATOM     10  C   UNL     1       8.197  10.663  17.812  0.00  0.00    +0.000 A 
ATOM     11  C   UNL     1       8.616  11.959  17.470  0.00  0.00    +0.000 A 
BRANCH   6  13
ATOM     12  N   UNL     1      10.624  14.860  17.327  0.00  0.00    +0.000 NA
ATOM     13  C   UNL     1      10.251  13.797  17.623  0.00  0.00    +0.000 C 
ENDBRANCH   6  13
ENDBRANCH   4   9
ENDBRANCH   1   5
BRANCH   3  14
ATOM     14  C   UNL     1       5.901   6.189  16.494  0.00  0.00    +0.000 C 
BRANCH  14  15
ATOM     15  C   UNL     1       6.087   5.325  15.252  0.00  0.00    +0.000 A 
ATOM     16  C   UNL     1       5.124   4.453  14.721  0.00  0.00    +0.000 A 
ATOM     17  C   UNL     1       5.359   3.781  13.511  0.00  0.00    +0.000 A 
ATOM     18  C   UNL     1       6.560   3.945  12.820  0.00  0.00    +0.000 A 
ATOM     19  C   UNL     1       7.531   4.794  13.338  0.00  0.00    +0.000 A 
ATOM     20  C   UNL     1       7.287   5.484  14.532  0.00  0.00    +0.000 A 
ENDBRANCH  14  15
ENDBRANCH   3  14
BRANCH   3  21
ATOM     21  C   UNL     1       5.766   4.445  18.314  0.00  0.00    +0.000 C 
BRANCH  21  22
ATOM     22  C   UNL     1       4.450   4.575  19.096  0.00  0.00    +0.000 A 
ATOM     23  C   UNL     1       3.742   5.795  19.103  0.00  0.00    +0.000 A 
ATOM     24  C   UNL     1       2.551   5.950  19.823  0.00  0.00    +0.000 A 
ATOM     25  F   UNL     1       1.896   7.118  19.771  0.00  0.00    +0.000 F 
ATOM     26  C   UNL     1       2.023   4.920  20.582  0.00  0.00    +0.000 A 
ATOM     27  C   UNL     1       2.648   3.678  20.547  0.00  0.00    +0.000 A 
ATOM     28  C   UNL     1       3.816   3.483  19.767  0.00  0.00    +0.000 A 
BRANCH  28  29
ATOM     29  N   UNL     1       4.246   2.078  19.602  0.00  0.00    +0.000 N 
ATOM     30  O   UNL     1       5.115   1.633  20.364  0.00  0.00    +0.000 OA
ATOM     31  O   UNL     1       3.747   1.427  18.674  0.00  0.00    +0.000 OA
ENDBRANCH  28  29
ENDBRANCH  21  22
ENDBRANCH   3  21
TORSDOF 8
ENDMDL
MODEL 6
REMARK VINA RESULT:      -8.4      4.801      7.806
REMARK  Name = 
REMARK  8 active torsions:
REMARK  status: ('A' for Active; 'I' for Inactive)
REMARK    1  A    between atoms: C_2  and  C_3
REMARK    2  A    between atoms: C_6  and  C_7
REMARK    3  A    between atoms: C_8  and  C_9
REMARK    4  A    between atoms: N_11  and  C_12
REMARK    5  A    between atoms: N_11  and  C_19
REMARK    6  A    between atoms: C_12  and  C_13
REMARK    7  A    between atoms: C_19  and  C_20
REMARK    8  A    between atoms: C_26  and  N_27
REMARK                            x       y       z     vdW  Elec       q    Type
REMARK                         _______ _______ _______ _____ _____    ______ ____
ROOT
ATOM      1  C   UNL     1       2.177   8.256  18.253  0.00  0.00    +0.000 C 
ATOM      2  O   UNL     1       2.159   8.754  17.128  0.00  0.00    +0.000 OA
ATOM      3  N   UNL     1       2.800   7.035  18.516  0.00  0.00    +0.000 N 
ENDROOT
BRANCH   1   5
ATOM      4  C   UNL     1       0.418   9.732  19.202  0.00  0.00    +0.000 C 
ATOM      5  C   UNL     1       1.522   8.982  19.394  0.00  0.00    +0.000 C 
BRANCH   4   9
ATOM      6  C   UNL     1      -1.685  12.029  22.218  0.00  0.00    +0.000 A 
ATOM      7  C   UNL     1      -1.886  12.303  20.860  0.00  0.00    +0.000 A 
ATOM      8  C   UNL     1      -1.192  11.583  19.870  0.00  0.00    +0.000 A 
ATOM      9  C   UNL     1      -0.274  10.579  20.208  0.00  0.00    +0.000 A 
ATOM     10  C   UNL     1      -0.071  10.325  21.580  0.00  0.00    +0.000 A 
ATOM     11  C   UNL     1      -0.764  11.040  22.570  0.00  0.00    +0.000 A 
BRANCH   6  13
ATOM     12  N   UNL     1      -3.014  13.322  24.044  0.00  0.00    +0.000 NA
ATOM     13  C   UNL     1      -2.423  12.740  23.225  0.00  0.00    +0.000 C 
ENDBRANCH   6  13
ENDBRANCH   4   9
ENDBRANCH   1   5
BRANCH   3  14
ATOM     14  C   UNL     1       2.623   6.278  19.762  0.00  0.00    +0.000 C 
BRANCH  14  15
ATOM     15  C   UNL     1       1.954   4.909  19.705  0.00  0.00    +0.000 A 
ATOM     16  C   UNL     1       1.485   4.286  18.539  0.00  0.00    +0.000 A 
ATOM     17  C   UNL     1       0.978   2.977  18.584  0.00  0.00    +0.000 A 
ATOM     18  C   UNL     1       0.907   2.275  19.788  0.00  0.00    +0.000 A 
ATOM     19  C   UNL     1       1.355   2.882  20.955  0.00  0.00    +0.000 A 
ATOM     20  C   UNL     1       1.884   4.177  20.907  0.00  0.00    +0.000 A 
ENDBRANCH  14  15
ENDBRANCH   3  14
BRANCH   3  21
ATOM     21  C   UNL     1       3.611   6.403  17.442  0.00  0.00    +0.000 C 
BRANCH  21  22
ATOM     22  C   UNL     1       5.128   6.296  17.656  0.00  0.00    +0.000 A 
ATOM     23  C   UNL     1       5.935   7.452  17.626  0.00  0.00    +0.000 A 
ATOM     24  C   UNL     1       7.323   7.384  17.797  0.00  0.00    +0.000 A 
ATOM     25  F   UNL     1       8.044   8.514  17.795  0.00  0.00    +0.000 F 
ATOM     26  C   UNL     1       7.973   6.176  17.979  0.00  0.00    +0.000 A 
ATOM     27  C   UNL     1       7.210   5.019  18.089  0.00  0.00    +0.000 A 
ATOM     28  C   UNL     1       5.797   5.078  17.989  0.00  0.00    +0.000 A 
BRANCH  28  29
ATOM     29  N   UNL     1       5.078   3.842  18.368  0.00  0.00    +0.000 N 
ATOM     30  O   UNL     1       4.432   3.243  17.498  0.00  0.00    +0.000 OA
ATOM     31  O   UNL     1       5.120   3.491  19.555  0.00  0.00    +0.000 OA
ENDBRANCH  28  29
ENDBRANCH  21  22
ENDBRANCH   3  21
TORSDOF 8
ENDMDL
MODEL 7
REMARK VINA RESULT:      -8.3      4.773      7.640
REMARK  Name = 
REMARK  8 active torsions:
REMARK  status: ('A' for Active; 'I' for Inactive)
REMARK    1  A    between atoms: C_2  and  C_3
REMARK    2  A    between atoms: C_6  and  C_7
REMARK    3  A    between atoms: C_8  and  C_9
REMARK    4  A    between atoms: N_11  and  C_12
REMARK    5  A    between atoms: N_11  and  C_19
REMARK    6  A    between atoms: C_12  and  C_13
REMARK    7  A    between atoms: C_19  and  C_20
REMARK    8  A    between atoms: C_26  and  N_27
REMARK                            x       y       z     vdW  Elec       q    Type
REMARK                         _______ _______ _______ _____ _____    ______ ____
ROOT
ATOM      1  C   UNL     1       2.180   8.371  18.369  0.00  0.00    +0.000 C 
ATOM      2  O   UNL     1       2.186   8.684  17.179  0.00  0.00    +0.000 OA
ATOM      3  N   UNL     1       2.525   7.091  18.804  0.00  0.00    +0.000 N 
ENDROOT
BRANCH   1   5
ATOM      4  C   UNL     1       0.522   9.564  19.785  0.00  0.00    +0.000 C 
ATOM      5  C   UNL     1       1.803   9.398  19.400  0.00  0.00    +0.000 C 
BRANCH   4   9
ATOM      6  C   UNL     1      -0.827  12.657  22.506  0.00  0.00    +0.000 A 
ATOM      7  C   UNL     1      -1.013  11.308  22.829  0.00  0.00    +0.000 A 
ATOM      8  C   UNL     1      -0.603  10.293  21.945  0.00  0.00    +0.000 A 
ATOM      9  C   UNL     1      -0.006  10.597  20.713  0.00  0.00    +0.000 A 
ATOM     10  C   UNL     1       0.161  11.959  20.395  0.00  0.00    +0.000 A 
ATOM     11  C   UNL     1      -0.244  12.975  21.277  0.00  0.00    +0.000 A 
BRANCH   6  13
ATOM     12  N   UNL     1      -1.516  14.527  24.179  0.00  0.00    +0.000 NA
ATOM     13  C   UNL     1      -1.212  13.691  23.427  0.00  0.00    +0.000 C 
ENDBRANCH   6  13
ENDBRANCH   4   9
ENDBRANCH   1   5
BRANCH   3  14
ATOM     14  C   UNL     1       2.280   6.595  20.165  0.00  0.00    +0.000 C 
BRANCH  14  15
ATOM     15  C   UNL     1       1.891   5.135  20.359  0.00  0.00    +0.000 A 
ATOM     16  C   UNL     1       1.072   4.393  19.494  0.00  0.00    +0.000 A 
ATOM     17  C   UNL     1       0.861   3.022  19.711  0.00  0.00    +0.000 A 
ATOM     18  C   UNL     1       1.439   2.370  20.801  0.00  0.00    +0.000 A 
ATOM     19  C   UNL     1       2.242   3.093  21.676  0.00  0.00    +0.000 A 
ATOM     20  C   UNL     1       2.474   4.454  21.446  0.00  0.00    +0.000 A 
ENDBRANCH  14  15
ENDBRANCH   3  14
BRANCH   3  21
ATOM     21  C   UNL     1       3.079   6.128  17.816  0.00  0.00    +0.000 C 
BRANCH  21  22
ATOM     22  C   UNL     1       4.606   5.992  17.724  0.00  0.00    +0.000 A 
ATOM     23  C   UNL     1       5.414   7.135  17.556  0.00  0.00    +0.000 A 
ATOM     24  C   UNL     1       6.807   7.041  17.448  0.00  0.00    +0.000 A 
ATOM     25  F   UNL     1       7.536   8.159  17.324  0.00  0.00    +0.000 F 
ATOM     26  C   UNL     1       7.456   5.819  17.478  0.00  0.00    +0.000 A 
ATOM     27  C   UNL     1       6.706   4.672  17.715  0.00  0.00    +0.000 A 
ATOM     28  C   UNL     1       5.303   4.756  17.897  0.00  0.00    +0.000 A 
BRANCH  28  29
ATOM     29  N   UNL     1       4.648   3.524  18.389  0.00  0.00    +0.000 N 
ATOM     30  O   UNL     1       4.941   3.111  19.519  0.00  0.00    +0.000 OA
ATOM     31  O   UNL     1       3.871   2.938  17.623  0.00  0.00    +0.000 OA
ENDBRANCH  28  29
ENDBRANCH  21  22
ENDBRANCH   3  21
TORSDOF 8
ENDMDL
MODEL 8
REMARK VINA RESULT:      -8.2      4.750      7.645
REMARK  Name = 
REMARK  8 active torsions:
REMARK  status: ('A' for Active; 'I' for Inactive)
REMARK    1  A    between atoms: C_2  and  C_3
REMARK    2  A    between atoms: C_6  and  C_7
REMARK    3  A    between atoms: C_8  and  C_9
REMARK    4  A    between atoms: N_11  and  C_12
REMARK    5  A    between atoms: N_11  and  C_19
REMARK    6  A    between atoms: C_12  and  C_13
REMARK    7  A    between atoms: C_19  and  C_20
REMARK    8  A    between atoms: C_26  and  N_27
REMARK                            x       y       z     vdW  Elec       q    Type
REMARK                         _______ _______ _______ _____ _____    ______ ____
ROOT
ATOM      1  C   UNL     1       2.171   8.317  18.351  0.00  0.00    +0.000 C 
ATOM      2  O   UNL     1       2.182   8.625  17.160  0.00  0.00    +0.000 OA
ATOM      3  N   UNL     1       2.520   7.040  18.792  0.00  0.00    +0.000 N 
ENDROOT
BRANCH   1   5
ATOM      4  C   UNL     1       0.506   9.483  19.781  0.00  0.00    +0.000 C 
ATOM      5  C   UNL     1       1.785   9.345  19.377  0.00  0.00    +0.000 C 
BRANCH   4   9
ATOM      6  C   UNL     1      -0.881  12.579  22.478  0.00  0.00    +0.000 A 
ATOM      7  C   UNL     1      -0.962  11.233  22.854  0.00  0.00    +0.000 A 
ATOM      8  C   UNL     1      -0.539  10.216  21.979  0.00  0.00    +0.000 A 
ATOM      9  C   UNL     1      -0.033  10.513  20.706  0.00  0.00    +0.000 A 
ATOM     10  C   UNL     1       0.029  11.871  20.336  0.00  0.00    +0.000 A 
ATOM     11  C   UNL     1      -0.390  12.890  21.208  0.00  0.00    +0.000 A 
BRANCH   6  13
ATOM     12  N   UNL     1      -1.606  14.464  24.119  0.00  0.00    +0.000 NA
ATOM     13  C   UNL     1      -1.278  13.619  23.388  0.00  0.00    +0.000 C 
ENDBRANCH   6  13
ENDBRANCH   4   9
ENDBRANCH   1   5
BRANCH   3  14
ATOM     14  C   UNL     1       2.271   6.548  20.154  0.00  0.00    +0.000 C 
BRANCH  14  15
ATOM     15  C   UNL     1       2.024   5.059  20.367  0.00  0.00    +0.000 A 
ATOM     16  C   UNL     1       2.452   4.320  21.481  0.00  0.00    +0.000 A 
ATOM     17  C   UNL     1       2.081   2.974  21.629  0.00  0.00    +0.000 A 
ATOM     18  C   UNL     1       1.300   2.333  20.665  0.00  0.00    +0.000 A 
ATOM     19  C   UNL     1       0.879   3.047  19.549  0.00  0.00    +0.000 A 
ATOM     20  C   UNL     1       1.227   4.396  19.413  0.00  0.00    +0.000 A 
ENDBRANCH  14  15
ENDBRANCH   3  14
BRANCH   3  21
ATOM     21  C   UNL     1       3.083   6.076  17.811  0.00  0.00    +0.000 C 
BRANCH  21  22
ATOM     22  C   UNL     1       4.612   5.956  17.717  0.00  0.00    +0.000 A 
ATOM     23  C   UNL     1       5.405   7.105  17.519  0.00  0.00    +0.000 A 
ATOM     24  C   UNL     1       6.799   7.026  17.409  0.00  0.00    +0.000 A 
ATOM     25  F   UNL     1       7.514   8.149  17.255  0.00  0.00    +0.000 F 
ATOM     26  C   UNL     1       7.463   5.812  17.465  0.00  0.00    +0.000 A 
ATOM     27  C   UNL     1       6.728   4.662  17.733  0.00  0.00    +0.000 A 
ATOM     28  C   UNL     1       5.324   4.733  17.917  0.00  0.00    +0.000 A 
BRANCH  28  29
ATOM     29  N   UNL     1       4.687   3.506  18.441  0.00  0.00    +0.000 N 
ATOM     30  O   UNL     1       3.880   2.905  17.719  0.00  0.00    +0.000 OA
ATOM     31  O   UNL     1       4.957   3.165  19.600  0.00  0.00    +0.000 OA
ENDBRANCH  28  29
ENDBRANCH  21  22
ENDBRANCH   3  21
TORSDOF 8
ENDMDL
MODEL 9
REMARK VINA RESULT:      -8.2      0.750      1.201
REMARK  Name = 
REMARK  8 active torsions:
REMARK  status: ('A' for Active; 'I' for Inactive)
REMARK    1  A    between atoms: C_2  and  C_3
REMARK    2  A    between atoms: C_6  and  C_7
REMARK    3  A    between atoms: C_8  and  C_9
REMARK    4  A    between atoms: N_11  and  C_12
REMARK    5  A    between atoms: N_11  and  C_19
REMARK    6  A    between atoms: C_12  and  C_13
REMARK    7  A    between atoms: C_19  and  C_20
REMARK    8  A    between atoms: C_26  and  N_27
REMARK                            x       y       z     vdW  Elec       q    Type
REMARK                         _______ _______ _______ _____ _____    ______ ____
ROOT
ATOM      1  C   UNL     1       7.063   6.076  18.273  0.00  0.00    +0.000 C 
ATOM      2  O   UNL     1       7.581   5.493  19.224  0.00  0.00    +0.000 OA
ATOM      3  N   UNL     1       5.989   5.536  17.565  0.00  0.00    +0.000 N 
ENDROOT
BRANCH   1   5
ATOM      4  C   UNL     1       8.236   8.219  18.730  0.00  0.00    +0.000 C 
ATOM      5  C   UNL     1       7.587   7.423  17.858  0.00  0.00    +0.000 C 
BRANCH   4   9
ATOM      6  C   UNL     1       9.601  12.302  18.229  0.00  0.00    +0.000 A 
ATOM      7  C   UNL     1       8.550  11.812  17.445  0.00  0.00    +0.000 A 
ATOM      8  C   UNL     1       8.112  10.482  17.579  0.00  0.00    +0.000 A 
ATOM      9  C   UNL     1       8.717   9.604  18.490  0.00  0.00    +0.000 A 
ATOM     10  C   UNL     1       9.783  10.107  19.262  0.00  0.00    +0.000 A 
ATOM     11  C   UNL     1      10.220  11.436  19.132  0.00  0.00    +0.000 A 
BRANCH   6  13
ATOM     12  N   UNL     1      10.363  14.782  18.018  0.00  0.00    +0.000 NA
ATOM     13  C   UNL     1      10.021  13.672  18.118  0.00  0.00    +0.000 C 
ENDBRANCH   6  13
ENDBRANCH   4   9
ENDBRANCH   1   5
BRANCH   3  14
ATOM     14  C   UNL     1       5.514   6.057  16.276  0.00  0.00    +0.000 C 
BRANCH  14  15
ATOM     15  C   UNL     1       5.929   5.344  14.994  0.00  0.00    +0.000 A 
ATOM     16  C   UNL     1       7.188   5.445  14.383  0.00  0.00    +0.000 A 
ATOM     17  C   UNL     1       7.502   4.663  13.260  0.00  0.00    +0.000 A 
ATOM     18  C   UNL     1       6.565   3.787  12.711  0.00  0.00    +0.000 A 
ATOM     19  C   UNL     1       5.308   3.684  13.295  0.00  0.00    +0.000 A 
ATOM     20  C   UNL     1       5.003   4.444  14.430  0.00  0.00    +0.000 A 
ENDBRANCH  14  15
ENDBRANCH   3  14
BRANCH   3  21
ATOM     21  C   UNL     1       5.343   4.301  18.081  0.00  0.00    +0.000 C 
BRANCH  21  22
ATOM     22  C   UNL     1       4.003   4.444  18.818  0.00  0.00    +0.000 A 
ATOM     23  C   UNL     1       3.619   5.687  19.362  0.00  0.00    +0.000 A 
ATOM     24  C   UNL     1       2.413   5.845  20.056  0.00  0.00    +0.000 A 
ATOM     25  F   UNL     1       2.074   7.053  20.525  0.00  0.00    +0.000 F 
ATOM     26  C   UNL     1       1.551   4.781  20.263  0.00  0.00    +0.000 A 
ATOM     27  C   UNL     1       1.855   3.555  19.682  0.00  0.00    +0.000 A 
ATOM     28  C   UNL     1       3.037   3.396  18.916  0.00  0.00    +0.000 A 
BRANCH  28  29
ATOM     29  N   UNL     1       3.132   2.138  18.143  0.00  0.00    +0.000 N 
ATOM     30  O   UNL     1       2.418   2.006  17.140  0.00  0.00    +0.000 OA
ATOM     31  O   UNL     1       3.891   1.256  18.567  0.00  0.00    +0.000 OA
ENDBRANCH  28  29
ENDBRANCH  21  22
ENDBRANCH   3  21
TORSDOF 8
ENDMDL
