MODEL 1
REMARK VINA RESULT:      -6.3      0.000      0.000
REMARK  Name = 
REMARK  5 active torsions:
REMARK  status: ('A' for Active; 'I' for Inactive)
REMARK    1  A    between atoms: C_1  and  C_2
REMARK    2  A    between atoms: C_2  and  C_4
REMARK    3  A    between atoms: C_7  and  N_8
REMARK    4  A    between atoms: N_11  and  C_12
REMARK    5  A    between atoms: C_12  and  C_13
REMARK                            x       y       z     vdW  Elec       q    Type
REMARK                         _______ _______ _______ _____ _____    ______ ____
ROOT
ATOM      1  N   UNL     1       2.084   7.018  20.108  0.00  0.00    +0.000 N 
ATOM      2  C   UNL     1       1.888   5.703  20.737  0.00  0.00    +0.000 C 
ATOM      3  C   UNL     1       1.559   4.624  19.676  0.00  0.00    +0.000 C 
ATOM      4  N   UNL     1       2.500   4.569  18.524  0.00  0.00    +0.000 NA
ATOM      5  C   UNL     1       2.548   5.931  17.935  0.00  0.00    +0.000 C 
ATOM      6  C   UNL     1       2.948   7.056  18.917  0.00  0.00    +0.000 C 
ENDROOT
BRANCH   1  10
ATOM      7  C   UNL     1       0.053  10.483  21.395  0.00  0.00    +0.000 A 
ATOM      8  C   UNL     1       0.416  10.332  20.056  0.00  0.00    +0.000 A 
ATOM      9  C   UNL     1       1.091   9.178  19.641  0.00  0.00    +0.000 A 
ATOM     10  C   UNL     1       1.422   8.149  20.536  0.00  0.00    +0.000 A 
ATOM     11  C   UNL     1       1.039   8.321  21.871  0.00  0.00    +0.000 A 
ATOM     12  C   UNL     1       0.362   9.468  22.300  0.00  0.00    +0.000 A 
BRANCH   7  14
ATOM     13  C   UNL     1      -1.389  12.561  20.902  0.00  0.00    +0.000 C 
ATOM     14  C   UNL     1      -0.658  11.697  21.894  0.00  0.00    +0.000 C 
ATOM     15  O   UNL     1      -0.643  11.968  23.093  0.00  0.00    +0.000 OA
ENDBRANCH   7  14
ENDBRANCH   1  10
BRANCH   4  16
ATOM     16  C   UNL     1       3.814   4.087  18.980  0.00  0.00    +0.000 C 
BRANCH  16  17
ATOM     17  C   UNL     1       4.856   4.189  17.901  0.00  0.00    +0.000 A 
ATOM     18  C   UNL     1       4.709   3.693  16.563  0.00  0.00    +0.000 A 
ATOM     19  C   UNL     1       5.838   3.888  15.799  0.00  0.00    +0.000 A 
ATOM     20  S   UNL     1       7.075   4.679  16.672  0.00  0.00    +0.000 S 
ATOM     21  C   UNL     1       6.107   4.754  18.077  0.00  0.00    +0.000 A 
ENDBRANCH  16  17
ENDBRANCH   4  16
TORSDOF 4
ENDMDL
MODEL 2
REMARK VINA RESULT:      -6.3      4.367      8.699
REMARK  Name = 
REMARK  5 active torsions:
REMARK  status: ('A' for Active; 'I' for Inactive)
REMARK    1  A    between atoms: C_1  and  C_2
REMARK    2  A    between atoms: C_2  and  C_4
REMARK    3  A    between atoms: C_7  and  N_8
REMARK    4  A    between atoms: N_11  and  C_12
REMARK    5  A    between atoms: C_12  and  C_13
REMARK                            x       y       z     vdW  Elec       q    Type
REMARK                         _______ _______ _______ _____ _____    ______ ____
ROOT
ATOM      1  N   UNL     1       1.531   8.507  20.134  0.00  0.00    +0.000 N 
ATOM      2  C   UNL     1       1.099   9.693  19.379  0.00  0.00    +0.000 C 
ATOM      3  C   UNL     1      -0.369  10.057  19.710  0.00  0.00    +0.000 C 
ATOM      4  N   UNL     1      -0.676  10.165  21.162  0.00  0.00    +0.000 NA
ATOM      5  C   UNL     1      -0.266   8.884  21.791  0.00  0.00    +0.000 C 
ATOM      6  C   UNL     1       1.212   8.490  21.570  0.00  0.00    +0.000 C 
ENDROOT
BRANCH   1  10
ATOM      7  C   UNL     1       3.306   5.153  18.293  0.00  0.00    +0.000 A 
ATOM      8  C   UNL     1       2.687   5.033  19.537  0.00  0.00    +0.000 A 
ATOM      9  C   UNL     1       2.103   6.153  20.139  0.00  0.00    +0.000 A 
ATOM     10  C   UNL     1       2.115   7.416  19.528  0.00  0.00    +0.000 A 
ATOM     11  C   UNL     1       2.735   7.509  18.276  0.00  0.00    +0.000 A 
ATOM     12  C   UNL     1       3.321   6.397  17.661  0.00  0.00    +0.000 A 
BRANCH   7  14
ATOM     13  C   UNL     1       5.045   4.266  16.612  0.00  0.00    +0.000 C 
ATOM     14  C   UNL     1       3.954   3.994  17.611  0.00  0.00    +0.000 C 
ATOM     15  O   UNL     1       3.596   2.848  17.875  0.00  0.00    +0.000 OA
ENDBRANCH   7  14
ENDBRANCH   1  10
BRANCH   4  16
ATOM     16  C   UNL     1       0.012  11.337  21.729  0.00  0.00    +0.000 C 
BRANCH  16  17
ATOM     17  C   UNL     1      -0.935  12.244  22.463  0.00  0.00    +0.000 A 
ATOM     18  C   UNL     1      -2.175  11.837  23.056  0.00  0.00    +0.000 A 
ATOM     19  C   UNL     1      -2.858  12.886  23.630  0.00  0.00    +0.000 A 
ATOM     20  S   UNL     1      -2.014  14.363  23.476  0.00  0.00    +0.000 S 
ATOM     21  C   UNL     1      -0.737  13.604  22.632  0.00  0.00    +0.000 A 
ENDBRANCH  16  17
ENDBRANCH   4  16
TORSDOF 4
ENDMDL
MODEL 3
REMARK VINA RESULT:      -6.3      0.627      1.277
REMARK  Name = 
REMARK  5 active torsions:
REMARK  status: ('A' for Active; 'I' for Inactive)
REMARK    1  A    between atoms: C_1  and  C_2
REMARK    2  A    between atoms: C_2  and  C_4
REMARK    3  A    between atoms: C_7  and  N_8
REMARK    4  A    between atoms: N_11  and  C_12
REMARK    5  A    between atoms: C_12  and  C_13
REMARK                            x       y       z     vdW  Elec       q    Type
REMARK                         _______ _______ _______ _____ _____    ______ ____
ROOT
ATOM      1  N   UNL     1       2.084   6.940  20.024  0.00  0.00    +0.000 N 
ATOM      2  C   UNL     1       1.926   5.653  20.717  0.00  0.00    +0.000 C 
ATOM      3  C   UNL     1       1.621   4.515  19.711  0.00  0.00    +0.000 C 
ATOM      4  N   UNL     1       2.558   4.429  18.558  0.00  0.00    +0.000 NA
ATOM      5  C   UNL     1       2.567   5.762  17.904  0.00  0.00    +0.000 C 
ATOM      6  C   UNL     1       2.941   6.943  18.828  0.00  0.00    +0.000 C 
ENDROOT
BRANCH   1  10
ATOM      7  C   UNL     1      -0.023  10.401  21.197  0.00  0.00    +0.000 A 
ATOM      8  C   UNL     1       0.141   9.337  22.085  0.00  0.00    +0.000 A 
ATOM      9  C   UNL     1       0.841   8.193  21.684  0.00  0.00    +0.000 A 
ATOM     10  C   UNL     1       1.394   8.073  20.400  0.00  0.00    +0.000 A 
ATOM     11  C   UNL     1       1.223   9.157  19.531  0.00  0.00    +0.000 A 
ATOM     12  C   UNL     1       0.528  10.308  19.918  0.00  0.00    +0.000 A 
BRANCH   7  14
ATOM     13  C   UNL     1      -1.305  11.763  22.968  0.00  0.00    +0.000 C 
ATOM     14  C   UNL     1      -0.769  11.639  21.569  0.00  0.00    +0.000 C 
ATOM     15  O   UNL     1      -0.928  12.532  20.738  0.00  0.00    +0.000 OA
ENDBRANCH   7  14
ENDBRANCH   1  10
BRANCH   4  16
ATOM     16  C   UNL     1       3.886   4.004  19.029  0.00  0.00    +0.000 C 
BRANCH  16  17
ATOM     17  C   UNL     1       4.932   4.140  17.958  0.00  0.00    +0.000 A 
ATOM     18  C   UNL     1       4.799   3.670  16.610  0.00  0.00    +0.000 A 
ATOM     19  C   UNL     1       5.930   3.893  15.857  0.00  0.00    +0.000 A 
ATOM     20  S   UNL     1       7.153   4.680  16.752  0.00  0.00    +0.000 S 
ATOM     21  C   UNL     1       6.177   4.715  18.153  0.00  0.00    +0.000 A 
ENDBRANCH  16  17
ENDBRANCH   4  16
TORSDOF 4
ENDMDL
MODEL 4
REMARK VINA RESULT:      -6.2      0.517      1.382
REMARK  Name = 
REMARK  5 active torsions:
REMARK  status: ('A' for Active; 'I' for Inactive)
REMARK    1  A    between atoms: C_1  and  C_2
REMARK    2  A    between atoms: C_2  and  C_4
REMARK    3  A    between atoms: C_7  and  N_8
REMARK    4  A    between atoms: N_11  and  C_12
REMARK    5  A    between atoms: C_12  and  C_13
REMARK                            x       y       z     vdW  Elec       q    Type
REMARK                         _______ _______ _______ _____ _____    ______ ____
ROOT
ATOM      1  N   UNL     1       2.151   6.908  20.025  0.00  0.00    +0.000 N 
ATOM      2  C   UNL     1       1.948   5.573  20.606  0.00  0.00    +0.000 C 
ATOM      3  C   UNL     1       1.664   4.525  19.502  0.00  0.00    +0.000 C 
ATOM      4  N   UNL     1       2.642   4.514  18.380  0.00  0.00    +0.000 NA
ATOM      5  C   UNL     1       2.696   5.895  17.836  0.00  0.00    +0.000 C 
ATOM      6  C   UNL     1       3.053   6.991  18.865  0.00  0.00    +0.000 C 
ENDROOT
BRANCH   1  10
ATOM      7  C   UNL     1       0.056  10.303  21.396  0.00  0.00    +0.000 A 
ATOM      8  C   UNL     1       0.286   9.222  22.247  0.00  0.00    +0.000 A 
ATOM      9  C   UNL     1       0.980   8.099  21.780  0.00  0.00    +0.000 A 
ATOM     10  C   UNL     1       1.465   8.020  20.466  0.00  0.00    +0.000 A 
ATOM     11  C   UNL     1       1.229   9.121  19.634  0.00  0.00    +0.000 A 
ATOM     12  C   UNL     1       0.538  10.250  20.087  0.00  0.00    +0.000 A 
BRANCH   7  14
ATOM     13  C   UNL     1      -1.547  12.240  20.835  0.00  0.00    +0.000 C 
ATOM     14  C   UNL     1      -0.688  11.519  21.838  0.00  0.00    +0.000 C 
ATOM     15  O   UNL     1      -0.595  11.907  23.001  0.00  0.00    +0.000 OA
ENDBRANCH   7  14
ENDBRANCH   1  10
BRANCH   4  16
ATOM     16  C   UNL     1       3.946   4.029  18.864  0.00  0.00    +0.000 C 
BRANCH  16  17
ATOM     17  C   UNL     1       5.011   4.137  17.809  0.00  0.00    +0.000 A 
ATOM     18  C   UNL     1       6.312   4.708  18.006  0.00  0.00    +0.000 A 
ATOM     19  C   UNL     1       7.069   4.711  16.856  0.00  0.00    +0.000 A 
ATOM     20  S   UNL     1       6.235   4.017  15.537  0.00  0.00    +0.000 S 
ATOM     21  C   UNL     1       4.855   3.720  16.498  0.00  0.00    +0.000 A 
ENDBRANCH  16  17
ENDBRANCH   4  16
TORSDOF 4
ENDMDL
MODEL 5
REMARK VINA RESULT:      -6.2      4.591      8.943
REMARK  Name = 
REMARK  5 active torsions:
REMARK  status: ('A' for Active; 'I' for Inactive)
REMARK    1  A    between atoms: C_1  and  C_2
REMARK    2  A    between atoms: C_2  and  C_4
REMARK    3  A    between atoms: C_7  and  N_8
REMARK    4  A    between atoms: N_11  and  C_12
REMARK    5  A    between atoms: C_12  and  C_13
REMARK                            x       y       z     vdW  Elec       q    Type
REMARK                         _______ _______ _______ _____ _____    ______ ____
ROOT
ATOM      1  N   UNL     1       0.759   9.212  20.280  0.00  0.00    +0.000 N 
ATOM      2  C   UNL     1       0.013   8.775  21.469  0.00  0.00    +0.000 C 
ATOM      3  C   UNL     1       0.230   9.752  22.650  0.00  0.00    +0.000 C 
ATOM      4  N   UNL     1      -0.003  11.186  22.329  0.00  0.00    +0.000 NA
ATOM      5  C   UNL     1       0.860  11.518  21.167  0.00  0.00    +0.000 C 
ATOM      6  C   UNL     1       0.645  10.634  19.918  0.00  0.00    +0.000 C 
ENDROOT
BRANCH   1  10
ATOM      7  C   UNL     1       3.338   6.626  18.170  0.00  0.00    +0.000 A 
ATOM      8  C   UNL     1       2.852   6.269  19.428  0.00  0.00    +0.000 A 
ATOM      9  C   UNL     1       1.998   7.136  20.120  0.00  0.00    +0.000 A 
ATOM     10  C   UNL     1       1.604   8.373  19.586  0.00  0.00    +0.000 A 
ATOM     11  C   UNL     1       2.099   8.704  18.319  0.00  0.00    +0.000 A 
ATOM     12  C   UNL     1       2.952   7.847  17.615  0.00  0.00    +0.000 A 
BRANCH   7  14
ATOM     13  C   UNL     1       4.545   4.364  17.917  0.00  0.00    +0.000 C 
ATOM     14  C   UNL     1       4.260   5.745  17.394  0.00  0.00    +0.000 C 
ATOM     15  O   UNL     1       4.763   6.152  16.348  0.00  0.00    +0.000 OA
ENDBRANCH   7  14
ENDBRANCH   1  10
BRANCH   4  16
ATOM     16  C   UNL     1      -1.435  11.411  22.071  0.00  0.00    +0.000 C 
BRANCH  16  17
ATOM     17  C   UNL     1      -2.013  12.457  22.982  0.00  0.00    +0.000 A 
ATOM     18  C   UNL     1      -3.306  12.391  23.601  0.00  0.00    +0.000 A 
ATOM     19  C   UNL     1      -3.592  13.508  24.353  0.00  0.00    +0.000 A 
ATOM     20  S   UNL     1      -2.311  14.638  24.337  0.00  0.00    +0.000 S 
ATOM     21  C   UNL     1      -1.374  13.640  23.315  0.00  0.00    +0.000 A 
ENDBRANCH  16  17
ENDBRANCH   4  16
TORSDOF 4
ENDMDL
MODEL 6
REMARK VINA RESULT:      -6.2      4.582      8.818
REMARK  Name = 
REMARK  5 active torsions:
REMARK  status: ('A' for Active; 'I' for Inactive)
REMARK    1  A    between atoms: C_1  and  C_2
REMARK    2  A    between atoms: C_2  and  C_4
REMARK    3  A    between atoms: C_7  and  N_8
REMARK    4  A    between atoms: N_11  and  C_12
REMARK    5  A    between atoms: C_12  and  C_13
REMARK                            x       y       z     vdW  Elec       q    Type
REMARK                         _______ _______ _______ _____ _____    ______ ____
ROOT
ATOM      1  N   UNL     1       0.956   9.059  20.141  0.00  0.00    +0.000 N 
ATOM      2  C   UNL     1       0.337   8.629  21.404  0.00  0.00    +0.000 C 
ATOM      3  C   UNL     1       0.580   9.670  22.524  0.00  0.00    +0.000 C 
ATOM      4  N   UNL     1       0.228  11.071  22.166  0.00  0.00    +0.000 NA
ATOM      5  C   UNL     1       0.973  11.404  20.925  0.00  0.00    +0.000 C 
ATOM      6  C   UNL     1       0.719  10.453  19.734  0.00  0.00    +0.000 C 
ENDROOT
BRANCH   1  10
ATOM      7  C   UNL     1       3.539   6.585  17.905  0.00  0.00    +0.000 A 
ATOM      8  C   UNL     1       3.144   7.828  17.409  0.00  0.00    +0.000 A 
ATOM      9  C   UNL     1       2.285   8.639  18.159  0.00  0.00    +0.000 A 
ATOM     10  C   UNL     1       1.797   8.244  19.414  0.00  0.00    +0.000 A 
ATOM     11  C   UNL     1       2.216   6.997  19.894  0.00  0.00    +0.000 A 
ATOM     12  C   UNL     1       3.075   6.176  19.156  0.00  0.00    +0.000 A 
BRANCH   7  14
ATOM     13  C   UNL     1       4.172   4.196  17.178  0.00  0.00    +0.000 C 
ATOM     14  C   UNL     1       4.444   5.675  17.143  0.00  0.00    +0.000 C 
ATOM     15  O   UNL     1       5.384   6.141  16.501  0.00  0.00    +0.000 OA
ENDBRANCH   7  14
ENDBRANCH   1  10
BRANCH   4  16
ATOM     16  C   UNL     1      -1.232  11.193  22.017  0.00  0.00    +0.000 C 
BRANCH  16  17
ATOM     17  C   UNL     1      -1.788  12.325  22.834  0.00  0.00    +0.000 A 
ATOM     18  C   UNL     1      -1.080  13.527  23.167  0.00  0.00    +0.000 A 
ATOM     19  C   UNL     1      -1.820  14.375  23.961  0.00  0.00    +0.000 A 
ATOM     20  S   UNL     1      -3.371  13.746  24.301  0.00  0.00    +0.000 S 
ATOM     21  C   UNL     1      -3.053  12.333  23.395  0.00  0.00    +0.000 A 
ENDBRANCH  16  17
ENDBRANCH   4  16
TORSDOF 4
ENDMDL
MODEL 7
REMARK VINA RESULT:      -6.1      4.716      9.013
REMARK  Name = 
REMARK  5 active torsions:
REMARK  status: ('A' for Active; 'I' for Inactive)
REMARK    1  A    between atoms: C_1  and  C_2
REMARK    2  A    between atoms: C_2  and  C_4
REMARK    3  A    between atoms: C_7  and  N_8
REMARK    4  A    between atoms: N_11  and  C_12
REMARK    5  A    between atoms: C_12  and  C_13
REMARK                            x       y       z     vdW  Elec       q    Type
REMARK                         _______ _______ _______ _____ _____    ______ ____
ROOT
ATOM      1  N   UNL     1       0.620   9.806  20.088  0.00  0.00    +0.000 N 
ATOM      2  C   UNL     1      -0.279   9.481  21.205  0.00  0.00    +0.000 C 
ATOM      3  C   UNL     1      -0.053  10.444  22.398  0.00  0.00    +0.000 C 
ATOM      4  N   UNL     1      -0.077  11.890  22.050  0.00  0.00    +0.000 NA
ATOM      5  C   UNL     1       0.923  12.096  20.971  0.00  0.00    +0.000 C 
ATOM      6  C   UNL     1       0.716  11.225  19.712  0.00  0.00    +0.000 C 
ENDROOT
BRANCH   1  10
ATOM      7  C   UNL     1       3.062   6.925  18.211  0.00  0.00    +0.000 A 
ATOM      8  C   UNL     1       2.714   8.100  17.544  0.00  0.00    +0.000 A 
ATOM      9  C   UNL     1       1.901   9.048  18.176  0.00  0.00    +0.000 A 
ATOM     10  C   UNL     1       1.416   8.859  19.480  0.00  0.00    +0.000 A 
ATOM     11  C   UNL     1       1.787   7.676  20.130  0.00  0.00    +0.000 A 
ATOM     12  C   UNL     1       2.600   6.720  19.511  0.00  0.00    +0.000 A 
BRANCH   7  14
ATOM     13  C   UNL     1       3.752   4.449  18.028  0.00  0.00    +0.000 C 
ATOM     14  C   UNL     1       3.916   5.875  17.580  0.00  0.00    +0.000 C 
ATOM     15  O   UNL     1       4.728   6.186  16.709  0.00  0.00    +0.000 OA
ENDBRANCH   7  14
ENDBRANCH   1  10
BRANCH   4  16
ATOM     16  C   UNL     1      -1.441  12.284  21.659  0.00  0.00    +0.000 C 
BRANCH  16  17
ATOM     17  C   UNL     1      -2.202  12.888  22.806  0.00  0.00    +0.000 A 
ATOM     18  C   UNL     1      -3.314  12.275  23.472  0.00  0.00    +0.000 A 
ATOM     19  C   UNL     1      -3.844  13.073  24.462  0.00  0.00    +0.000 A 
ATOM     20  S   UNL     1      -3.006  14.553  24.611  0.00  0.00    +0.000 S 
ATOM     21  C   UNL     1      -1.938  14.135  23.345  0.00  0.00    +0.000 A 
ENDBRANCH  16  17
ENDBRANCH   4  16
TORSDOF 4
ENDMDL
MODEL 8
REMARK VINA RESULT:      -6.1      4.223      8.472
REMARK  Name = 
REMARK  5 active torsions:
REMARK  status: ('A' for Active; 'I' for Inactive)
REMARK    1  A    between atoms: C_1  and  C_2
REMARK    2  A    between atoms: C_2  and  C_4
REMARK    3  A    between atoms: C_7  and  N_8
REMARK    4  A    between atoms: N_11  and  C_12
REMARK    5  A    between atoms: C_12  and  C_13
REMARK                            x       y       z     vdW  Elec       q    Type
REMARK                         _______ _______ _______ _____ _____    ______ ____
ROOT
ATOM      1  N   UNL     1       1.516   8.945  19.277  0.00  0.00    +0.000 N 
ATOM      2  C   UNL     1       1.084   9.808  18.168  0.00  0.00    +0.000 C 
ATOM      3  C   UNL     1      -0.435  10.098  18.249  0.00  0.00    +0.000 C 
ATOM      4  N   UNL     1      -0.910  10.590  19.570  0.00  0.00    +0.000 NA
ATOM      5  C   UNL     1      -0.478   9.598  20.587  0.00  0.00    +0.000 C 
ATOM      6  C   UNL     1       1.041   9.313  20.620  0.00  0.00    +0.000 C 
ENDROOT
BRANCH   1  10
ATOM      7  C   UNL     1       3.759   5.428  18.653  0.00  0.00    +0.000 A 
ATOM      8  C   UNL     1       3.799   6.467  17.723  0.00  0.00    +0.000 A 
ATOM      9  C   UNL     1       3.049   7.629  17.940  0.00  0.00    +0.000 A 
ATOM     10  C   UNL     1       2.245   7.792  19.078  0.00  0.00    +0.000 A 
ATOM     11  C   UNL     1       2.228   6.739  20.000  0.00  0.00    +0.000 A 
ATOM     12  C   UNL     1       2.974   5.572  19.798  0.00  0.00    +0.000 A 
BRANCH   7  14
ATOM     13  C   UNL     1       4.044   3.170  17.447  0.00  0.00    +0.000 C 
ATOM     14  C   UNL     1       4.529   4.163  18.466  0.00  0.00    +0.000 C 
ATOM     15  O   UNL     1       5.540   3.956  19.136  0.00  0.00    +0.000 OA
ENDBRANCH   7  14
ENDBRANCH   1  10
BRANCH   4  16
ATOM     16  C   UNL     1      -0.379  11.941  19.816  0.00  0.00    +0.000 C 
BRANCH  16  17
ATOM     17  C   UNL     1      -1.024  12.591  21.008  0.00  0.00    +0.000 A 
ATOM     18  C   UNL     1      -2.434  12.795  21.174  0.00  0.00    +0.000 A 
ATOM     19  C   UNL     1      -2.741  13.451  22.345  0.00  0.00    +0.000 A 
ATOM     20  S   UNL     1      -1.346  13.814  23.261  0.00  0.00    +0.000 S 
ATOM     21  C   UNL     1      -0.327  13.104  22.089  0.00  0.00    +0.000 A 
ENDBRANCH  16  17
ENDBRANCH   4  16
TORSDOF 4
ENDMDL
MODEL 9
REMARK VINA RESULT:      -6.1      4.208      8.327
REMARK  Name = 
REMARK  5 active torsions:
REMARK  status: ('A' for Active; 'I' for Inactive)
REMARK    1  A    between atoms: C_1  and  C_2
REMARK    2  A    between atoms: C_2  and  C_4
REMARK    3  A    between atoms: C_7  and  N_8
REMARK    4  A    between atoms: N_11  and  C_12
REMARK    5  A    between atoms: C_12  and  C_13
REMARK                            x       y       z     vdW  Elec       q    Type
REMARK                         _______ _______ _______ _____ _____    ______ ____
ROOT
ATOM      1  N   UNL     1       2.037   8.037  19.477  0.00  0.00    +0.000 N 
ATOM      2  C   UNL     1       1.996   8.885  18.276  0.00  0.00    +0.000 C 
ATOM      3  C   UNL     1       0.596   9.520  18.093  0.00  0.00    +0.000 C 
ATOM      4  N   UNL     1       0.059  10.213  19.296  0.00  0.00    +0.000 NA
ATOM      5  C   UNL     1       0.083   9.231  20.411  0.00  0.00    +0.000 C 
ATOM      6  C   UNL     1       1.467   8.610  20.706  0.00  0.00    +0.000 C 
ENDROOT
BRANCH   1  10
ATOM      7  C   UNL     1       3.404   4.048  19.405  0.00  0.00    +0.000 A 
ATOM      8  C   UNL     1       2.488   4.464  20.371  0.00  0.00    +0.000 A 
ATOM      9  C   UNL     1       2.043   5.791  20.386  0.00  0.00    +0.000 A 
ATOM     10  C   UNL     1       2.490   6.736  19.449  0.00  0.00    +0.000 A 
ATOM     11  C   UNL     1       3.403   6.290  18.485  0.00  0.00    +0.000 A 
ATOM     12  C   UNL     1       3.855   4.967  18.457  0.00  0.00    +0.000 A 
BRANCH   7  14
ATOM     13  C   UNL     1       3.365   1.718  18.307  0.00  0.00    +0.000 C 
ATOM     14  C   UNL     1       3.921   2.648  19.350  0.00  0.00    +0.000 C 
ATOM     15  O   UNL     1       4.787   2.282  20.142  0.00  0.00    +0.000 OA
ENDBRANCH   7  14
ENDBRANCH   1  10
BRANCH   4  16
ATOM     16  C   UNL     1       0.854  11.421  19.569  0.00  0.00    +0.000 C 
BRANCH  16  17
ATOM     17  C   UNL     1       0.034  12.498  20.222  0.00  0.00    +0.000 A 
ATOM     18  C   UNL     1      -0.713  13.503  19.523  0.00  0.00    +0.000 A 
ATOM     19  C   UNL     1      -1.339  14.387  20.375  0.00  0.00    +0.000 A 
ATOM     20  S   UNL     1      -1.049  14.011  22.015  0.00  0.00    +0.000 S 
ATOM     21  C   UNL     1      -0.077  12.672  21.591  0.00  0.00    +0.000 A 
ENDBRANCH  16  17
ENDBRANCH   4  16
TORSDOF 4
ENDMDL
