MODEL 1
REMARK VINA RESULT:      -8.7      0.000      0.000
REMARK  Name = 
REMARK  7 active torsions:
REMARK  status: ('A' for Active; 'I' for Inactive)
REMARK    1  A    between atoms: C_1  and  C_2
REMARK    2  A    between atoms: C_7  and  C_8
REMARK    3  A    between atoms: C_11  and  N_12
REMARK    4  A    between atoms: C_18  and  C_19
REMARK    5  A    between atoms: C_19  and  C_20
REMARK    6  A    between atoms: C_19  and  C_21
REMARK    7  A    between atoms: C_19  and  C_22
REMARK                            x       y       z     vdW  Elec       q    Type
REMARK                         _______ _______ _______ _____ _____    ______ ____
ROOT
ATOM      1  C   UNL     1       2.039   7.975  19.117  0.00  0.00    +0.000 A 
ATOM      2  C   UNL     1       1.729   7.695  20.454  0.00  0.00    +0.000 A 
ATOM      3  C   UNL     1       0.948   8.568  21.209  0.00  0.00    +0.000 A 
ATOM      4  C   UNL     1       0.451   9.731  20.635  0.00  0.00    +0.000 A 
ATOM      5  C   UNL     1       0.741  10.019  19.296  0.00  0.00    +0.000 A 
ATOM      6  C   UNL     1       1.542   9.153  18.547  0.00  0.00    +0.000 A 
ENDROOT
BRANCH   4   7
ATOM      7  N   UNL     1      -0.361  10.633  21.330  0.00  0.00    +0.000 N 
ATOM      8  C   UNL     1      -0.582  10.718  22.680  0.00  0.00    +0.000 C 
ATOM      9  O   UNL     1      -0.026  10.053  23.551  0.00  0.00    +0.000 OA
ATOM     10  N   UNL     1      -1.452  11.698  23.080  0.00  0.00    +0.000 N 
ATOM     11  C   UNL     1      -2.277  12.454  22.278  0.00  0.00    +0.000 A 
ATOM     12  C   UNL     1      -3.030  13.564  22.707  0.00  0.00    +0.000 A 
ATOM     13  C   UNL     1      -3.682  14.000  21.576  0.00  0.00    +0.000 A 
ATOM     14  O   UNL     1      -3.350  13.188  20.540  0.00  0.00    +0.000 OA
ATOM     15  N   UNL     1      -2.462  12.236  20.971  0.00  0.00    +0.000 NA
ATOM     16  H   UNL     1      -0.825  11.341  20.770  0.00  0.00    +0.000 HD
ATOM     17  H   UNL     1      -1.485  11.843  24.078  0.00  0.00    +0.000 HD
BRANCH  13  18
ATOM     18  C   UNL     1      -4.615  15.139  21.284  0.00  0.00    +0.000 C 
ATOM     19  C   UNL     1      -5.367  15.512  22.573  0.00  0.00    +0.000 C 
ATOM     20  C   UNL     1      -3.852  16.378  20.779  0.00  0.00    +0.000 C 
ATOM     21  C   UNL     1      -5.617  14.702  20.203  0.00  0.00    +0.000 C 
ENDBRANCH  13  18
ENDBRANCH   4   7
BRANCH   1  28
ATOM     22  C   UNL     1       6.855   4.648  14.689  0.00  0.00    +0.000 C 
ATOM     23  C   UNL     1       5.750   4.908  15.666  0.00  0.00    +0.000 A 
ATOM     24  C   UNL     1       5.077   3.752  16.256  0.00  0.00    +0.000 A 
ATOM     25  C   UNL     1       4.090   3.951  17.147  0.00  0.00    +0.000 A 
ATOM     26  N   UNL     1       3.739   5.256  17.482  0.00  0.00    +0.000 N 
ATOM     27  C   UNL     1       2.786   5.694  18.359  0.00  0.00    +0.000 A 
ATOM     28  C   UNL     1       2.856   7.071  18.327  0.00  0.00    +0.000 A 
ATOM     29  N   UNL     1       3.821   7.489  17.434  0.00  0.00    +0.000 NA
ATOM     30  C   UNL     1       4.343   6.383  16.945  0.00  0.00    +0.000 A 
ATOM     31  C   UNL     1       5.384   6.167  15.999  0.00  0.00    +0.000 A 
ENDBRANCH   1  28
TORSDOF 3
ENDMDL
MODEL 2
REMARK VINA RESULT:      -8.6      1.697      2.087
REMARK  Name = 
REMARK  7 active torsions:
REMARK  status: ('A' for Active; 'I' for Inactive)
REMARK    1  A    between atoms: C_1  and  C_2
REMARK    2  A    between atoms: C_7  and  C_8
REMARK    3  A    between atoms: C_11  and  N_12
REMARK    4  A    between atoms: C_18  and  C_19
REMARK    5  A    between atoms: C_19  and  C_20
REMARK    6  A    between atoms: C_19  and  C_21
REMARK    7  A    between atoms: C_19  and  C_22
REMARK                            x       y       z     vdW  Elec       q    Type
REMARK                         _______ _______ _______ _____ _____    ______ ____
ROOT
ATOM      1  C   UNL     1       1.428   8.510  19.920  0.00  0.00    +0.000 A 
ATOM      2  C   UNL     1       1.050   8.503  21.270  0.00  0.00    +0.000 A 
ATOM      3  C   UNL     1       0.298   9.545  21.810  0.00  0.00    +0.000 A 
ATOM      4  C   UNL     1      -0.101  10.606  21.006  0.00  0.00    +0.000 A 
ATOM      5  C   UNL     1       0.259  10.620  19.654  0.00  0.00    +0.000 A 
ATOM      6  C   UNL     1       1.031   9.586  19.118  0.00  0.00    +0.000 A 
ENDROOT
BRANCH   4   7
ATOM      7  N   UNL     1      -0.879  11.666  21.481  0.00  0.00    +0.000 N 
ATOM      8  C   UNL     1      -0.466  12.883  21.958  0.00  0.00    +0.000 C 
ATOM      9  O   UNL     1       0.689  13.302  21.976  0.00  0.00    +0.000 OA
ATOM     10  N   UNL     1      -1.461  13.726  22.378  0.00  0.00    +0.000 N 
ATOM     11  C   UNL     1      -2.787  13.414  22.570  0.00  0.00    +0.000 A 
ATOM     12  C   UNL     1      -3.809  14.347  22.839  0.00  0.00    +0.000 A 
ATOM     13  C   UNL     1      -4.953  13.588  22.942  0.00  0.00    +0.000 A 
ATOM     14  O   UNL     1      -4.629  12.282  22.762  0.00  0.00    +0.000 OA
ATOM     15  N   UNL     1      -3.285  12.173  22.514  0.00  0.00    +0.000 NA
ATOM     16  H   UNL     1      -1.885  11.537  21.439  0.00  0.00    +0.000 HD
ATOM     17  H   UNL     1      -1.152  14.665  22.582  0.00  0.00    +0.000 HD
BRANCH  13  18
ATOM     18  C   UNL     1      -6.399  13.911  23.182  0.00  0.00    +0.000 C 
ATOM     19  C   UNL     1      -6.501  15.304  23.825  0.00  0.00    +0.000 C 
ATOM     20  C   UNL     1      -7.202  13.912  21.867  0.00  0.00    +0.000 C 
ATOM     21  C   UNL     1      -6.998  12.855  24.125  0.00  0.00    +0.000 C 
ENDBRANCH  13  18
ENDBRANCH   4   7
BRANCH   1  28
ATOM     22  C   UNL     1       5.801   4.064  16.049  0.00  0.00    +0.000 C 
ATOM     23  C   UNL     1       4.868   4.607  17.087  0.00  0.00    +0.000 A 
ATOM     24  C   UNL     1       4.497   3.729  18.196  0.00  0.00    +0.000 A 
ATOM     25  C   UNL     1       3.672   4.190  19.152  0.00  0.00    +0.000 A 
ATOM     26  N   UNL     1       3.193   5.494  19.055  0.00  0.00    +0.000 N 
ATOM     27  C   UNL     1       2.362   6.172  19.903  0.00  0.00    +0.000 A 
ATOM     28  C   UNL     1       2.215   7.429  19.354  0.00  0.00    +0.000 A 
ATOM     29  N   UNL     1       2.925   7.532  18.175  0.00  0.00    +0.000 NA
ATOM     30  C   UNL     1       3.511   6.362  18.020  0.00  0.00    +0.000 A 
ATOM     31  C   UNL     1       4.382   5.867  17.009  0.00  0.00    +0.000 A 
ENDBRANCH   1  28
TORSDOF 3
ENDMDL
MODEL 3
REMARK VINA RESULT:      -8.6      1.467      1.877
REMARK  Name = 
REMARK  7 active torsions:
REMARK  status: ('A' for Active; 'I' for Inactive)
REMARK    1  A    between atoms: C_1  and  C_2
REMARK    2  A    between atoms: C_7  and  C_8
REMARK    3  A    between atoms: C_11  and  N_12
REMARK    4  A    between atoms: C_18  and  C_19
REMARK    5  A    between atoms: C_19  and  C_20
REMARK    6  A    between atoms: C_19  and  C_21
REMARK    7  A    between atoms: C_19  and  C_22
REMARK                            x       y       z     vdW  Elec       q    Type
REMARK                         _______ _______ _______ _____ _____    ______ ____
ROOT
ATOM      1  C   UNL     1       1.835   8.520  19.022  0.00  0.00    +0.000 A 
ATOM      2  C   UNL     1       1.482   9.659  18.287  0.00  0.00    +0.000 A 
ATOM      3  C   UNL     1       0.765  10.699  18.874  0.00  0.00    +0.000 A 
ATOM      4  C   UNL     1       0.398  10.624  20.212  0.00  0.00    +0.000 A 
ATOM      5  C   UNL     1       0.754   9.498  20.962  0.00  0.00    +0.000 A 
ATOM      6  C   UNL     1       1.455   8.446  20.367  0.00  0.00    +0.000 A 
ENDROOT
BRANCH   4   7
ATOM      7  N   UNL     1      -0.297  11.646  20.866  0.00  0.00    +0.000 N 
ATOM      8  C   UNL     1       0.205  12.761  21.486  0.00  0.00    +0.000 C 
ATOM      9  O   UNL     1       1.383  13.112  21.507  0.00  0.00    +0.000 OA
ATOM     10  N   UNL     1      -0.721  13.588  22.065  0.00  0.00    +0.000 N 
ATOM     11  C   UNL     1      -2.055  13.322  22.275  0.00  0.00    +0.000 A 
ATOM     12  C   UNL     1      -3.008  14.260  22.718  0.00  0.00    +0.000 A 
ATOM     13  C   UNL     1      -4.190  13.556  22.771  0.00  0.00    +0.000 A 
ATOM     14  O   UNL     1      -3.951  12.272  22.396  0.00  0.00    +0.000 OA
ATOM     15  N   UNL     1      -2.626  12.129  22.071  0.00  0.00    +0.000 NA
ATOM     16  H   UNL     1      -1.310  11.578  20.854  0.00  0.00    +0.000 HD
ATOM     17  H   UNL     1      -0.349  14.471  22.382  0.00  0.00    +0.000 HD
BRANCH  13  18
ATOM     18  C   UNL     1      -5.603  13.917  23.121  0.00  0.00    +0.000 C 
ATOM     19  C   UNL     1      -6.175  12.843  24.062  0.00  0.00    +0.000 C 
ATOM     20  C   UNL     1      -5.679  15.285  23.825  0.00  0.00    +0.000 C 
ATOM     21  C   UNL     1      -6.439  13.979  21.831  0.00  0.00    +0.000 C 
ENDBRANCH  13  18
ENDBRANCH   4   7
BRANCH   1  28
ATOM     22  C   UNL     1       6.406   4.108  15.345  0.00  0.00    +0.000 C 
ATOM     23  C   UNL     1       5.310   4.619  16.229  0.00  0.00    +0.000 A 
ATOM     24  C   UNL     1       4.516   3.637  16.967  0.00  0.00    +0.000 A 
ATOM     25  C   UNL     1       3.534   4.064  17.780  0.00  0.00    +0.000 A 
ATOM     26  N   UNL     1       3.302   5.432  17.894  0.00  0.00    +0.000 N 
ATOM     27  C   UNL     1       2.377   6.088  18.657  0.00  0.00    +0.000 A 
ATOM     28  C   UNL     1       2.579   7.431  18.414  0.00  0.00    +0.000 A 
ATOM     29  N   UNL     1       3.599   7.613  17.502  0.00  0.00    +0.000 NA
ATOM     30  C   UNL     1       4.023   6.400  17.210  0.00  0.00    +0.000 A 
ATOM     31  C   UNL     1       5.059   5.943  16.348  0.00  0.00    +0.000 A 
ENDBRANCH   1  28
TORSDOF 3
ENDMDL
MODEL 4
REMARK VINA RESULT:      -8.5      1.631      2.253
REMARK  Name = 
REMARK  7 active torsions:
REMARK  status: ('A' for Active; 'I' for Inactive)
REMARK    1  A    between atoms: C_1  and  C_2
REMARK    2  A    between atoms: C_7  and  C_8
REMARK    3  A    between atoms: C_11  and  N_12
REMARK    4  A    between atoms: C_18  and  C_19
REMARK    5  A    between atoms: C_19  and  C_20
REMARK    6  A    between atoms: C_19  and  C_21
REMARK    7  A    between atoms: C_19  and  C_22
REMARK                            x       y       z     vdW  Elec       q    Type
REMARK                         _______ _______ _______ _____ _____    ______ ____
ROOT
ATOM      1  C   UNL     1       1.576   8.593  19.608  0.00  0.00    +0.000 A 
ATOM      2  C   UNL     1       1.308   9.729  18.832  0.00  0.00    +0.000 A 
ATOM      3  C   UNL     1       0.544  10.779  19.337  0.00  0.00    +0.000 A 
ATOM      4  C   UNL     1       0.043  10.717  20.631  0.00  0.00    +0.000 A 
ATOM      5  C   UNL     1       0.312   9.594  21.422  0.00  0.00    +0.000 A 
ATOM      6  C   UNL     1       1.061   8.532  20.908  0.00  0.00    +0.000 A 
ENDROOT
BRANCH   4   7
ATOM      7  N   UNL     1      -0.706  11.749  21.205  0.00  0.00    +0.000 N 
ATOM      8  C   UNL     1      -0.262  12.914  21.774  0.00  0.00    +0.000 C 
ATOM      9  O   UNL     1       0.902  13.307  21.809  0.00  0.00    +0.000 OA
ATOM     10  N   UNL     1      -1.233  13.739  22.278  0.00  0.00    +0.000 N 
ATOM     11  C   UNL     1      -2.563  13.438  22.463  0.00  0.00    +0.000 A 
ATOM     12  C   UNL     1      -3.561  14.365  22.823  0.00  0.00    +0.000 A 
ATOM     13  C   UNL     1      -4.720  13.624  22.881  0.00  0.00    +0.000 A 
ATOM     14  O   UNL     1      -4.425  12.330  22.588  0.00  0.00    +0.000 OA
ATOM     15  N   UNL     1      -3.087  12.216  22.312  0.00  0.00    +0.000 NA
ATOM     16  H   UNL     1      -1.715  11.644  21.167  0.00  0.00    +0.000 HD
ATOM     17  H   UNL     1      -0.901  14.651  22.553  0.00  0.00    +0.000 HD
BRANCH  13  18
ATOM     18  C   UNL     1      -6.155  13.953  23.168  0.00  0.00    +0.000 C 
ATOM     19  C   UNL     1      -6.945  13.937  21.849  0.00  0.00    +0.000 C 
ATOM     20  C   UNL     1      -6.786  12.934  24.136  0.00  0.00    +0.000 C 
ATOM     21  C   UNL     1      -6.230  15.351  23.805  0.00  0.00    +0.000 C 
ENDBRANCH  13  18
ENDBRANCH   4   7
BRANCH   1  28
ATOM     22  C   UNL     1       5.985   4.023  15.926  0.00  0.00    +0.000 C 
ATOM     23  C   UNL     1       5.043   4.600  16.938  0.00  0.00    +0.000 A 
ATOM     24  C   UNL     1       4.666   3.760  18.074  0.00  0.00    +0.000 A 
ATOM     25  C   UNL     1       3.832   4.253  19.007  0.00  0.00    +0.000 A 
ATOM     26  N   UNL     1       3.352   5.552  18.861  0.00  0.00    +0.000 N 
ATOM     27  C   UNL     1       2.514   6.257  19.679  0.00  0.00    +0.000 A 
ATOM     28  C   UNL     1       2.369   7.494  19.085  0.00  0.00    +0.000 A 
ATOM     29  N   UNL     1       3.087   7.557  17.909  0.00  0.00    +0.000 NA
ATOM     30  C   UNL     1       3.676   6.384  17.799  0.00  0.00    +0.000 A 
ATOM     31  C   UNL     1       4.555   5.856  16.812  0.00  0.00    +0.000 A 
ENDBRANCH   1  28
TORSDOF 3
ENDMDL
MODEL 5
REMARK VINA RESULT:      -8.5      0.294      1.231
REMARK  Name = 
REMARK  7 active torsions:
REMARK  status: ('A' for Active; 'I' for Inactive)
REMARK    1  A    between atoms: C_1  and  C_2
REMARK    2  A    between atoms: C_7  and  C_8
REMARK    3  A    between atoms: C_11  and  N_12
REMARK    4  A    between atoms: C_18  and  C_19
REMARK    5  A    between atoms: C_19  and  C_20
REMARK    6  A    between atoms: C_19  and  C_21
REMARK    7  A    between atoms: C_19  and  C_22
REMARK                            x       y       z     vdW  Elec       q    Type
REMARK                         _______ _______ _______ _____ _____    ______ ____
ROOT
ATOM      1  C   UNL     1       1.972   8.034  19.086  0.00  0.00    +0.000 A 
ATOM      2  C   UNL     1       1.423   9.180  18.497  0.00  0.00    +0.000 A 
ATOM      3  C   UNL     1       0.620  10.050  19.232  0.00  0.00    +0.000 A 
ATOM      4  C   UNL     1       0.362   9.796  20.573  0.00  0.00    +0.000 A 
ATOM      5  C   UNL     1       0.914   8.661  21.178  0.00  0.00    +0.000 A 
ATOM      6  C   UNL     1       1.702   7.778  20.435  0.00  0.00    +0.000 A 
ENDROOT
BRANCH   4   7
ATOM      7  N   UNL     1      -0.412  10.645  21.371  0.00  0.00    +0.000 N 
ATOM      8  C   UNL     1      -0.543  10.651  22.735  0.00  0.00    +0.000 C 
ATOM      9  O   UNL     1       0.077   9.947  23.528  0.00  0.00    +0.000 OA
ATOM     10  N   UNL     1      -1.395  11.594  23.247  0.00  0.00    +0.000 N 
ATOM     11  C   UNL     1      -2.280  12.381  22.545  0.00  0.00    +0.000 A 
ATOM     12  C   UNL     1      -3.015  13.454  23.086  0.00  0.00    +0.000 A 
ATOM     13  C   UNL     1      -3.747  13.943  22.027  0.00  0.00    +0.000 A 
ATOM     14  O   UNL     1      -3.475  13.195  20.926  0.00  0.00    +0.000 OA
ATOM     15  N   UNL     1      -2.550  12.234  21.243  0.00  0.00    +0.000 NA
ATOM     16  H   UNL     1      -0.920  11.376  20.884  0.00  0.00    +0.000 HD
ATOM     17  H   UNL     1      -1.363  11.683  24.251  0.00  0.00    +0.000 HD
BRANCH  13  18
ATOM     18  C   UNL     1      -4.709  15.082  21.862  0.00  0.00    +0.000 C 
ATOM     19  C   UNL     1      -3.926  16.345  21.464  0.00  0.00    +0.000 C 
ATOM     20  C   UNL     1      -5.756  14.784  20.772  0.00  0.00    +0.000 C 
ATOM     21  C   UNL     1      -5.438  15.319  23.195  0.00  0.00    +0.000 C 
ENDBRANCH  13  18
ENDBRANCH   4   7
BRANCH   1  28
ATOM     22  C   UNL     1       6.893   4.662  14.809  0.00  0.00    +0.000 C 
ATOM     23  C   UNL     1       5.762   4.932  15.754  0.00  0.00    +0.000 A 
ATOM     24  C   UNL     1       5.066   3.782  16.328  0.00  0.00    +0.000 A 
ATOM     25  C   UNL     1       4.055   3.990  17.190  0.00  0.00    +0.000 A 
ATOM     26  N   UNL     1       3.702   5.298  17.511  0.00  0.00    +0.000 N 
ATOM     27  C   UNL     1       2.728   5.745  18.359  0.00  0.00    +0.000 A 
ATOM     28  C   UNL     1       2.807   7.122  18.324  0.00  0.00    +0.000 A 
ATOM     29  N   UNL     1       3.799   7.531  17.457  0.00  0.00    +0.000 NA
ATOM     30  C   UNL     1       4.328   6.420  16.987  0.00  0.00    +0.000 A 
ATOM     31  C   UNL     1       5.394   6.195  16.072  0.00  0.00    +0.000 A 
ENDBRANCH   1  28
TORSDOF 3
ENDMDL
MODEL 6
REMARK VINA RESULT:      -8.4      1.789      2.683
REMARK  Name = 
REMARK  7 active torsions:
REMARK  status: ('A' for Active; 'I' for Inactive)
REMARK    1  A    between atoms: C_1  and  C_2
REMARK    2  A    between atoms: C_7  and  C_8
REMARK    3  A    between atoms: C_11  and  N_12
REMARK    4  A    between atoms: C_18  and  C_19
REMARK    5  A    between atoms: C_19  and  C_20
REMARK    6  A    between atoms: C_19  and  C_21
REMARK    7  A    between atoms: C_19  and  C_22
REMARK                            x       y       z     vdW  Elec       q    Type
REMARK                         _______ _______ _______ _____ _____    ______ ____
ROOT
ATOM      1  C   UNL     1       1.395   8.791  19.049  0.00  0.00    +0.000 A 
ATOM      2  C   UNL     1       0.753   9.484  18.014  0.00  0.00    +0.000 A 
ATOM      3  C   UNL     1      -0.183  10.479  18.288  0.00  0.00    +0.000 A 
ATOM      4  C   UNL     1      -0.483  10.809  19.604  0.00  0.00    +0.000 A 
ATOM      5  C   UNL     1       0.160  10.135  20.648  0.00  0.00    +0.000 A 
ATOM      6  C   UNL     1       1.082   9.122  20.372  0.00  0.00    +0.000 A 
ENDROOT
BRANCH   4   7
ATOM      7  N   UNL     1      -1.390  11.817  19.945  0.00  0.00    +0.000 N 
ATOM      8  C   UNL     1      -1.315  13.160  19.681  0.00  0.00    +0.000 C 
ATOM      9  O   UNL     1      -0.454  13.721  19.007  0.00  0.00    +0.000 OA
ATOM     10  N   UNL     1      -2.351  13.919  20.158  0.00  0.00    +0.000 N 
ATOM     11  C   UNL     1      -3.332  13.525  21.038  0.00  0.00    +0.000 A 
ATOM     12  C   UNL     1      -4.473  14.281  21.372  0.00  0.00    +0.000 A 
ATOM     13  C   UNL     1      -5.163  13.493  22.266  0.00  0.00    +0.000 A 
ATOM     14  O   UNL     1      -4.466  12.345  22.464  0.00  0.00    +0.000 OA
ATOM     15  N   UNL     1      -3.335  12.356  21.689  0.00  0.00    +0.000 NA
ATOM     16  H   UNL     1      -2.235  11.517  20.421  0.00  0.00    +0.000 HD
ATOM     17  H   UNL     1      -2.355  14.872  19.826  0.00  0.00    +0.000 HD
BRANCH  13  18
ATOM     18  C   UNL     1      -6.462  13.643  23.001  0.00  0.00    +0.000 C 
ATOM     19  C   UNL     1      -7.622  13.403  22.019  0.00  0.00    +0.000 C 
ATOM     20  C   UNL     1      -6.576  12.633  24.159  0.00  0.00    +0.000 C 
ATOM     21  C   UNL     1      -6.552  15.066  23.576  0.00  0.00    +0.000 C 
ENDBRANCH  13  18
ENDBRANCH   4   7
BRANCH   1  28
ATOM     22  C   UNL     1       6.733   4.430  16.526  0.00  0.00    +0.000 C 
ATOM     23  C   UNL     1       5.607   4.994  17.337  0.00  0.00    +0.000 A 
ATOM     24  C   UNL     1       5.180   4.247  18.520  0.00  0.00    +0.000 A 
ATOM     25  C   UNL     1       4.181   4.733  19.277  0.00  0.00    +0.000 A 
ATOM     26  N   UNL     1       3.583   5.936  18.912  0.00  0.00    +0.000 N 
ATOM     27  C   UNL     1       2.571   6.617  19.528  0.00  0.00    +0.000 A 
ATOM     28  C   UNL     1       2.368   7.750  18.768  0.00  0.00    +0.000 A 
ATOM     29  N   UNL     1       3.223   7.770  17.686  0.00  0.00    +0.000 NA
ATOM     30  C   UNL     1       3.949   6.676  17.797  0.00  0.00    +0.000 A 
ATOM     31  C   UNL     1       5.004   6.155  16.996  0.00  0.00    +0.000 A 
ENDBRANCH   1  28
TORSDOF 3
ENDMDL
MODEL 7
REMARK VINA RESULT:      -8.4      1.864      2.475
REMARK  Name = 
REMARK  7 active torsions:
REMARK  status: ('A' for Active; 'I' for Inactive)
REMARK    1  A    between atoms: C_1  and  C_2
REMARK    2  A    between atoms: C_7  and  C_8
REMARK    3  A    between atoms: C_11  and  N_12
REMARK    4  A    between atoms: C_18  and  C_19
REMARK    5  A    between atoms: C_19  and  C_20
REMARK    6  A    between atoms: C_19  and  C_21
REMARK    7  A    between atoms: C_19  and  C_22
REMARK                            x       y       z     vdW  Elec       q    Type
REMARK                         _______ _______ _______ _____ _____    ______ ____
ROOT
ATOM      1  C   UNL     1       1.290   8.897  19.138  0.00  0.00    +0.000 A 
ATOM      2  C   UNL     1       0.966   9.193  20.469  0.00  0.00    +0.000 A 
ATOM      3  C   UNL     1       0.048  10.195  20.778  0.00  0.00    +0.000 A 
ATOM      4  C   UNL     1      -0.571  10.911  19.761  0.00  0.00    +0.000 A 
ATOM      5  C   UNL     1      -0.266  10.618  18.427  0.00  0.00    +0.000 A 
ATOM      6  C   UNL     1       0.670   9.627  18.119  0.00  0.00    +0.000 A 
ENDROOT
BRANCH   4   7
ATOM      7  N   UNL     1      -1.520  11.909  20.005  0.00  0.00    +0.000 N 
ATOM      8  C   UNL     1      -1.406  13.261  19.815  0.00  0.00    +0.000 C 
ATOM      9  O   UNL     1      -0.453  13.846  19.305  0.00  0.00    +0.000 OA
ATOM     10  N   UNL     1      -2.502  14.006  20.164  0.00  0.00    +0.000 N 
ATOM     11  C   UNL     1      -3.605  13.579  20.869  0.00  0.00    +0.000 A 
ATOM     12  C   UNL     1      -4.783  14.327  21.060  0.00  0.00    +0.000 A 
ATOM     13  C   UNL     1      -5.600  13.505  21.804  0.00  0.00    +0.000 A 
ATOM     14  O   UNL     1      -4.940  12.344  22.054  0.00  0.00    +0.000 OA
ATOM     15  N   UNL     1      -3.706  12.382  21.458  0.00  0.00    +0.000 NA
ATOM     16  H   UNL     1      -2.427  11.593  20.335  0.00  0.00    +0.000 HD
ATOM     17  H   UNL     1      -2.457  14.972  19.879  0.00  0.00    +0.000 HD
BRANCH  13  18
ATOM     18  C   UNL     1      -6.996  13.630  22.340  0.00  0.00    +0.000 C 
ATOM     19  C   UNL     1      -6.942  13.642  23.877  0.00  0.00    +0.000 C 
ATOM     20  C   UNL     1      -7.671  14.929  21.858  0.00  0.00    +0.000 C 
ATOM     21  C   UNL     1      -7.828  12.432  21.856  0.00  0.00    +0.000 C 
ENDBRANCH  13  18
ENDBRANCH   4   7
BRANCH   1  28
ATOM     22  C   UNL     1       6.458   4.508  16.326  0.00  0.00    +0.000 C 
ATOM     23  C   UNL     1       5.394   5.086  17.208  0.00  0.00    +0.000 A 
ATOM     24  C   UNL     1       5.070   4.371  18.441  0.00  0.00    +0.000 A 
ATOM     25  C   UNL     1       4.130   4.871  19.262  0.00  0.00    +0.000 A 
ATOM     26  N   UNL     1       3.491   6.057  18.910  0.00  0.00    +0.000 N 
ATOM     27  C   UNL     1       2.524   6.748  19.585  0.00  0.00    +0.000 A 
ATOM     28  C   UNL     1       2.249   7.856  18.811  0.00  0.00    +0.000 A 
ATOM     29  N   UNL     1       3.015   7.851  17.664  0.00  0.00    +0.000 NA
ATOM     30  C   UNL     1       3.759   6.767  17.749  0.00  0.00    +0.000 A 
ATOM     31  C   UNL     1       4.753   6.232  16.882  0.00  0.00    +0.000 A 
ENDBRANCH   1  28
TORSDOF 3
ENDMDL
MODEL 8
REMARK VINA RESULT:      -8.4      2.021      3.060
REMARK  Name = 
REMARK  7 active torsions:
REMARK  status: ('A' for Active; 'I' for Inactive)
REMARK    1  A    between atoms: C_1  and  C_2
REMARK    2  A    between atoms: C_7  and  C_8
REMARK    3  A    between atoms: C_11  and  N_12
REMARK    4  A    between atoms: C_18  and  C_19
REMARK    5  A    between atoms: C_19  and  C_20
REMARK    6  A    between atoms: C_19  and  C_21
REMARK    7  A    between atoms: C_19  and  C_22
REMARK                            x       y       z     vdW  Elec       q    Type
REMARK                         _______ _______ _______ _____ _____    ______ ____
ROOT
ATOM      1  C   UNL     1       0.945   8.551  20.649  0.00  0.00    +0.000 A 
ATOM      2  C   UNL     1       0.510   8.623  21.980  0.00  0.00    +0.000 A 
ATOM      3  C   UNL     1      -0.243   9.706  22.431  0.00  0.00    +0.000 A 
ATOM      4  C   UNL     1      -0.587  10.729  21.557  0.00  0.00    +0.000 A 
ATOM      5  C   UNL     1      -0.170  10.665  20.222  0.00  0.00    +0.000 A 
ATOM      6  C   UNL     1       0.603   9.590  19.776  0.00  0.00    +0.000 A 
ENDROOT
BRANCH   4   7
ATOM      7  N   UNL     1      -1.364  11.826  21.941  0.00  0.00    +0.000 N 
ATOM      8  C   UNL     1      -0.948  13.049  22.400  0.00  0.00    +0.000 C 
ATOM      9  O   UNL     1       0.215  13.438  22.478  0.00  0.00    +0.000 OA
ATOM     10  N   UNL     1      -1.943  13.933  22.723  0.00  0.00    +0.000 N 
ATOM     11  C   UNL     1      -3.287  13.663  22.839  0.00  0.00    +0.000 A 
ATOM     12  C   UNL     1      -4.296  14.632  23.006  0.00  0.00    +0.000 A 
ATOM     13  C   UNL     1      -5.467  13.909  23.062  0.00  0.00    +0.000 A 
ATOM     14  O   UNL     1      -5.169  12.588  22.951  0.00  0.00    +0.000 OA
ATOM     15  N   UNL     1      -3.816  12.435  22.795  0.00  0.00    +0.000 NA
ATOM     16  H   UNL     1      -2.368  11.722  21.838  0.00  0.00    +0.000 HD
ATOM     17  H   UNL     1      -1.621  14.871  22.912  0.00  0.00    +0.000 HD
BRANCH  13  18
ATOM     18  C   UNL     1      -6.915  14.278  23.194  0.00  0.00    +0.000 C 
ATOM     19  C   UNL     1      -7.614  14.052  21.843  0.00  0.00    +0.000 C 
ATOM     20  C   UNL     1      -7.620  13.423  24.265  0.00  0.00    +0.000 C 
ATOM     21  C   UNL     1      -7.020  15.758  23.597  0.00  0.00    +0.000 C 
ENDBRANCH  13  18
ENDBRANCH   4   7
BRANCH   1  28
ATOM     22  C   UNL     1       4.237   2.125  19.331  0.00  0.00    +0.000 C 
ATOM     23  C   UNL     1       3.810   3.559  19.252  0.00  0.00    +0.000 A 
ATOM     24  C   UNL     1       4.341   4.368  18.157  0.00  0.00    +0.000 A 
ATOM     25  C   UNL     1       3.967   5.655  18.049  0.00  0.00    +0.000 A 
ATOM     26  N   UNL     1       3.082   6.179  18.989  0.00  0.00    +0.000 N 
ATOM     27  C   UNL     1       2.562   7.440  19.072  0.00  0.00    +0.000 A 
ATOM     28  C   UNL     1       1.733   7.428  20.175  0.00  0.00    +0.000 A 
ATOM     29  N   UNL     1       1.748   6.189  20.782  0.00  0.00    +0.000 NA
ATOM     30  C   UNL     1       2.557   5.453  20.048  0.00  0.00    +0.000 A 
ATOM     31  C   UNL     1       2.960   4.093  20.159  0.00  0.00    +0.000 A 
ENDBRANCH   1  28
TORSDOF 3
ENDMDL
MODEL 9
REMARK VINA RESULT:      -8.3      2.030      3.037
REMARK  Name = 
REMARK  7 active torsions:
REMARK  status: ('A' for Active; 'I' for Inactive)
REMARK    1  A    between atoms: C_1  and  C_2
REMARK    2  A    between atoms: C_7  and  C_8
REMARK    3  A    between atoms: C_11  and  N_12
REMARK    4  A    between atoms: C_18  and  C_19
REMARK    5  A    between atoms: C_19  and  C_20
REMARK    6  A    between atoms: C_19  and  C_21
REMARK    7  A    between atoms: C_19  and  C_22
REMARK                            x       y       z     vdW  Elec       q    Type
REMARK                         _______ _______ _______ _____ _____    ______ ____
ROOT
ATOM      1  C   UNL     1       1.018   8.531  20.509  0.00  0.00    +0.000 A 
ATOM      2  C   UNL     1       0.876   9.652  19.680  0.00  0.00    +0.000 A 
ATOM      3  C   UNL     1       0.106  10.744  20.075  0.00  0.00    +0.000 A 
ATOM      4  C   UNL     1      -0.525  10.741  21.313  0.00  0.00    +0.000 A 
ATOM      5  C   UNL     1      -0.382   9.633  22.156  0.00  0.00    +0.000 A 
ATOM      6  C   UNL     1       0.372   8.529  21.750  0.00  0.00    +0.000 A 
ENDROOT
BRANCH   4   7
ATOM      7  N   UNL     1      -1.287  11.817  21.778  0.00  0.00    +0.000 N 
ATOM      8  C   UNL     1      -0.855  12.996  22.327  0.00  0.00    +0.000 C 
ATOM      9  O   UNL     1       0.313  13.363  22.434  0.00  0.00    +0.000 OA
ATOM     10  N   UNL     1      -1.838  13.867  22.715  0.00  0.00    +0.000 N 
ATOM     11  C   UNL     1      -3.187  13.608  22.810  0.00  0.00    +0.000 A 
ATOM     12  C   UNL     1      -4.183  14.575  23.049  0.00  0.00    +0.000 A 
ATOM     13  C   UNL     1      -5.363  13.866  23.050  0.00  0.00    +0.000 A 
ATOM     14  O   UNL     1      -5.083  12.553  22.841  0.00  0.00    +0.000 OA
ATOM     15  N   UNL     1      -3.732  12.394  22.674  0.00  0.00    +0.000 NA
ATOM     16  H   UNL     1      -2.293  11.735  21.667  0.00  0.00    +0.000 HD
ATOM     17  H   UNL     1      -1.504  14.783  22.974  0.00  0.00    +0.000 HD
BRANCH  13  18
ATOM     18  C   UNL     1      -6.806  14.244  23.210  0.00  0.00    +0.000 C 
ATOM     19  C   UNL     1      -7.458  13.306  24.240  0.00  0.00    +0.000 C 
ATOM     20  C   UNL     1      -6.959  15.697  23.697  0.00  0.00    +0.000 C 
ATOM     21  C   UNL     1      -7.514  14.101  21.852  0.00  0.00    +0.000 C 
ENDBRANCH  13  18
ENDBRANCH   4   7
BRANCH   1  28
ATOM     22  C   UNL     1       4.323   2.051  19.529  0.00  0.00    +0.000 C 
ATOM     23  C   UNL     1       3.903   3.481  19.383  0.00  0.00    +0.000 A 
ATOM     24  C   UNL     1       4.467   4.247  18.272  0.00  0.00    +0.000 A 
ATOM     25  C   UNL     1       4.100   5.529  18.106  0.00  0.00    +0.000 A 
ATOM     26  N   UNL     1       3.192   6.091  18.999  0.00  0.00    +0.000 N 
ATOM     27  C   UNL     1       2.674   7.356  19.020  0.00  0.00    +0.000 A 
ATOM     28  C   UNL     1       1.815   7.388  20.099  0.00  0.00    +0.000 A 
ATOM     29  N   UNL     1       1.809   6.174  20.754  0.00  0.00    +0.000 NA
ATOM     30  C   UNL     1       2.636   5.408  20.071  0.00  0.00    +0.000 A 
ATOM     31  C   UNL     1       3.030   4.052  20.245  0.00  0.00    +0.000 A 
ENDBRANCH   1  28
TORSDOF 3
ENDMDL
