MODEL 1
REMARK VINA RESULT:      -8.5      0.000      0.000
REMARK  Name = 
REMARK  6 active torsions:
REMARK  status: ('A' for Active; 'I' for Inactive)
REMARK    1  A    between atoms: C_1  and  C_2
REMARK    2  A    between atoms: C_10  and  C_11
REMARK    3  A    between atoms: C_11  and  N_12
REMARK    4  A    between atoms: C_11  and  C_19
REMARK    5  A    between atoms: N_12  and  C_13
REMARK    6  A    between atoms: C_22  and  N_23
REMARK                            x       y       z     vdW  Elec       q    Type
REMARK                         _______ _______ _______ _____ _____    ______ ____
ROOT
ATOM      1  C   UNL     1       4.385   4.100  16.943  0.00  0.00    +0.000 C 
ENDROOT
BRANCH   1  11
ATOM      2  C   UNL     1       7.606   5.031  17.769  0.00  0.00    +0.000 C 
ATOM      3  C   UNL     1       6.937   4.725  16.478  0.00  0.00    +0.000 A 
ATOM      4  N   UNL     1       7.724   4.682  15.353  0.00  0.00    +0.000 N 
ATOM      5  C   UNL     1       7.002   4.307  14.257  0.00  0.00    +0.000 A 
ATOM      6  C   UNL     1       7.440   4.021  12.960  0.00  0.00    +0.000 A 
ATOM      7  C   UNL     1       6.478   3.658  12.018  0.00  0.00    +0.000 A 
ATOM      8  C   UNL     1       5.130   3.620  12.359  0.00  0.00    +0.000 A 
ATOM      9  C   UNL     1       4.713   3.900  13.669  0.00  0.00    +0.000 A 
ATOM     10  C   UNL     1       5.671   4.220  14.658  0.00  0.00    +0.000 A 
ATOM     11  C   UNL     1       5.625   4.411  16.100  0.00  0.00    +0.000 A 
ATOM     12  H   UNL     1       8.724   4.843  15.341  0.00  0.00    +0.000 HD
ENDBRANCH   1  11
BRANCH   1  13
ATOM     13  C   UNL     1       3.725   5.412  17.393  0.00  0.00    +0.000 A 
ATOM     14  C   UNL     1       4.387   6.643  17.204  0.00  0.00    +0.000 A 
ATOM     15  C   UNL     1       3.767   7.862  17.527  0.00  0.00    +0.000 A 
ATOM     16  C   UNL     1       2.477   7.862  18.068  0.00  0.00    +0.000 A 
ATOM     17  C   UNL     1       1.795   6.662  18.254  0.00  0.00    +0.000 A 
ATOM     18  C   UNL     1       2.407   5.465  17.879  0.00  0.00    +0.000 A 
BRANCH  16  19
ATOM     19  N   UNL     1       1.811   9.125  18.407  0.00  0.00    +0.000 N 
ATOM     20  O   UNL     1       1.127   9.158  19.440  0.00  0.00    +0.000 OA
ATOM     21  O   UNL     1       1.975  10.087  17.642  0.00  0.00    +0.000 OA
ENDBRANCH  16  19
ENDBRANCH   1  13
BRANCH   1  22
ATOM     22  N   UNL     1       4.572   3.234  18.113  0.00  0.00    +0.000 N 
ATOM     23  H   UNL     1       5.119   2.416  17.881  0.00  0.00    +0.000 HD
BRANCH  22  24
ATOM     24  C   UNL     1       3.503   2.897  18.952  0.00  0.00    +0.000 A 
ATOM     25  C   UNL     1       3.562   3.305  20.294  0.00  0.00    +0.000 A 
ATOM     26  C   UNL     1       2.516   3.055  21.187  0.00  0.00    +0.000 A 
ATOM     27  C   UNL     1       1.366   2.412  20.746  0.00  0.00    +0.000 A 
ATOM     28  C   UNL     1       1.262   2.041  19.410  0.00  0.00    +0.000 A 
ATOM     29  C   UNL     1       2.314   2.301  18.520  0.00  0.00    +0.000 A 
ENDBRANCH  22  24
ENDBRANCH   1  22
TORSDOF 5
ENDMDL
MODEL 2
REMARK VINA RESULT:      -8.4      0.442      1.169
REMARK  Name = 
REMARK  6 active torsions:
REMARK  status: ('A' for Active; 'I' for Inactive)
REMARK    1  A    between atoms: C_1  and  C_2
REMARK    2  A    between atoms: C_10  and  C_11
REMARK    3  A    between atoms: C_11  and  N_12
REMARK    4  A    between atoms: C_11  and  C_19
REMARK    5  A    between atoms: N_12  and  C_13
REMARK    6  A    between atoms: C_22  and  N_23
REMARK                            x       y       z     vdW  Elec       q    Type
REMARK                         _______ _______ _______ _____ _____    ______ ____
ROOT
ATOM      1  C   UNL     1       4.442   4.249  16.726  0.00  0.00    +0.000 C 
ENDROOT
BRANCH   1  11
ATOM      2  C   UNL     1       7.423   5.831  17.459  0.00  0.00    +0.000 C 
ATOM      3  C   UNL     1       6.849   5.277  16.206  0.00  0.00    +0.000 A 
ATOM      4  N   UNL     1       7.656   5.261  15.094  0.00  0.00    +0.000 N 
ATOM      5  C   UNL     1       7.038   4.650  14.043  0.00  0.00    +0.000 A 
ATOM      6  C   UNL     1       7.550   4.316  12.784  0.00  0.00    +0.000 A 
ATOM      7  C   UNL     1       6.691   3.688  11.883  0.00  0.00    +0.000 A 
ATOM      8  C   UNL     1       5.364   3.441  12.222  0.00  0.00    +0.000 A 
ATOM      9  C   UNL     1       4.875   3.774  13.493  0.00  0.00    +0.000 A 
ATOM     10  C   UNL     1       5.737   4.364  14.445  0.00  0.00    +0.000 A 
ATOM     11  C   UNL     1       5.624   4.691  15.859  0.00  0.00    +0.000 A 
ATOM     12  H   UNL     1       8.611   5.599  15.069  0.00  0.00    +0.000 HD
ENDBRANCH   1  11
BRANCH   1  13
ATOM     13  C   UNL     1       3.671   5.484  17.215  0.00  0.00    +0.000 A 
ATOM     14  C   UNL     1       2.377   5.347  17.759  0.00  0.00    +0.000 A 
ATOM     15  C   UNL     1       1.689   6.449  18.293  0.00  0.00    +0.000 A 
ATOM     16  C   UNL     1       2.282   7.716  18.268  0.00  0.00    +0.000 A 
ATOM     17  C   UNL     1       3.564   7.878  17.749  0.00  0.00    +0.000 A 
ATOM     18  C   UNL     1       4.253   6.763  17.270  0.00  0.00    +0.000 A 
BRANCH  16  19
ATOM     19  N   UNL     1       1.581   8.878  18.825  0.00  0.00    +0.000 N 
ATOM     20  O   UNL     1       1.224   9.767  18.040  0.00  0.00    +0.000 OA
ATOM     21  O   UNL     1       1.385   8.900  20.050  0.00  0.00    +0.000 OA
ENDBRANCH  16  19
ENDBRANCH   1  13
BRANCH   1  22
ATOM     22  N   UNL     1       4.742   3.387  17.877  0.00  0.00    +0.000 N 
ATOM     23  H   UNL     1       5.360   2.630  17.617  0.00  0.00    +0.000 HD
BRANCH  22  24
ATOM     24  C   UNL     1       3.732   2.935  18.734  0.00  0.00    +0.000 A 
ATOM     25  C   UNL     1       3.769   3.352  20.074  0.00  0.00    +0.000 A 
ATOM     26  C   UNL     1       2.773   2.989  20.987  0.00  0.00    +0.000 A 
ATOM     27  C   UNL     1       1.695   2.219  20.567  0.00  0.00    +0.000 A 
ATOM     28  C   UNL     1       1.610   1.835  19.233  0.00  0.00    +0.000 A 
ATOM     29  C   UNL     1       2.610   2.209  18.325  0.00  0.00    +0.000 A 
ENDBRANCH  22  24
ENDBRANCH   1  22
TORSDOF 5
ENDMDL
MODEL 3
REMARK VINA RESULT:      -8.4      4.815      8.207
REMARK  Name = 
REMARK  6 active torsions:
REMARK  status: ('A' for Active; 'I' for Inactive)
REMARK    1  A    between atoms: C_1  and  C_2
REMARK    2  A    between atoms: C_10  and  C_11
REMARK    3  A    between atoms: C_11  and  N_12
REMARK    4  A    between atoms: C_11  and  C_19
REMARK    5  A    between atoms: N_12  and  C_13
REMARK    6  A    between atoms: C_22  and  N_23
REMARK                            x       y       z     vdW  Elec       q    Type
REMARK                         _______ _______ _______ _____ _____    ______ ____
ROOT
ATOM      1  C   UNL     1       0.393  10.398  18.963  0.00  0.00    +0.000 C 
ENDROOT
BRANCH   1  11
ATOM      2  C   UNL     1      -0.066   9.072  22.117  0.00  0.00    +0.000 C 
ATOM      3  C   UNL     1       0.798   8.689  20.972  0.00  0.00    +0.000 A 
ATOM      4  N   UNL     1       1.510   7.519  21.079  0.00  0.00    +0.000 N 
ATOM      5  C   UNL     1       2.190   7.245  19.929  0.00  0.00    +0.000 A 
ATOM      6  C   UNL     1       2.922   6.105  19.579  0.00  0.00    +0.000 A 
ATOM      7  C   UNL     1       3.527   6.086  18.323  0.00  0.00    +0.000 A 
ATOM      8  C   UNL     1       3.430   7.181  17.471  0.00  0.00    +0.000 A 
ATOM      9  C   UNL     1       2.682   8.310  17.838  0.00  0.00    +0.000 A 
ATOM     10  C   UNL     1       2.014   8.337  19.083  0.00  0.00    +0.000 A 
ATOM     11  C   UNL     1       1.059   9.239  19.709  0.00  0.00    +0.000 A 
ATOM     12  H   UNL     1       1.486   6.900  21.881  0.00  0.00    +0.000 HD
ENDBRANCH   1  11
BRANCH   1  13
ATOM     13  C   UNL     1       1.195  11.688  19.194  0.00  0.00    +0.000 A 
ATOM     14  C   UNL     1       1.116  12.364  20.430  0.00  0.00    +0.000 A 
ATOM     15  C   UNL     1       1.906  13.494  20.695  0.00  0.00    +0.000 A 
ATOM     16  C   UNL     1       2.775  13.980  19.712  0.00  0.00    +0.000 A 
ATOM     17  C   UNL     1       2.883  13.325  18.488  0.00  0.00    +0.000 A 
ATOM     18  C   UNL     1       2.128  12.173  18.261  0.00  0.00    +0.000 A 
BRANCH  16  19
ATOM     19  N   UNL     1       3.612  15.157  19.972  0.00  0.00    +0.000 N 
ATOM     20  O   UNL     1       4.832  15.049  19.786  0.00  0.00    +0.000 OA
ATOM     21  O   UNL     1       3.048  16.191  20.361  0.00  0.00    +0.000 OA
ENDBRANCH  16  19
ENDBRANCH   1  13
BRANCH   1  22
ATOM     22  N   UNL     1      -1.022  10.657  19.255  0.00  0.00    +0.000 N 
ATOM     23  H   UNL     1      -1.357  10.065  20.003  0.00  0.00    +0.000 HD
BRANCH  22  24
ATOM     24  C   UNL     1      -1.973  10.755  18.233  0.00  0.00    +0.000 A 
ATOM     25  C   UNL     1      -1.803   9.952  17.094  0.00  0.00    +0.000 A 
ATOM     26  C   UNL     1      -2.733   9.949  16.049  0.00  0.00    +0.000 A 
ATOM     27  C   UNL     1      -3.876  10.734  16.135  0.00  0.00    +0.000 A 
ATOM     28  C   UNL     1      -4.092  11.500  17.275  0.00  0.00    +0.000 A 
ATOM     29  C   UNL     1      -3.158  11.493  18.319  0.00  0.00    +0.000 A 
ENDBRANCH  22  24
ENDBRANCH   1  22
TORSDOF 5
ENDMDL
MODEL 4
REMARK VINA RESULT:      -8.3      4.808      8.147
REMARK  Name = 
REMARK  6 active torsions:
REMARK  status: ('A' for Active; 'I' for Inactive)
REMARK    1  A    between atoms: C_1  and  C_2
REMARK    2  A    between atoms: C_10  and  C_11
REMARK    3  A    between atoms: C_11  and  N_12
REMARK    4  A    between atoms: C_11  and  C_19
REMARK    5  A    between atoms: N_12  and  C_13
REMARK    6  A    between atoms: C_22  and  N_23
REMARK                            x       y       z     vdW  Elec       q    Type
REMARK                         _______ _______ _______ _____ _____    ______ ____
ROOT
ATOM      1  C   UNL     1       0.354  10.276  18.915  0.00  0.00    +0.000 C 
ENDROOT
BRANCH   1  11
ATOM      2  C   UNL     1      -0.047   9.017  22.105  0.00  0.00    +0.000 C 
ATOM      3  C   UNL     1       0.817   8.628  20.961  0.00  0.00    +0.000 A 
ATOM      4  N   UNL     1       1.558   7.477  21.091  0.00  0.00    +0.000 N 
ATOM      5  C   UNL     1       2.235   7.192  19.941  0.00  0.00    +0.000 A 
ATOM      6  C   UNL     1       2.991   6.061  19.613  0.00  0.00    +0.000 A 
ATOM      7  C   UNL     1       3.585   6.025  18.352  0.00  0.00    +0.000 A 
ATOM      8  C   UNL     1       3.455   7.097  17.475  0.00  0.00    +0.000 A 
ATOM      9  C   UNL     1       2.683   8.216  17.820  0.00  0.00    +0.000 A 
ATOM     10  C   UNL     1       2.025   8.258  19.071  0.00  0.00    +0.000 A 
ATOM     11  C   UNL     1       1.054   9.152  19.684  0.00  0.00    +0.000 A 
ATOM     12  H   UNL     1       1.556   6.879  21.908  0.00  0.00    +0.000 HD
ENDBRANCH   1  11
BRANCH   1  13
ATOM     13  C   UNL     1       1.110  11.596  19.132  0.00  0.00    +0.000 A 
ATOM     14  C   UNL     1       2.120  11.994  18.232  0.00  0.00    +0.000 A 
ATOM     15  C   UNL     1       2.763  13.237  18.359  0.00  0.00    +0.000 A 
ATOM     16  C   UNL     1       2.416  14.093  19.410  0.00  0.00    +0.000 A 
ATOM     17  C   UNL     1       1.412  13.731  20.306  0.00  0.00    +0.000 A 
ATOM     18  C   UNL     1       0.750  12.515  20.133  0.00  0.00    +0.000 A 
BRANCH  16  19
ATOM     19  N   UNL     1       3.072  15.397  19.558  0.00  0.00    +0.000 N 
ATOM     20  O   UNL     1       3.097  15.907  20.687  0.00  0.00    +0.000 OA
ATOM     21  O   UNL     1       3.566  15.911  18.543  0.00  0.00    +0.000 OA
ENDBRANCH  16  19
ENDBRANCH   1  13
BRANCH   1  22
ATOM     22  N   UNL     1      -1.071  10.491  19.194  0.00  0.00    +0.000 N 
ATOM     23  H   UNL     1      -1.414   9.833  19.882  0.00  0.00    +0.000 HD
BRANCH  22  24
ATOM     24  C   UNL     1      -2.000  10.664  18.162  0.00  0.00    +0.000 A 
ATOM     25  C   UNL     1      -1.849   9.889  17.001  0.00  0.00    +0.000 A 
ATOM     26  C   UNL     1      -2.760   9.960  15.943  0.00  0.00    +0.000 A 
ATOM     27  C   UNL     1      -3.868  10.794  16.036  0.00  0.00    +0.000 A 
ATOM     28  C   UNL     1      -4.067  11.535  17.197  0.00  0.00    +0.000 A 
ATOM     29  C   UNL     1      -3.151  11.452  18.254  0.00  0.00    +0.000 A 
ENDBRANCH  22  24
ENDBRANCH   1  22
TORSDOF 5
ENDMDL
MODEL 5
REMARK VINA RESULT:      -8.3      5.483      9.912
REMARK  Name = 
REMARK  6 active torsions:
REMARK  status: ('A' for Active; 'I' for Inactive)
REMARK    1  A    between atoms: C_1  and  C_2
REMARK    2  A    between atoms: C_10  and  C_11
REMARK    3  A    between atoms: C_11  and  N_12
REMARK    4  A    between atoms: C_11  and  C_19
REMARK    5  A    between atoms: N_12  and  C_13
REMARK    6  A    between atoms: C_22  and  N_23
REMARK                            x       y       z     vdW  Elec       q    Type
REMARK                         _______ _______ _______ _____ _____    ______ ____
ROOT
ATOM      1  C   UNL     1      -0.107  10.568  19.120  0.00  0.00    +0.000 C 
ENDROOT
BRANCH   1  11
ATOM      2  C   UNL     1       2.418  12.773  18.289  0.00  0.00    +0.000 C 
ATOM      3  C   UNL     1       1.477  12.692  19.436  0.00  0.00    +0.000 A 
ATOM      4  N   UNL     1       1.486  13.731  20.335  0.00  0.00    +0.000 N 
ATOM      5  C   UNL     1       0.519  13.572  21.284  0.00  0.00    +0.000 A 
ATOM      6  C   UNL     1       0.112  14.452  22.293  0.00  0.00    +0.000 A 
ATOM      7  C   UNL     1      -0.914  14.034  23.140  0.00  0.00    +0.000 A 
ATOM      8  C   UNL     1      -1.479  12.770  23.001  0.00  0.00    +0.000 A 
ATOM      9  C   UNL     1      -1.062  11.908  21.976  0.00  0.00    +0.000 A 
ATOM     10  C   UNL     1      -0.062  12.326  21.069  0.00  0.00    +0.000 A 
ATOM     11  C   UNL     1       0.491  11.781  19.838  0.00  0.00    +0.000 A 
ATOM     12  H   UNL     1       2.085  14.545  20.271  0.00  0.00    +0.000 HD
ENDBRANCH   1  11
BRANCH   1  13
ATOM     13  C   UNL     1       0.900   9.408  19.143  0.00  0.00    +0.000 A 
ATOM     14  C   UNL     1       1.086   8.649  20.317  0.00  0.00    +0.000 A 
ATOM     15  C   UNL     1       1.934   7.530  20.336  0.00  0.00    +0.000 A 
ATOM     16  C   UNL     1       2.631   7.167  19.178  0.00  0.00    +0.000 A 
ATOM     17  C   UNL     1       2.456   7.891  18.001  0.00  0.00    +0.000 A 
ATOM     18  C   UNL     1       1.570   8.969  17.987  0.00  0.00    +0.000 A 
BRANCH  16  19
ATOM     19  N   UNL     1       3.518   5.998  19.177  0.00  0.00    +0.000 N 
ATOM     20  O   UNL     1       3.286   5.097  19.996  0.00  0.00    +0.000 OA
ATOM     21  O   UNL     1       4.446   5.980  18.355  0.00  0.00    +0.000 OA
ENDBRANCH  16  19
ENDBRANCH   1  13
BRANCH   1  22
ATOM     22  N   UNL     1      -0.571  10.769  17.742  0.00  0.00    +0.000 N 
ATOM     23  H   UNL     1      -0.036  11.488  17.274  0.00  0.00    +0.000 HD
BRANCH  22  24
ATOM     24  C   UNL     1      -1.933  10.884  17.439  0.00  0.00    +0.000 A 
ATOM     25  C   UNL     1      -2.788  11.393  18.429  0.00  0.00    +0.000 A 
ATOM     26  C   UNL     1      -4.153  11.589  18.194  0.00  0.00    +0.000 A 
ATOM     27  C   UNL     1      -4.690  11.306  16.945  0.00  0.00    +0.000 A 
ATOM     28  C   UNL     1      -3.854  10.847  15.932  0.00  0.00    +0.000 A 
ATOM     29  C   UNL     1      -2.487  10.659  16.175  0.00  0.00    +0.000 A 
ENDBRANCH  22  24
ENDBRANCH   1  22
TORSDOF 5
ENDMDL
MODEL 6
REMARK VINA RESULT:      -8.3      1.014      1.071
REMARK  Name = 
REMARK  6 active torsions:
REMARK  status: ('A' for Active; 'I' for Inactive)
REMARK    1  A    between atoms: C_1  and  C_2
REMARK    2  A    between atoms: C_10  and  C_11
REMARK    3  A    between atoms: C_11  and  N_12
REMARK    4  A    between atoms: C_11  and  C_19
REMARK    5  A    between atoms: N_12  and  C_13
REMARK    6  A    between atoms: C_22  and  N_23
REMARK                            x       y       z     vdW  Elec       q    Type
REMARK                         _______ _______ _______ _____ _____    ______ ____
ROOT
ATOM      1  C   UNL     1       4.198   4.934  17.364  0.00  0.00    +0.000 C 
ENDROOT
BRANCH   1  11
ATOM      2  C   UNL     1       7.063   6.697  18.146  0.00  0.00    +0.000 C 
ATOM      3  C   UNL     1       6.597   6.012  16.913  0.00  0.00    +0.000 A 
ATOM      4  N   UNL     1       7.479   5.933  15.863  0.00  0.00    +0.000 N 
ATOM      5  C   UNL     1       6.957   5.207  14.832  0.00  0.00    +0.000 A 
ATOM      6  C   UNL     1       7.567   4.786  13.645  0.00  0.00    +0.000 A 
ATOM      7  C   UNL     1       6.794   4.046  12.749  0.00  0.00    +0.000 A 
ATOM      8  C   UNL     1       5.457   3.775  13.021  0.00  0.00    +0.000 A 
ATOM      9  C   UNL     1       4.870   4.198  14.222  0.00  0.00    +0.000 A 
ATOM     10  C   UNL     1       5.642   4.904  15.172  0.00  0.00    +0.000 A 
ATOM     11  C   UNL     1       5.421   5.348  16.540  0.00  0.00    +0.000 A 
ATOM     12  H   UNL     1       8.420   6.306  15.870  0.00  0.00    +0.000 HD
ENDBRANCH   1  11
BRANCH   1  13
ATOM     13  C   UNL     1       3.502   6.187  17.918  0.00  0.00    +0.000 A 
ATOM     14  C   UNL     1       3.298   7.312  17.093  0.00  0.00    +0.000 A 
ATOM     15  C   UNL     1       2.587   8.434  17.550  0.00  0.00    +0.000 A 
ATOM     16  C   UNL     1       2.086   8.452  18.857  0.00  0.00    +0.000 A 
ATOM     17  C   UNL     1       2.261   7.349  19.689  0.00  0.00    +0.000 A 
ATOM     18  C   UNL     1       2.926   6.224  19.200  0.00  0.00    +0.000 A 
BRANCH  16  19
ATOM     19  N   UNL     1       1.336   9.612  19.351  0.00  0.00    +0.000 N 
ATOM     20  O   UNL     1       1.004   9.619  20.545  0.00  0.00    +0.000 OA
ATOM     21  O   UNL     1       1.081  10.520  18.545  0.00  0.00    +0.000 OA
ENDBRANCH  16  19
ENDBRANCH   1  13
BRANCH   1  22
ATOM     22  N   UNL     1       4.421   3.988  18.464  0.00  0.00    +0.000 N 
ATOM     23  H   UNL     1       5.148   3.322  18.234  0.00  0.00    +0.000 HD
BRANCH  22  24
ATOM     24  C   UNL     1       3.354   3.356  19.113  0.00  0.00    +0.000 A 
ATOM     25  C   UNL     1       3.376   3.300  20.516  0.00  0.00    +0.000 A 
ATOM     26  C   UNL     1       2.327   2.733  21.247  0.00  0.00    +0.000 A 
ATOM     27  C   UNL     1       1.212   2.233  20.586  0.00  0.00    +0.000 A 
ATOM     28  C   UNL     1       1.144   2.322  19.199  0.00  0.00    +0.000 A 
ATOM     29  C   UNL     1       2.198   2.897  18.476  0.00  0.00    +0.000 A 
ENDBRANCH  22  24
ENDBRANCH   1  22
TORSDOF 5
ENDMDL
MODEL 7
REMARK VINA RESULT:      -8.2      4.923      8.243
REMARK  Name = 
REMARK  6 active torsions:
REMARK  status: ('A' for Active; 'I' for Inactive)
REMARK    1  A    between atoms: C_1  and  C_2
REMARK    2  A    between atoms: C_10  and  C_11
REMARK    3  A    between atoms: C_11  and  N_12
REMARK    4  A    between atoms: C_11  and  C_19
REMARK    5  A    between atoms: N_12  and  C_13
REMARK    6  A    between atoms: C_22  and  N_23
REMARK                            x       y       z     vdW  Elec       q    Type
REMARK                         _______ _______ _______ _____ _____    ______ ____
ROOT
ATOM      1  C   UNL     1       0.328  10.444  18.977  0.00  0.00    +0.000 C 
ENDROOT
BRANCH   1  11
ATOM      2  C   UNL     1      -0.028   9.174  22.168  0.00  0.00    +0.000 C 
ATOM      3  C   UNL     1       0.803   8.775  21.003  0.00  0.00    +0.000 A 
ATOM      4  N   UNL     1       1.523   7.610  21.111  0.00  0.00    +0.000 N 
ATOM      5  C   UNL     1       2.170   7.318  19.945  0.00  0.00    +0.000 A 
ATOM      6  C   UNL     1       2.896   6.175  19.595  0.00  0.00    +0.000 A 
ATOM      7  C   UNL     1       3.463   6.134  18.321  0.00  0.00    +0.000 A 
ATOM      8  C   UNL     1       3.334   7.214  17.453  0.00  0.00    +0.000 A 
ATOM      9  C   UNL     1       2.592   8.346  17.821  0.00  0.00    +0.000 A 
ATOM     10  C   UNL     1       1.963   8.392  19.085  0.00  0.00    +0.000 A 
ATOM     11  C   UNL     1       1.022   9.302  19.724  0.00  0.00    +0.000 A 
ATOM     12  H   UNL     1       1.527   7.006  21.924  0.00  0.00    +0.000 HD
ENDBRANCH   1  11
BRANCH   1  13
ATOM     13  C   UNL     1       1.048  11.768  19.276  0.00  0.00    +0.000 A 
ATOM     14  C   UNL     1       2.079  12.225  18.429  0.00  0.00    +0.000 A 
ATOM     15  C   UNL     1       2.690  13.474  18.632  0.00  0.00    +0.000 A 
ATOM     16  C   UNL     1       2.291  14.275  19.707  0.00  0.00    +0.000 A 
ATOM     17  C   UNL     1       1.267  13.854  20.552  0.00  0.00    +0.000 A 
ATOM     18  C   UNL     1       0.636  12.634  20.304  0.00  0.00    +0.000 A 
BRANCH  16  19
ATOM     19  N   UNL     1       2.914  15.584  19.933  0.00  0.00    +0.000 N 
ATOM     20  O   UNL     1       4.101  15.605  20.288  0.00  0.00    +0.000 OA
ATOM     21  O   UNL     1       2.217  16.594  19.752  0.00  0.00    +0.000 OA
ENDBRANCH  16  19
ENDBRANCH   1  13
BRANCH   1  22
ATOM     22  N   UNL     1      -1.110  10.620  19.211  0.00  0.00    +0.000 N 
ATOM     23  H   UNL     1      -1.431  10.043  19.977  0.00  0.00    +0.000 HD
BRANCH  22  24
ATOM     24  C   UNL     1      -2.030  10.605  18.156  0.00  0.00    +0.000 A 
ATOM     25  C   UNL     1      -3.116  11.492  18.215  0.00  0.00    +0.000 A 
ATOM     26  C   UNL     1      -4.054  11.579  17.181  0.00  0.00    +0.000 A 
ATOM     27  C   UNL     1      -3.907  10.794  16.044  0.00  0.00    +0.000 A 
ATOM     28  C   UNL     1      -2.812   9.943  15.939  0.00  0.00    +0.000 A 
ATOM     29  C   UNL     1      -1.875   9.867  16.978  0.00  0.00    +0.000 A 
ENDBRANCH  22  24
ENDBRANCH   1  22
TORSDOF 5
ENDMDL
MODEL 8
REMARK VINA RESULT:      -8.2      5.555      9.986
REMARK  Name = 
REMARK  6 active torsions:
REMARK  status: ('A' for Active; 'I' for Inactive)
REMARK    1  A    between atoms: C_1  and  C_2
REMARK    2  A    between atoms: C_10  and  C_11
REMARK    3  A    between atoms: C_11  and  N_12
REMARK    4  A    between atoms: C_11  and  C_19
REMARK    5  A    between atoms: N_12  and  C_13
REMARK    6  A    between atoms: C_22  and  N_23
REMARK                            x       y       z     vdW  Elec       q    Type
REMARK                         _______ _______ _______ _____ _____    ______ ____
ROOT
ATOM      1  C   UNL     1      -0.238  10.646  19.133  0.00  0.00    +0.000 C 
ENDROOT
BRANCH   1  11
ATOM      2  C   UNL     1       2.462  12.658  18.369  0.00  0.00    +0.000 C 
ATOM      3  C   UNL     1       1.494  12.642  19.496  0.00  0.00    +0.000 A 
ATOM      4  N   UNL     1       1.561  13.674  20.402  0.00  0.00    +0.000 N 
ATOM      5  C   UNL     1       0.565  13.583  21.330  0.00  0.00    +0.000 A 
ATOM      6  C   UNL     1       0.204  14.487  22.336  0.00  0.00    +0.000 A 
ATOM      7  C   UNL     1      -0.868  14.142  23.159  0.00  0.00    +0.000 A 
ATOM      8  C   UNL     1      -1.523  12.926  22.999  0.00  0.00    +0.000 A 
ATOM      9  C   UNL     1      -1.151  12.040  21.977  0.00  0.00    +0.000 A 
ATOM     10  C   UNL     1      -0.103  12.385  21.095  0.00  0.00    +0.000 A 
ATOM     11  C   UNL     1       0.434  11.807  19.872  0.00  0.00    +0.000 A 
ATOM     12  H   UNL     1       2.221  14.440  20.356  0.00  0.00    +0.000 HD
ENDBRANCH   1  11
BRANCH   1  13
ATOM     13  C   UNL     1       0.707   9.435  19.108  0.00  0.00    +0.000 A 
ATOM     14  C   UNL     1       1.384   9.085  17.922  0.00  0.00    +0.000 A 
ATOM     15  C   UNL     1       2.320   8.037  17.898  0.00  0.00    +0.000 A 
ATOM     16  C   UNL     1       2.573   7.306  19.064  0.00  0.00    +0.000 A 
ATOM     17  C   UNL     1       1.927   7.638  20.252  0.00  0.00    +0.000 A 
ATOM     18  C   UNL     1       1.040   8.716  20.269  0.00  0.00    +0.000 A 
BRANCH  16  19
ATOM     19  N   UNL     1       3.550   6.211  19.060  0.00  0.00    +0.000 N 
ATOM     20  O   UNL     1       3.476   5.368  19.965  0.00  0.00    +0.000 OA
ATOM     21  O   UNL     1       4.391   6.192  18.148  0.00  0.00    +0.000 OA
ENDBRANCH  16  19
ENDBRANCH   1  13
BRANCH   1  22
ATOM     22  N   UNL     1      -0.715  10.907  17.769  0.00  0.00    +0.000 N 
ATOM     23  H   UNL     1      -0.139  11.596  17.305  0.00  0.00    +0.000 HD
BRANCH  22  24
ATOM     24  C   UNL     1      -2.071  11.125  17.498  0.00  0.00    +0.000 A 
ATOM     25  C   UNL     1      -2.552  10.782  16.225  0.00  0.00    +0.000 A 
ATOM     26  C   UNL     1      -3.902  10.919  15.886  0.00  0.00    +0.000 A 
ATOM     27  C   UNL     1      -4.812  11.379  16.830  0.00  0.00    +0.000 A 
ATOM     28  C   UNL     1      -4.368  11.679  18.114  0.00  0.00    +0.000 A 
ATOM     29  C   UNL     1      -3.014  11.532  18.446  0.00  0.00    +0.000 A 
ENDBRANCH  22  24
ENDBRANCH   1  22
TORSDOF 5
ENDMDL
MODEL 9
REMARK VINA RESULT:      -8.1      5.348      9.495
REMARK  Name = 
REMARK  6 active torsions:
REMARK  status: ('A' for Active; 'I' for Inactive)
REMARK    1  A    between atoms: C_1  and  C_2
REMARK    2  A    between atoms: C_10  and  C_11
REMARK    3  A    between atoms: C_11  and  N_12
REMARK    4  A    between atoms: C_11  and  C_19
REMARK    5  A    between atoms: N_12  and  C_13
REMARK    6  A    between atoms: C_22  and  N_23
REMARK                            x       y       z     vdW  Elec       q    Type
REMARK                         _______ _______ _______ _____ _____    ______ ____
ROOT
ATOM      1  C   UNL     1      -0.301  10.900  19.177  0.00  0.00    +0.000 C 
ENDROOT
BRANCH   1  11
ATOM      2  C   UNL     1      -0.838  12.075  22.380  0.00  0.00    +0.000 C 
ATOM      3  C   UNL     1       0.093  12.476  21.294  0.00  0.00    +0.000 A 
ATOM      4  N   UNL     1       1.033  13.434  21.589  0.00  0.00    +0.000 N 
ATOM      5  C   UNL     1       1.874  13.644  20.535  0.00  0.00    +0.000 A 
ATOM      6  C   UNL     1       3.029  14.431  20.464  0.00  0.00    +0.000 A 
ATOM      7  C   UNL     1       3.709  14.470  19.248  0.00  0.00    +0.000 A 
ATOM      8  C   UNL     1       3.227  13.777  18.142  0.00  0.00    +0.000 A 
ATOM      9  C   UNL     1       2.073  12.986  18.239  0.00  0.00    +0.000 A 
ATOM     10  C   UNL     1       1.392  12.885  19.473  0.00  0.00    +0.000 A 
ATOM     11  C   UNL     1       0.293  12.070  19.968  0.00  0.00    +0.000 A 
ATOM     12  H   UNL     1       1.136  13.883  22.491  0.00  0.00    +0.000 HD
ENDBRANCH   1  11
BRANCH   1  13
ATOM     13  C   UNL     1       0.712   9.746  19.125  0.00  0.00    +0.000 A 
ATOM     14  C   UNL     1       0.958   8.962  20.271  0.00  0.00    +0.000 A 
ATOM     15  C   UNL     1       1.812   7.848  20.224  0.00  0.00    +0.000 A 
ATOM     16  C   UNL     1       2.455   7.517  19.026  0.00  0.00    +0.000 A 
ATOM     17  C   UNL     1       2.220   8.267  17.876  0.00  0.00    +0.000 A 
ATOM     18  C   UNL     1       1.328   9.339  17.929  0.00  0.00    +0.000 A 
BRANCH  16  19
ATOM     19  N   UNL     1       3.347   6.354  18.955  0.00  0.00    +0.000 N 
ATOM     20  O   UNL     1       4.034   6.215  17.933  0.00  0.00    +0.000 OA
ATOM     21  O   UNL     1       3.364   5.581  19.925  0.00  0.00    +0.000 OA
ENDBRANCH  16  19
ENDBRANCH   1  13
BRANCH   1  22
ATOM     22  N   UNL     1      -0.771  11.184  17.815  0.00  0.00    +0.000 N 
ATOM     23  H   UNL     1      -0.312  11.999  17.431  0.00  0.00    +0.000 HD
BRANCH  22  24
ATOM     24  C   UNL     1      -2.134  11.183  17.497  0.00  0.00    +0.000 A 
ATOM     25  C   UNL     1      -3.042  11.599  18.484  0.00  0.00    +0.000 A 
ATOM     26  C   UNL     1      -4.416  11.677  18.235  0.00  0.00    +0.000 A 
ATOM     27  C   UNL     1      -4.911  11.366  16.975  0.00  0.00    +0.000 A 
ATOM     28  C   UNL     1      -4.027  10.999  15.966  0.00  0.00    +0.000 A 
ATOM     29  C   UNL     1      -2.651  10.929  16.223  0.00  0.00    +0.000 A 
ENDBRANCH  22  24
ENDBRANCH   1  22
TORSDOF 5
ENDMDL
