MODEL 1
REMARK VINA RESULT:      -7.7      0.000      0.000
REMARK  Name = 
REMARK  9 active torsions:
REMARK  status: ('A' for Active; 'I' for Inactive)
REMARK    1  A    between atoms: C_1  and  C_2
REMARK    2  A    between atoms: C_2  and  N_3
REMARK    3  A    between atoms: C_4  and  C_5
REMARK    4  A    between atoms: C_11  and  C_12
REMARK    5  A    between atoms: C_12  and  C_14
REMARK    6  A    between atoms: C_14  and  O_15
REMARK    7  A    between atoms: O_15  and  C_16
REMARK    8  A    between atoms: C_16  and  C_18
REMARK    9  A    between atoms: C_19  and  C_20
REMARK                            x       y       z     vdW  Elec       q    Type
REMARK                         _______ _______ _______ _____ _____    ______ ____
ROOT
ATOM      1  N   UNL     1       4.167   3.830  16.784  0.00  0.00    +0.000 N 
ATOM      2  C   UNL     1       4.560   4.326  18.067  0.00  0.00    +0.000 A 
ATOM      3  C   UNL     1       5.865   4.863  17.856  0.00  0.00    +0.000 A 
ATOM      4  C   UNL     1       6.178   4.760  16.446  0.00  0.00    +0.000 A 
ATOM      5  C   UNL     1       7.298   5.114  15.641  0.00  0.00    +0.000 A 
ATOM      6  C   UNL     1       7.339   4.858  14.269  0.00  0.00    +0.000 A 
ATOM      7  C   UNL     1       6.273   4.228  13.667  0.00  0.00    +0.000 A 
ATOM      8  C   UNL     1       5.167   3.865  14.429  0.00  0.00    +0.000 A 
ATOM      9  C   UNL     1       5.116   4.120  15.817  0.00  0.00    +0.000 A 
ENDROOT
BRANCH   2  10
ATOM     10  C   UNL     1       3.705   4.243  19.344  0.00  0.00    +0.000 A 
ATOM     11  C   UNL     1       3.641   3.124  20.202  0.00  0.00    +0.000 A 
ATOM     12  C   UNL     1       2.875   3.069  21.379  0.00  0.00    +0.000 A 
ATOM     13  C   UNL     1       2.139   4.163  21.777  0.00  0.00    +0.000 A 
ATOM     14  C   UNL     1       2.143   5.284  20.965  0.00  0.00    +0.000 A 
ATOM     15  C   UNL     1       2.880   5.301  19.761  0.00  0.00    +0.000 A 
ENDBRANCH   2  10
BRANCH   1  17
ATOM     16  C   UNL     1       2.486   1.912  17.373  0.00  0.00    +0.000 C 
ATOM     17  C   UNL     1       2.935   3.092  16.528  0.00  0.00    +0.000 C 
ENDBRANCH   1  17
BRANCH   3  18
ATOM     18  C   UNL     1       6.825   5.399  18.860  0.00  0.00    +0.000 C 
ATOM     19  O   UNL     1       6.683   5.191  20.069  0.00  0.00    +0.000 OA
BRANCH  18  20
ATOM     20  C   UNL     1       8.100   6.111  18.374  0.00  0.00    +0.000 C 
BRANCH  20  21
ATOM     21  O   UNL     1       8.246   7.480  18.763  0.00  0.00    +0.000 OA
BRANCH  21  22
ATOM     22  C   UNL     1       7.840   8.380  17.842  0.00  0.00    +0.000 C 
ATOM     23  O   UNL     1       7.062   8.175  16.931  0.00  0.00    +0.000 OA
BRANCH  22  24
ATOM     24  C   UNL     1       8.565   9.640  18.092  0.00  0.00    +0.000 C 
ATOM     25  C   UNL     1       9.173   9.821  19.274  0.00  0.00    +0.000 C 
BRANCH  25  26
ATOM     26  C   UNL     1       9.868  11.027  19.557  0.00  0.00    +0.000 A 
ATOM     27  C   UNL     1       9.888  11.756  20.742  0.00  0.00    +0.000 A 
ATOM     28  C   UNL     1      10.722  12.882  20.551  0.00  0.00    +0.000 A 
ATOM     29  C   UNL     1      11.172  12.797  19.259  0.00  0.00    +0.000 A 
ATOM     30  O   UNL     1      10.668  11.695  18.654  0.00  0.00    +0.000 OA
ENDBRANCH  25  26
ENDBRANCH  22  24
ENDBRANCH  21  22
ENDBRANCH  20  21
ENDBRANCH  18  20
ENDBRANCH   3  18
TORSDOF 8
ENDMDL
MODEL 2
REMARK VINA RESULT:      -7.7      4.813      8.044
REMARK  Name = 
REMARK  9 active torsions:
REMARK  status: ('A' for Active; 'I' for Inactive)
REMARK    1  A    between atoms: C_1  and  C_2
REMARK    2  A    between atoms: C_2  and  N_3
REMARK    3  A    between atoms: C_4  and  C_5
REMARK    4  A    between atoms: C_11  and  C_12
REMARK    5  A    between atoms: C_12  and  C_14
REMARK    6  A    between atoms: C_14  and  O_15
REMARK    7  A    between atoms: O_15  and  C_16
REMARK    8  A    between atoms: C_16  and  C_18
REMARK    9  A    between atoms: C_19  and  C_20
REMARK                            x       y       z     vdW  Elec       q    Type
REMARK                         _______ _______ _______ _____ _____    ______ ____
ROOT
ATOM      1  N   UNL     1       4.279   3.891  17.809  0.00  0.00    +0.000 N 
ATOM      2  C   UNL     1       4.414   5.243  18.257  0.00  0.00    +0.000 A 
ATOM      3  C   UNL     1       3.154   5.545  18.857  0.00  0.00    +0.000 A 
ATOM      4  C   UNL     1       2.341   4.348  18.836  0.00  0.00    +0.000 A 
ATOM      5  C   UNL     1       1.024   4.025  19.274  0.00  0.00    +0.000 A 
ATOM      6  C   UNL     1       0.468   2.759  19.088  0.00  0.00    +0.000 A 
ATOM      7  C   UNL     1       1.201   1.786  18.445  0.00  0.00    +0.000 A 
ATOM      8  C   UNL     1       2.487   2.074  17.999  0.00  0.00    +0.000 A 
ATOM      9  C   UNL     1       3.059   3.352  18.184  0.00  0.00    +0.000 A 
ENDROOT
BRANCH   2  10
ATOM     10  C   UNL     1       5.672   6.110  18.078  0.00  0.00    +0.000 A 
ATOM     11  C   UNL     1       5.796   7.173  17.156  0.00  0.00    +0.000 A 
ATOM     12  C   UNL     1       6.943   7.974  17.017  0.00  0.00    +0.000 A 
ATOM     13  C   UNL     1       8.035   7.763  17.829  0.00  0.00    +0.000 A 
ATOM     14  C   UNL     1       7.983   6.720  18.738  0.00  0.00    +0.000 A 
ATOM     15  C   UNL     1       6.841   5.896  18.827  0.00  0.00    +0.000 A 
ENDBRANCH   2  10
BRANCH   1  17
ATOM     16  C   UNL     1       5.836   3.689  15.715  0.00  0.00    +0.000 C 
ATOM     17  C   UNL     1       5.287   3.176  17.035  0.00  0.00    +0.000 C 
ENDBRANCH   1  17
BRANCH   3  18
ATOM     18  C   UNL     1       2.663   6.849  19.382  0.00  0.00    +0.000 C 
ATOM     19  O   UNL     1       2.376   7.003  20.573  0.00  0.00    +0.000 OA
BRANCH  18  20
ATOM     20  C   UNL     1       2.641   8.073  18.448  0.00  0.00    +0.000 C 
BRANCH  20  21
ATOM     21  O   UNL     1       1.351   8.522  18.025  0.00  0.00    +0.000 OA
BRANCH  21  22
ATOM     22  C   UNL     1       0.885   9.610  18.675  0.00  0.00    +0.000 C 
ATOM     23  O   UNL     1       1.239  10.000  19.770  0.00  0.00    +0.000 OA
BRANCH  22  24
ATOM     24  C   UNL     1      -0.183  10.206  17.850  0.00  0.00    +0.000 C 
ATOM     25  C   UNL     1      -1.430   9.721  17.945  0.00  0.00    +0.000 C 
BRANCH  25  26
ATOM     26  C   UNL     1      -2.481  10.259  17.156  0.00  0.00    +0.000 A 
ATOM     27  C   UNL     1      -2.736  10.060  15.802  0.00  0.00    +0.000 A 
ATOM     28  C   UNL     1      -3.894  10.796  15.461  0.00  0.00    +0.000 A 
ATOM     29  C   UNL     1      -4.297  11.414  16.616  0.00  0.00    +0.000 A 
ATOM     30  O   UNL     1      -3.460  11.103  17.636  0.00  0.00    +0.000 OA
ENDBRANCH  25  26
ENDBRANCH  22  24
ENDBRANCH  21  22
ENDBRANCH  20  21
ENDBRANCH  18  20
ENDBRANCH   3  18
TORSDOF 8
ENDMDL
MODEL 3
REMARK VINA RESULT:      -7.7      7.736     10.423
REMARK  Name = 
REMARK  9 active torsions:
REMARK  status: ('A' for Active; 'I' for Inactive)
REMARK    1  A    between atoms: C_1  and  C_2
REMARK    2  A    between atoms: C_2  and  N_3
REMARK    3  A    between atoms: C_4  and  C_5
REMARK    4  A    between atoms: C_11  and  C_12
REMARK    5  A    between atoms: C_12  and  C_14
REMARK    6  A    between atoms: C_14  and  O_15
REMARK    7  A    between atoms: O_15  and  C_16
REMARK    8  A    between atoms: C_16  and  C_18
REMARK    9  A    between atoms: C_19  and  C_20
REMARK                            x       y       z     vdW  Elec       q    Type
REMARK                         _______ _______ _______ _____ _____    ______ ____
ROOT
ATOM      1  N   UNL     1      -3.692  12.333  19.557  0.00  0.00    +0.000 N 
ATOM      2  C   UNL     1      -2.630  12.263  20.513  0.00  0.00    +0.000 A 
ATOM      3  C   UNL     1      -1.681  11.373  19.926  0.00  0.00    +0.000 A 
ATOM      4  C   UNL     1      -2.152  11.011  18.606  0.00  0.00    +0.000 A 
ATOM      5  C   UNL     1      -1.659  10.178  17.561  0.00  0.00    +0.000 A 
ATOM      6  C   UNL     1      -2.362   9.982  16.372  0.00  0.00    +0.000 A 
ATOM      7  C   UNL     1      -3.582  10.595  16.198  0.00  0.00    +0.000 A 
ATOM      8  C   UNL     1      -4.093  11.410  17.204  0.00  0.00    +0.000 A 
ATOM      9  C   UNL     1      -3.389  11.616  18.411  0.00  0.00    +0.000 A 
ENDROOT
BRANCH   2  10
ATOM     10  C   UNL     1      -2.606  13.007  21.860  0.00  0.00    +0.000 A 
ATOM     11  C   UNL     1      -1.887  14.195  22.114  0.00  0.00    +0.000 A 
ATOM     12  C   UNL     1      -1.892  14.879  23.342  0.00  0.00    +0.000 A 
ATOM     13  C   UNL     1      -2.653  14.413  24.390  0.00  0.00    +0.000 A 
ATOM     14  C   UNL     1      -3.364  13.238  24.210  0.00  0.00    +0.000 A 
ATOM     15  C   UNL     1      -3.307  12.540  22.985  0.00  0.00    +0.000 A 
ENDBRANCH   2  10
BRANCH   1  17
ATOM     16  C   UNL     1      -6.165  12.412  20.410  0.00  0.00    +0.000 C 
ATOM     17  C   UNL     1      -4.944  13.050  19.768  0.00  0.00    +0.000 C 
ENDBRANCH   1  17
BRANCH   3  18
ATOM     18  C   UNL     1      -0.434  10.818  20.521  0.00  0.00    +0.000 C 
ATOM     19  O   UNL     1      -0.417  10.334  21.657  0.00  0.00    +0.000 OA
BRANCH  18  20
ATOM     20  C   UNL     1       0.832  10.717  19.651  0.00  0.00    +0.000 C 
BRANCH  20  21
ATOM     21  O   UNL     1       1.297   9.395  19.363  0.00  0.00    +0.000 OA
BRANCH  21  22
ATOM     22  C   UNL     1       1.954   9.266  18.191  0.00  0.00    +0.000 C 
ATOM     23  O   UNL     1       2.281  10.169  17.446  0.00  0.00    +0.000 OA
BRANCH  22  24
ATOM     24  C   UNL     1       2.142   7.825  17.935  0.00  0.00    +0.000 C 
ATOM     25  C   UNL     1       3.387   7.333  17.856  0.00  0.00    +0.000 C 
BRANCH  25  26
ATOM     26  C   UNL     1       3.609   5.954  17.597  0.00  0.00    +0.000 A 
ATOM     27  C   UNL     1       2.924   4.857  18.111  0.00  0.00    +0.000 A 
ATOM     28  C   UNL     1       3.497   3.686  17.562  0.00  0.00    +0.000 A 
ATOM     29  C   UNL     1       4.507   4.115  16.741  0.00  0.00    +0.000 A 
ATOM     30  O   UNL     1       4.585   5.467  16.754  0.00  0.00    +0.000 OA
ENDBRANCH  25  26
ENDBRANCH  22  24
ENDBRANCH  21  22
ENDBRANCH  20  21
ENDBRANCH  18  20
ENDBRANCH   3  18
TORSDOF 8
ENDMDL
MODEL 4
REMARK VINA RESULT:      -7.6      7.632     10.440
REMARK  Name = 
REMARK  9 active torsions:
REMARK  status: ('A' for Active; 'I' for Inactive)
REMARK    1  A    between atoms: C_1  and  C_2
REMARK    2  A    between atoms: C_2  and  N_3
REMARK    3  A    between atoms: C_4  and  C_5
REMARK    4  A    between atoms: C_11  and  C_12
REMARK    5  A    between atoms: C_12  and  C_14
REMARK    6  A    between atoms: C_14  and  O_15
REMARK    7  A    between atoms: O_15  and  C_16
REMARK    8  A    between atoms: C_16  and  C_18
REMARK    9  A    between atoms: C_19  and  C_20
REMARK                            x       y       z     vdW  Elec       q    Type
REMARK                         _______ _______ _______ _____ _____    ______ ____
ROOT
ATOM      1  N   UNL     1      -3.510  12.348  19.568  0.00  0.00    +0.000 N 
ATOM      2  C   UNL     1      -2.464  12.222  20.535  0.00  0.00    +0.000 A 
ATOM      3  C   UNL     1      -1.567  11.269  19.966  0.00  0.00    +0.000 A 
ATOM      4  C   UNL     1      -2.047  10.924  18.645  0.00  0.00    +0.000 A 
ATOM      5  C   UNL     1      -1.596  10.052  17.613  0.00  0.00    +0.000 A 
ATOM      6  C   UNL     1      -2.299   9.887  16.418  0.00  0.00    +0.000 A 
ATOM      7  C   UNL     1      -3.477  10.573  16.227  0.00  0.00    +0.000 A 
ATOM      8  C   UNL     1      -3.946  11.428  17.219  0.00  0.00    +0.000 A 
ATOM      9  C   UNL     1      -3.242  11.602  18.431  0.00  0.00    +0.000 A 
ENDROOT
BRANCH   2  10
ATOM     10  C   UNL     1      -2.407  12.977  21.875  0.00  0.00    +0.000 A 
ATOM     11  C   UNL     1      -3.325  12.812  22.935  0.00  0.00    +0.000 A 
ATOM     12  C   UNL     1      -3.249  13.490  24.164  0.00  0.00    +0.000 A 
ATOM     13  C   UNL     1      -2.214  14.365  24.408  0.00  0.00    +0.000 A 
ATOM     14  C   UNL     1      -1.293  14.587  23.398  0.00  0.00    +0.000 A 
ATOM     15  C   UNL     1      -1.416  13.933  22.153  0.00  0.00    +0.000 A 
ENDBRANCH   2  10
BRANCH   1  17
ATOM     16  C   UNL     1      -5.989  12.583  20.373  0.00  0.00    +0.000 C 
ATOM     17  C   UNL     1      -4.718  13.143  19.759  0.00  0.00    +0.000 C 
ENDBRANCH   1  17
BRANCH   3  18
ATOM     18  C   UNL     1      -0.362  10.644  20.579  0.00  0.00    +0.000 C 
ATOM     19  O   UNL     1      -0.423  10.027  21.647  0.00  0.00    +0.000 OA
BRANCH  18  20
ATOM     20  C   UNL     1       0.964  10.645  19.796  0.00  0.00    +0.000 C 
BRANCH  20  21
ATOM     21  O   UNL     1       1.413   9.376  19.313  0.00  0.00    +0.000 OA
BRANCH  21  22
ATOM     22  C   UNL     1       1.972   9.400  18.084  0.00  0.00    +0.000 C 
ATOM     23  O   UNL     1       2.160  10.386  17.399  0.00  0.00    +0.000 OA
BRANCH  22  24
ATOM     24  C   UNL     1       2.252   8.007  17.688  0.00  0.00    +0.000 C 
ATOM     25  C   UNL     1       2.457   7.085  18.640  0.00  0.00    +0.000 C 
BRANCH  25  26
ATOM     26  C   UNL     1       2.744   5.737  18.296  0.00  0.00    +0.000 A 
ATOM     27  C   UNL     1       1.865   4.751  17.856  0.00  0.00    +0.000 A 
ATOM     28  C   UNL     1       2.609   3.569  17.636  0.00  0.00    +0.000 A 
ATOM     29  C   UNL     1       3.906   3.879  17.951  0.00  0.00    +0.000 A 
ATOM     30  O   UNL     1       4.000   5.171  18.349  0.00  0.00    +0.000 OA
ENDBRANCH  25  26
ENDBRANCH  22  24
ENDBRANCH  21  22
ENDBRANCH  20  21
ENDBRANCH  18  20
ENDBRANCH   3  18
TORSDOF 8
ENDMDL
MODEL 5
REMARK VINA RESULT:      -7.6      2.322      4.086
REMARK  Name = 
REMARK  9 active torsions:
REMARK  status: ('A' for Active; 'I' for Inactive)
REMARK    1  A    between atoms: C_1  and  C_2
REMARK    2  A    between atoms: C_2  and  N_3
REMARK    3  A    between atoms: C_4  and  C_5
REMARK    4  A    between atoms: C_11  and  C_12
REMARK    5  A    between atoms: C_12  and  C_14
REMARK    6  A    between atoms: C_14  and  O_15
REMARK    7  A    between atoms: O_15  and  C_16
REMARK    8  A    between atoms: C_16  and  C_18
REMARK    9  A    between atoms: C_19  and  C_20
REMARK                            x       y       z     vdW  Elec       q    Type
REMARK                         _______ _______ _______ _____ _____    ______ ____
ROOT
ATOM      1  N   UNL     1       2.280   5.706  19.586  0.00  0.00    +0.000 N 
ATOM      2  C   UNL     1       3.278   5.026  18.820  0.00  0.00    +0.000 A 
ATOM      3  C   UNL     1       3.718   5.996  17.869  0.00  0.00    +0.000 A 
ATOM      4  C   UNL     1       3.044   7.246  18.149  0.00  0.00    +0.000 A 
ATOM      5  C   UNL     1       3.063   8.545  17.566  0.00  0.00    +0.000 A 
ATOM      6  C   UNL     1       2.259   9.584  18.037  0.00  0.00    +0.000 A 
ATOM      7  C   UNL     1       1.403   9.352  19.090  0.00  0.00    +0.000 A 
ATOM      8  C   UNL     1       1.357   8.091  19.676  0.00  0.00    +0.000 A 
ATOM      9  C   UNL     1       2.167   7.034  19.207  0.00  0.00    +0.000 A 
ENDROOT
BRANCH   2  10
ATOM     10  C   UNL     1       3.711   3.565  19.034  0.00  0.00    +0.000 A 
ATOM     11  C   UNL     1       3.441   2.504  18.143  0.00  0.00    +0.000 A 
ATOM     12  C   UNL     1       3.862   1.177  18.338  0.00  0.00    +0.000 A 
ATOM     13  C   UNL     1       4.612   0.845  19.443  0.00  0.00    +0.000 A 
ATOM     14  C   UNL     1       4.892   1.838  20.367  0.00  0.00    +0.000 A 
ATOM     15  C   UNL     1       4.417   3.154  20.177  0.00  0.00    +0.000 A 
ENDBRANCH   2  10
BRANCH   1  17
ATOM     16  C   UNL     1       0.695   3.787  20.397  0.00  0.00    +0.000 C 
ATOM     17  C   UNL     1       1.466   5.077  20.620  0.00  0.00    +0.000 C 
ENDBRANCH   1  17
BRANCH   3  18
ATOM     18  C   UNL     1       4.653   5.819  16.724  0.00  0.00    +0.000 C 
ATOM     19  O   UNL     1       4.556   4.864  15.948  0.00  0.00    +0.000 OA
BRANCH  18  20
ATOM     20  C   UNL     1       5.679   6.925  16.416  0.00  0.00    +0.000 C 
BRANCH  20  21
ATOM     21  O   UNL     1       7.057   6.561  16.545  0.00  0.00    +0.000 OA
BRANCH  21  22
ATOM     22  C   UNL     1       7.621   6.876  17.731  0.00  0.00    +0.000 C 
ATOM     23  O   UNL     1       7.779   6.125  18.673  0.00  0.00    +0.000 OA
BRANCH  22  24
ATOM     24  C   UNL     1       7.947   8.314  17.708  0.00  0.00    +0.000 C 
ATOM     25  C   UNL     1       8.708   8.828  18.686  0.00  0.00    +0.000 C 
BRANCH  25  26
ATOM     26  C   UNL     1       9.031  10.211  18.705  0.00  0.00    +0.000 A 
ATOM     27  C   UNL     1       8.620  11.207  17.825  0.00  0.00    +0.000 A 
ATOM     28  C   UNL     1       9.191  12.429  18.249  0.00  0.00    +0.000 A 
ATOM     29  C   UNL     1       9.927  12.129  19.365  0.00  0.00    +0.000 A 
ATOM     30  O   UNL     1       9.842  10.807  19.648  0.00  0.00    +0.000 OA
ENDBRANCH  25  26
ENDBRANCH  22  24
ENDBRANCH  21  22
ENDBRANCH  20  21
ENDBRANCH  18  20
ENDBRANCH   3  18
TORSDOF 8
ENDMDL
MODEL 6
REMARK VINA RESULT:      -7.6      4.485      7.992
REMARK  Name = 
REMARK  9 active torsions:
REMARK  status: ('A' for Active; 'I' for Inactive)
REMARK    1  A    between atoms: C_1  and  C_2
REMARK    2  A    between atoms: C_2  and  N_3
REMARK    3  A    between atoms: C_4  and  C_5
REMARK    4  A    between atoms: C_11  and  C_12
REMARK    5  A    between atoms: C_12  and  C_14
REMARK    6  A    between atoms: C_14  and  O_15
REMARK    7  A    between atoms: O_15  and  C_16
REMARK    8  A    between atoms: C_16  and  C_18
REMARK    9  A    between atoms: C_19  and  C_20
REMARK                            x       y       z     vdW  Elec       q    Type
REMARK                         _______ _______ _______ _____ _____    ______ ____
ROOT
ATOM      1  N   UNL     1       3.546   3.442  17.977  0.00  0.00    +0.000 N 
ATOM      2  C   UNL     1       4.123   4.580  17.332  0.00  0.00    +0.000 A 
ATOM      3  C   UNL     1       3.549   5.700  18.006  0.00  0.00    +0.000 A 
ATOM      4  C   UNL     1       2.724   5.206  19.088  0.00  0.00    +0.000 A 
ATOM      5  C   UNL     1       1.915   5.817  20.088  0.00  0.00    +0.000 A 
ATOM      6  C   UNL     1       1.181   5.070  21.010  0.00  0.00    +0.000 A 
ATOM      7  C   UNL     1       1.218   3.695  20.949  0.00  0.00    +0.000 A 
ATOM      8  C   UNL     1       1.994   3.069  19.978  0.00  0.00    +0.000 A 
ATOM      9  C   UNL     1       2.742   3.816  19.042  0.00  0.00    +0.000 A 
ENDROOT
BRANCH   2  10
ATOM     10  C   UNL     1       5.124   4.518  16.165  0.00  0.00    +0.000 A 
ATOM     11  C   UNL     1       4.799   4.153  14.840  0.00  0.00    +0.000 A 
ATOM     12  C   UNL     1       5.718   4.123  13.777  0.00  0.00    +0.000 A 
ATOM     13  C   UNL     1       7.029   4.489  13.985  0.00  0.00    +0.000 A 
ATOM     14  C   UNL     1       7.415   4.836  15.269  0.00  0.00    +0.000 A 
ATOM     15  C   UNL     1       6.488   4.811  16.333  0.00  0.00    +0.000 A 
ENDBRANCH   2  10
BRANCH   1  17
ATOM     16  C   UNL     1       4.005   0.926  18.535  0.00  0.00    +0.000 C 
ATOM     17  C   UNL     1       3.756   2.061  17.557  0.00  0.00    +0.000 C 
ENDBRANCH   1  17
BRANCH   3  18
ATOM     18  C   UNL     1       3.677   7.147  17.680  0.00  0.00    +0.000 C 
ATOM     19  O   UNL     1       4.768   7.656  17.405  0.00  0.00    +0.000 OA
BRANCH  18  20
ATOM     20  C   UNL     1       2.403   8.001  17.549  0.00  0.00    +0.000 C 
BRANCH  20  21
ATOM     21  O   UNL     1       2.375   9.213  18.308  0.00  0.00    +0.000 OA
BRANCH  21  22
ATOM     22  C   UNL     1       1.234   9.426  18.998  0.00  0.00    +0.000 C 
ATOM     23  O   UNL     1       1.105   9.386  20.206  0.00  0.00    +0.000 OA
BRANCH  22  24
ATOM     24  C   UNL     1       0.150   9.647  18.021  0.00  0.00    +0.000 C 
ATOM     25  C   UNL     1      -0.948  10.317  18.403  0.00  0.00    +0.000 C 
BRANCH  25  26
ATOM     26  C   UNL     1      -2.018  10.536  17.495  0.00  0.00    +0.000 A 
ATOM     27  C   UNL     1      -3.190  11.258  17.699  0.00  0.00    +0.000 A 
ATOM     28  C   UNL     1      -3.952  11.200  16.509  0.00  0.00    +0.000 A 
ATOM     29  C   UNL     1      -3.218  10.446  15.632  0.00  0.00    +0.000 A 
ATOM     30  O   UNL     1      -2.061  10.041  16.209  0.00  0.00    +0.000 OA
ENDBRANCH  25  26
ENDBRANCH  22  24
ENDBRANCH  21  22
ENDBRANCH  20  21
ENDBRANCH  18  20
ENDBRANCH   3  18
TORSDOF 8
ENDMDL
MODEL 7
REMARK VINA RESULT:      -7.6      8.807     11.987
REMARK  Name = 
REMARK  9 active torsions:
REMARK  status: ('A' for Active; 'I' for Inactive)
REMARK    1  A    between atoms: C_1  and  C_2
REMARK    2  A    between atoms: C_2  and  N_3
REMARK    3  A    between atoms: C_4  and  C_5
REMARK    4  A    between atoms: C_11  and  C_12
REMARK    5  A    between atoms: C_12  and  C_14
REMARK    6  A    between atoms: C_14  and  O_15
REMARK    7  A    between atoms: O_15  and  C_16
REMARK    8  A    between atoms: C_16  and  C_18
REMARK    9  A    between atoms: C_19  and  C_20
REMARK                            x       y       z     vdW  Elec       q    Type
REMARK                         _______ _______ _______ _____ _____    ______ ____
ROOT
ATOM      1  N   UNL     1      -5.182  12.264  20.175  0.00  0.00    +0.000 N 
ATOM      2  C   UNL     1      -3.833  12.228  19.701  0.00  0.00    +0.000 A 
ATOM      3  C   UNL     1      -3.103  13.012  20.643  0.00  0.00    +0.000 A 
ATOM      4  C   UNL     1      -4.009  13.416  21.698  0.00  0.00    +0.000 A 
ATOM      5  C   UNL     1      -3.879  14.189  22.887  0.00  0.00    +0.000 A 
ATOM      6  C   UNL     1      -4.963  14.452  23.726  0.00  0.00    +0.000 A 
ATOM      7  C   UNL     1      -6.208  13.968  23.393  0.00  0.00    +0.000 A 
ATOM      8  C   UNL     1      -6.368  13.215  22.234  0.00  0.00    +0.000 A 
ATOM      9  C   UNL     1      -5.277  12.942  21.380  0.00  0.00    +0.000 A 
ENDROOT
BRANCH   2  10
ATOM     10  C   UNL     1      -3.364  11.491  18.434  0.00  0.00    +0.000 A 
ATOM     11  C   UNL     1      -2.255  10.620  18.370  0.00  0.00    +0.000 A 
ATOM     12  C   UNL     1      -1.849   9.933  17.212  0.00  0.00    +0.000 A 
ATOM     13  C   UNL     1      -2.565  10.067  16.043  0.00  0.00    +0.000 A 
ATOM     14  C   UNL     1      -3.652  10.925  16.036  0.00  0.00    +0.000 A 
ATOM     15  C   UNL     1      -4.012  11.643  17.196  0.00  0.00    +0.000 A 
ENDBRANCH   2  10
BRANCH   1  17
ATOM     16  C   UNL     1      -7.122  10.515  20.018  0.00  0.00    +0.000 C 
ATOM     17  C   UNL     1      -6.319  11.683  19.471  0.00  0.00    +0.000 C 
ENDBRANCH   1  17
BRANCH   3  18
ATOM     18  C   UNL     1      -1.677  13.438  20.594  0.00  0.00    +0.000 C 
ATOM     19  O   UNL     1      -1.304  14.377  19.884  0.00  0.00    +0.000 OA
BRANCH  18  20
ATOM     20  C   UNL     1      -0.666  12.784  21.554  0.00  0.00    +0.000 C 
BRANCH  20  21
ATOM     21  O   UNL     1      -0.093  11.547  21.119  0.00  0.00    +0.000 OA
BRANCH  21  22
ATOM     22  C   UNL     1       0.002  10.597  22.075  0.00  0.00    +0.000 C 
ATOM     23  O   UNL     1      -0.383  10.692  23.224  0.00  0.00    +0.000 OA
BRANCH  22  24
ATOM     24  C   UNL     1       0.722   9.446  21.497  0.00  0.00    +0.000 C 
ATOM     25  C   UNL     1       0.993   9.437  20.184  0.00  0.00    +0.000 C 
BRANCH  25  26
ATOM     26  C   UNL     1       1.672   8.339  19.590  0.00  0.00    +0.000 A 
ATOM     27  C   UNL     1       2.154   8.223  18.290  0.00  0.00    +0.000 A 
ATOM     28  C   UNL     1       2.760   6.951  18.160  0.00  0.00    +0.000 A 
ATOM     29  C   UNL     1       2.620   6.345  19.381  0.00  0.00    +0.000 A 
ATOM     30  O   UNL     1       1.970   7.163  20.243  0.00  0.00    +0.000 OA
ENDBRANCH  25  26
ENDBRANCH  22  24
ENDBRANCH  21  22
ENDBRANCH  20  21
ENDBRANCH  18  20
ENDBRANCH   3  18
TORSDOF 8
ENDMDL
MODEL 8
REMARK VINA RESULT:      -7.6      4.198      7.157
REMARK  Name = 
REMARK  9 active torsions:
REMARK  status: ('A' for Active; 'I' for Inactive)
REMARK    1  A    between atoms: C_1  and  C_2
REMARK    2  A    between atoms: C_2  and  N_3
REMARK    3  A    between atoms: C_4  and  C_5
REMARK    4  A    between atoms: C_11  and  C_12
REMARK    5  A    between atoms: C_12  and  C_14
REMARK    6  A    between atoms: C_14  and  O_15
REMARK    7  A    between atoms: O_15  and  C_16
REMARK    8  A    between atoms: C_16  and  C_18
REMARK    9  A    between atoms: C_19  and  C_20
REMARK                            x       y       z     vdW  Elec       q    Type
REMARK                         _______ _______ _______ _____ _____    ______ ____
ROOT
ATOM      1  N   UNL     1       3.523   3.376  18.030  0.00  0.00    +0.000 N 
ATOM      2  C   UNL     1       4.059   4.557  17.428  0.00  0.00    +0.000 A 
ATOM      3  C   UNL     1       3.405   5.630  18.105  0.00  0.00    +0.000 A 
ATOM      4  C   UNL     1       2.573   5.070  19.149  0.00  0.00    +0.000 A 
ATOM      5  C   UNL     1       1.701   5.615  20.134  0.00  0.00    +0.000 A 
ATOM      6  C   UNL     1       0.977   4.809  21.015  0.00  0.00    +0.000 A 
ATOM      7  C   UNL     1       1.090   3.440  20.926  0.00  0.00    +0.000 A 
ATOM      8  C   UNL     1       1.929   2.878  19.970  0.00  0.00    +0.000 A 
ATOM      9  C   UNL     1       2.666   3.684  19.075  0.00  0.00    +0.000 A 
ENDROOT
BRANCH   2  10
ATOM     10  C   UNL     1       5.099   4.574  16.294  0.00  0.00    +0.000 A 
ATOM     11  C   UNL     1       4.825   4.279  14.941  0.00  0.00    +0.000 A 
ATOM     12  C   UNL     1       5.779   4.321  13.910  0.00  0.00    +0.000 A 
ATOM     13  C   UNL     1       7.076   4.694  14.182  0.00  0.00    +0.000 A 
ATOM     14  C   UNL     1       7.413   4.975  15.496  0.00  0.00    +0.000 A 
ATOM     15  C   UNL     1       6.452   4.878  16.524  0.00  0.00    +0.000 A 
ENDBRANCH   2  10
BRANCH   1  17
ATOM     16  C   UNL     1       4.108   0.879  18.550  0.00  0.00    +0.000 C 
ATOM     17  C   UNL     1       3.820   2.019  17.588  0.00  0.00    +0.000 C 
ENDBRANCH   1  17
BRANCH   3  18
ATOM     18  C   UNL     1       3.466   7.089  17.815  0.00  0.00    +0.000 C 
ATOM     19  O   UNL     1       4.463   7.608  17.305  0.00  0.00    +0.000 OA
BRANCH  18  20
ATOM     20  C   UNL     1       2.207   7.949  18.027  0.00  0.00    +0.000 C 
BRANCH  20  21
ATOM     21  O   UNL     1       2.142   9.168  17.280  0.00  0.00    +0.000 OA
BRANCH  21  22
ATOM     22  C   UNL     1       1.999  10.285  18.025  0.00  0.00    +0.000 C 
ATOM     23  O   UNL     1       2.476  11.376  17.783  0.00  0.00    +0.000 OA
BRANCH  22  24
ATOM     24  C   UNL     1       1.220   9.930  19.226  0.00  0.00    +0.000 C 
ATOM     25  C   UNL     1       1.067  10.840  20.199  0.00  0.00    +0.000 C 
BRANCH  25  26
ATOM     26  C   UNL     1       0.336  10.530  21.377  0.00  0.00    +0.000 A 
ATOM     27  C   UNL     1       0.379   9.367  22.140  0.00  0.00    +0.000 A 
ATOM     28  C   UNL     1      -0.521   9.519  23.221  0.00  0.00    +0.000 A 
ATOM     29  C   UNL     1      -1.074  10.764  23.073  0.00  0.00    +0.000 A 
ATOM     30  O   UNL     1      -0.573  11.377  21.974  0.00  0.00    +0.000 OA
ENDBRANCH  25  26
ENDBRANCH  22  24
ENDBRANCH  21  22
ENDBRANCH  20  21
ENDBRANCH  18  20
ENDBRANCH   3  18
TORSDOF 8
ENDMDL
MODEL 9
REMARK VINA RESULT:      -7.5      4.088      6.998
REMARK  Name = 
REMARK  9 active torsions:
REMARK  status: ('A' for Active; 'I' for Inactive)
REMARK    1  A    between atoms: C_1  and  C_2
REMARK    2  A    between atoms: C_2  and  N_3
REMARK    3  A    between atoms: C_4  and  C_5
REMARK    4  A    between atoms: C_11  and  C_12
REMARK    5  A    between atoms: C_12  and  C_14
REMARK    6  A    between atoms: C_14  and  O_15
REMARK    7  A    between atoms: O_15  and  C_16
REMARK    8  A    between atoms: C_16  and  C_18
REMARK    9  A    between atoms: C_19  and  C_20
REMARK                            x       y       z     vdW  Elec       q    Type
REMARK                         _______ _______ _______ _____ _____    ______ ____
ROOT
ATOM      1  N   UNL     1       2.144   4.731  19.373  0.00  0.00    +0.000 N 
ATOM      2  C   UNL     1       2.620   5.990  18.889  0.00  0.00    +0.000 A 
ATOM      3  C   UNL     1       3.686   5.651  18.003  0.00  0.00    +0.000 A 
ATOM      4  C   UNL     1       3.758   4.208  17.909  0.00  0.00    +0.000 A 
ATOM      5  C   UNL     1       4.589   3.291  17.204  0.00  0.00    +0.000 A 
ATOM      6  C   UNL     1       4.449   1.909  17.332  0.00  0.00    +0.000 A 
ATOM      7  C   UNL     1       3.489   1.403  18.179  0.00  0.00    +0.000 A 
ATOM      8  C   UNL     1       2.666   2.273  18.887  0.00  0.00    +0.000 A 
ATOM      9  C   UNL     1       2.799   3.673  18.763  0.00  0.00    +0.000 A 
ENDROOT
BRANCH   2  10
ATOM     10  C   UNL     1       2.055   7.362  19.298  0.00  0.00    +0.000 A 
ATOM     11  C   UNL     1       1.817   8.434  18.412  0.00  0.00    +0.000 A 
ATOM     12  C   UNL     1       1.278   9.676  18.793  0.00  0.00    +0.000 A 
ATOM     13  C   UNL     1       0.921   9.901  20.104  0.00  0.00    +0.000 A 
ATOM     14  C   UNL     1       1.152   8.894  21.027  0.00  0.00    +0.000 A 
ATOM     15  C   UNL     1       1.739   7.673  20.632  0.00  0.00    +0.000 A 
ENDBRANCH   2  10
BRANCH   1  17
ATOM     16  C   UNL     1       1.163   3.496  21.462  0.00  0.00    +0.000 C 
ATOM     17  C   UNL     1       1.115   4.577  20.395  0.00  0.00    +0.000 C 
ENDBRANCH   1  17
BRANCH   3  18
ATOM     18  C   UNL     1       4.641   6.556  17.306  0.00  0.00    +0.000 C 
ATOM     19  O   UNL     1       5.211   7.477  17.898  0.00  0.00    +0.000 OA
BRANCH  18  20
ATOM     20  C   UNL     1       5.034   6.253  15.849  0.00  0.00    +0.000 C 
BRANCH  20  21
ATOM     21  O   UNL     1       6.436   6.185  15.574  0.00  0.00    +0.000 OA
BRANCH  21  22
ATOM     22  C   UNL     1       6.975   4.950  15.666  0.00  0.00    +0.000 C 
ATOM     23  O   UNL     1       7.906   4.622  16.375  0.00  0.00    +0.000 OA
BRANCH  22  24
ATOM     24  C   UNL     1       6.278   4.081  14.699  0.00  0.00    +0.000 C 
ATOM     25  C   UNL     1       6.600   4.160  13.399  0.00  0.00    +0.000 C 
BRANCH  25  26
ATOM     26  C   UNL     1       5.941   3.349  12.436  0.00  0.00    +0.000 A 
ATOM     27  C   UNL     1       4.684   3.532  11.867  0.00  0.00    +0.000 A 
ATOM     28  C   UNL     1       4.457   2.473  10.958  0.00  0.00    +0.000 A 
ATOM     29  C   UNL     1       5.579   1.689  11.011  0.00  0.00    +0.000 A 
ATOM     30  O   UNL     1       6.473   2.200  11.892  0.00  0.00    +0.000 OA
ENDBRANCH  25  26
ENDBRANCH  22  24
ENDBRANCH  21  22
ENDBRANCH  20  21
ENDBRANCH  18  20
ENDBRANCH   3  18
TORSDOF 8
ENDMDL
