MODEL 1
REMARK VINA RESULT:      -7.6      0.000      0.000
REMARK  Name = 
REMARK  6 active torsions:
REMARK  status: ('A' for Active; 'I' for Inactive)
REMARK    1  A    between atoms: S_2  and  N_4
REMARK    2  A    between atoms: S_2  and  C_18
REMARK    3  A    between atoms: N_4  and  N_5
REMARK    4  A    between atoms: C_6  and  C_7
REMARK    5  A    between atoms: C_11  and  O_12
REMARK    6  A    between atoms: O_12  and  C_13
REMARK                            x       y       z     vdW  Elec       q    Type
REMARK                         _______ _______ _______ _____ _____    ______ ____
ROOT
ATOM      1  N   UNL     1       8.113   7.903  18.242  0.00  0.00    +0.000 NA
ATOM      2  C   UNL     1       8.062   9.076  17.700  0.00  0.00    +0.000 C 
ENDROOT
BRANCH   2   3
ATOM      3  C   UNL     1       8.684  10.244  18.357  0.00  0.00    +0.000 A 
ATOM      4  C   UNL     1       9.356  10.085  19.573  0.00  0.00    +0.000 A 
ATOM      5  C   UNL     1       9.977  11.178  20.171  0.00  0.00    +0.000 A 
ATOM      6  C   UNL     1       9.926  12.425  19.552  0.00  0.00    +0.000 A 
ATOM      7  C   UNL     1       9.241  12.591  18.344  0.00  0.00    +0.000 A 
ATOM      8  C   UNL     1       8.616  11.500  17.738  0.00  0.00    +0.000 A 
BRANCH   7   9
ATOM      9  O   UNL     1       9.302  13.856  17.816  0.00  0.00    +0.000 OA
BRANCH   9  10
ATOM     10  C   UNL     1      10.420  14.713  18.152  0.00  0.00    +0.000 C 
ATOM     11  C   UNL     1      11.247  15.274  16.956  0.00  0.00    +0.000 C 
ATOM     12  S   UNL     1      11.477  16.852  17.831  0.00  0.00    +0.000 S 
ATOM     13  C   UNL     1       9.990  16.144  18.599  0.00  0.00    +0.000 C 
ENDBRANCH   9  10
ENDBRANCH   7   9
ENDBRANCH   2   3
BRANCH   1  14
ATOM     14  N   UNL     1       7.479   6.851  17.512  0.00  0.00    +0.000 N 
ATOM     15  H   UNL     1       6.833   7.005  16.736  0.00  0.00    +0.000 HD
BRANCH  14  17
ATOM     16  O   UNL     1       8.064   4.346  17.243  0.00  0.00    +0.000 OA
ATOM     17  S   UNL     1       7.426   5.274  18.151  0.00  0.00    +0.000 S 
ATOM     18  O   UNL     1       7.855   5.402  19.530  0.00  0.00    +0.000 OA
BRANCH  17  19
ATOM     19  C   UNL     1       5.683   4.931  18.149  0.00  0.00    +0.000 A 
ATOM     20  C   UNL     1       4.901   5.371  19.222  0.00  0.00    +0.000 A 
ATOM     21  C   UNL     1       3.537   5.079  19.245  0.00  0.00    +0.000 A 
ATOM     22  C   UNL     1       2.957   4.367  18.194  0.00  0.00    +0.000 A 
ATOM     23  C   UNL     1       3.737   3.953  17.112  0.00  0.00    +0.000 A 
ATOM     24  C   UNL     1       5.104   4.233  17.085  0.00  0.00    +0.000 A 
ENDBRANCH  17  19
ENDBRANCH  14  17
ENDBRANCH   1  14
TORSDOF 6
ENDMDL
MODEL 2
REMARK VINA RESULT:      -7.5      1.412      1.701
REMARK  Name = 
REMARK  6 active torsions:
REMARK  status: ('A' for Active; 'I' for Inactive)
REMARK    1  A    between atoms: S_2  and  N_4
REMARK    2  A    between atoms: S_2  and  C_18
REMARK    3  A    between atoms: N_4  and  N_5
REMARK    4  A    between atoms: C_6  and  C_7
REMARK    5  A    between atoms: C_11  and  O_12
REMARK    6  A    between atoms: O_12  and  C_13
REMARK                            x       y       z     vdW  Elec       q    Type
REMARK                         _______ _______ _______ _____ _____    ______ ____
ROOT
ATOM      1  N   UNL     1       8.051   8.596  18.050  0.00  0.00    +0.000 NA
ATOM      2  C   UNL     1       8.362   9.796  17.682  0.00  0.00    +0.000 C 
ENDROOT
BRANCH   2   3
ATOM      3  C   UNL     1       9.298  10.616  18.479  0.00  0.00    +0.000 A 
ATOM      4  C   UNL     1       9.240  10.581  19.877  0.00  0.00    +0.000 A 
ATOM      5  C   UNL     1      10.148  11.323  20.628  0.00  0.00    +0.000 A 
ATOM      6  C   UNL     1      11.111  12.095  19.981  0.00  0.00    +0.000 A 
ATOM      7  C   UNL     1      11.160  12.145  18.584  0.00  0.00    +0.000 A 
ATOM      8  C   UNL     1      10.254  11.404  17.825  0.00  0.00    +0.000 A 
BRANCH   7   9
ATOM      9  O   UNL     1      12.181  12.905  18.070  0.00  0.00    +0.000 OA
BRANCH   9  10
ATOM     10  C   UNL     1      11.933  14.291  17.730  0.00  0.00    +0.000 C 
ATOM     11  C   UNL     1      10.446  14.757  17.769  0.00  0.00    +0.000 C 
ATOM     12  S   UNL     1      10.953  16.381  18.415  0.00  0.00    +0.000 S 
ATOM     13  C   UNL     1      12.333  15.287  18.862  0.00  0.00    +0.000 C 
ENDBRANCH   9  10
ENDBRANCH   7   9
ENDBRANCH   2   3
BRANCH   1  14
ATOM     14  N   UNL     1       7.140   7.900  17.197  0.00  0.00    +0.000 N 
ATOM     15  H   UNL     1       6.313   8.327  16.777  0.00  0.00    +0.000 HD
BRANCH  14  17
ATOM     16  O   UNL     1       7.489   5.730  15.834  0.00  0.00    +0.000 OA
ATOM     17  S   UNL     1       7.134   6.198  17.155  0.00  0.00    +0.000 S 
ATOM     18  O   UNL     1       7.872   5.781  18.331  0.00  0.00    +0.000 OA
BRANCH  17  19
ATOM     19  C   UNL     1       5.418   5.826  17.426  0.00  0.00    +0.000 A 
ATOM     20  C   UNL     1       4.971   4.511  17.262  0.00  0.00    +0.000 A 
ATOM     21  C   UNL     1       3.620   4.216  17.442  0.00  0.00    +0.000 A 
ATOM     22  C   UNL     1       2.726   5.227  17.799  0.00  0.00    +0.000 A 
ATOM     23  C   UNL     1       3.181   6.533  17.986  0.00  0.00    +0.000 A 
ATOM     24  C   UNL     1       4.530   6.839  17.800  0.00  0.00    +0.000 A 
ENDBRANCH  17  19
ENDBRANCH  14  17
ENDBRANCH   1  14
TORSDOF 6
ENDMDL
MODEL 3
REMARK VINA RESULT:      -7.3      7.034     10.291
REMARK  Name = 
REMARK  6 active torsions:
REMARK  status: ('A' for Active; 'I' for Inactive)
REMARK    1  A    between atoms: S_2  and  N_4
REMARK    2  A    between atoms: S_2  and  C_18
REMARK    3  A    between atoms: N_4  and  N_5
REMARK    4  A    between atoms: C_6  and  C_7
REMARK    5  A    between atoms: C_11  and  O_12
REMARK    6  A    between atoms: O_12  and  C_13
REMARK                            x       y       z     vdW  Elec       q    Type
REMARK                         _______ _______ _______ _____ _____    ______ ____
ROOT
ATOM      1  N   UNL     1       1.880   9.336  17.668  0.00  0.00    +0.000 NA
ATOM      2  C   UNL     1       2.361   8.461  18.489  0.00  0.00    +0.000 C 
ENDROOT
BRANCH   2   3
ATOM      3  C   UNL     1       2.879   7.166  18.001  0.00  0.00    +0.000 A 
ATOM      4  C   UNL     1       4.146   7.099  17.411  0.00  0.00    +0.000 A 
ATOM      5  C   UNL     1       4.651   5.872  16.988  0.00  0.00    +0.000 A 
ATOM      6  C   UNL     1       3.889   4.718  17.157  0.00  0.00    +0.000 A 
ATOM      7  C   UNL     1       2.616   4.784  17.731  0.00  0.00    +0.000 A 
ATOM      8  C   UNL     1       2.103   6.009  18.158  0.00  0.00    +0.000 A 
BRANCH   7   9
ATOM      9  O   UNL     1       1.988   3.573  17.882  0.00  0.00    +0.000 OA
BRANCH   9  10
ATOM     10  C   UNL     1       2.063   2.888  19.155  0.00  0.00    +0.000 C 
ATOM     11  C   UNL     1       3.196   3.347  20.123  0.00  0.00    +0.000 C 
ATOM     12  S   UNL     1       2.097   3.106  21.553  0.00  0.00    +0.000 S 
ATOM     13  C   UNL     1       0.952   3.325  20.160  0.00  0.00    +0.000 C 
ENDBRANCH   9  10
ENDBRANCH   7   9
ENDBRANCH   2   3
BRANCH   1  14
ATOM     14  N   UNL     1       1.413  10.552  18.257  0.00  0.00    +0.000 N 
ATOM     15  H   UNL     1       2.015  11.214  18.749  0.00  0.00    +0.000 HD
BRANCH  14  17
ATOM     16  O   UNL     1      -0.615  12.156  18.292  0.00  0.00    +0.000 OA
ATOM     17  S   UNL     1      -0.249  10.781  18.549  0.00  0.00    +0.000 S 
ATOM     18  O   UNL     1      -0.913   9.680  17.880  0.00  0.00    +0.000 OA
BRANCH  17  19
ATOM     19  C   UNL     1      -0.360  10.503  20.300  0.00  0.00    +0.000 A 
ATOM     20  C   UNL     1      -0.166   9.211  20.800  0.00  0.00    +0.000 A 
ATOM     21  C   UNL     1      -0.283   8.977  22.170  0.00  0.00    +0.000 A 
ATOM     22  C   UNL     1      -0.574  10.032  23.036  0.00  0.00    +0.000 A 
ATOM     23  C   UNL     1      -0.741  11.325  22.536  0.00  0.00    +0.000 A 
ATOM     24  C   UNL     1      -0.635  11.567  21.165  0.00  0.00    +0.000 A 
ENDBRANCH  17  19
ENDBRANCH  14  17
ENDBRANCH   1  14
TORSDOF 6
ENDMDL
MODEL 4
REMARK VINA RESULT:      -7.3      1.361      1.546
REMARK  Name = 
REMARK  6 active torsions:
REMARK  status: ('A' for Active; 'I' for Inactive)
REMARK    1  A    between atoms: S_2  and  N_4
REMARK    2  A    between atoms: S_2  and  C_18
REMARK    3  A    between atoms: N_4  and  N_5
REMARK    4  A    between atoms: C_6  and  C_7
REMARK    5  A    between atoms: C_11  and  O_12
REMARK    6  A    between atoms: O_12  and  C_13
REMARK                            x       y       z     vdW  Elec       q    Type
REMARK                         _______ _______ _______ _____ _____    ______ ____
ROOT
ATOM      1  N   UNL     1       8.287   8.256  18.186  0.00  0.00    +0.000 NA
ATOM      2  C   UNL     1       8.313   9.471  17.744  0.00  0.00    +0.000 C 
ENDROOT
BRANCH   2   3
ATOM      3  C   UNL     1       8.921  10.557  18.541  0.00  0.00    +0.000 A 
ATOM      4  C   UNL     1       9.372  10.300  19.840  0.00  0.00    +0.000 A 
ATOM      5  C   UNL     1       9.981  11.313  20.576  0.00  0.00    +0.000 A 
ATOM      6  C   UNL     1      10.140  12.576  20.011  0.00  0.00    +0.000 A 
ATOM      7  C   UNL     1       9.676  12.840  18.719  0.00  0.00    +0.000 A 
ATOM      8  C   UNL     1       9.064  11.831  17.975  0.00  0.00    +0.000 A 
BRANCH   7   9
ATOM      9  O   UNL     1       9.932  14.109  18.262  0.00  0.00    +0.000 OA
BRANCH   9  10
ATOM     10  C   UNL     1       8.835  15.041  18.101  0.00  0.00    +0.000 C 
ATOM     11  C   UNL     1       8.225  15.627  19.410  0.00  0.00    +0.000 C 
ATOM     12  S   UNL     1       7.975  17.234  18.596  0.00  0.00    +0.000 S 
ATOM     13  C   UNL     1       9.288  16.452  17.614  0.00  0.00    +0.000 C 
ENDBRANCH   9  10
ENDBRANCH   7   9
ENDBRANCH   2   3
BRANCH   1  14
ATOM     14  N   UNL     1       7.676   7.293  17.324  0.00  0.00    +0.000 N 
ATOM     15  H   UNL     1       7.205   7.529  16.450  0.00  0.00    +0.000 HD
BRANCH  14  17
ATOM     16  O   UNL     1       7.500   4.758  16.844  0.00  0.00    +0.000 OA
ATOM     17  S   UNL     1       7.322   5.730  17.899  0.00  0.00    +0.000 S 
ATOM     18  O   UNL     1       8.025   5.616  19.163  0.00  0.00    +0.000 OA
BRANCH  17  19
ATOM     19  C   UNL     1       5.585   5.848  18.249  0.00  0.00    +0.000 A 
ATOM     20  C   UNL     1       5.050   5.111  19.310  0.00  0.00    +0.000 A 
ATOM     21  C   UNL     1       3.682   5.173  19.572  0.00  0.00    +0.000 A 
ATOM     22  C   UNL     1       2.857   5.980  18.788  0.00  0.00    +0.000 A 
ATOM     23  C   UNL     1       3.398   6.735  17.745  0.00  0.00    +0.000 A 
ATOM     24  C   UNL     1       4.765   6.672  17.470  0.00  0.00    +0.000 A 
ENDBRANCH  17  19
ENDBRANCH  14  17
ENDBRANCH   1  14
TORSDOF 6
ENDMDL
MODEL 5
REMARK VINA RESULT:      -7.2      6.327      7.784
REMARK  Name = 
REMARK  6 active torsions:
REMARK  status: ('A' for Active; 'I' for Inactive)
REMARK    1  A    between atoms: S_2  and  N_4
REMARK    2  A    between atoms: S_2  and  C_18
REMARK    3  A    between atoms: N_4  and  N_5
REMARK    4  A    between atoms: C_6  and  C_7
REMARK    5  A    between atoms: C_11  and  O_12
REMARK    6  A    between atoms: O_12  and  C_13
REMARK                            x       y       z     vdW  Elec       q    Type
REMARK                         _______ _______ _______ _____ _____    ______ ____
ROOT
ATOM      1  N   UNL     1       4.033   3.040  18.594  0.00  0.00    +0.000 NA
ATOM      2  C   UNL     1       4.805   3.826  19.272  0.00  0.00    +0.000 C 
ENDROOT
BRANCH   2   3
ATOM      3  C   UNL     1       5.769   4.715  18.592  0.00  0.00    +0.000 A 
ATOM      4  C   UNL     1       6.737   5.396  19.339  0.00  0.00    +0.000 A 
ATOM      5  C   UNL     1       7.671   6.202  18.693  0.00  0.00    +0.000 A 
ATOM      6  C   UNL     1       7.636   6.324  17.306  0.00  0.00    +0.000 A 
ATOM      7  C   UNL     1       6.659   5.658  16.559  0.00  0.00    +0.000 A 
ATOM      8  C   UNL     1       5.720   4.848  17.197  0.00  0.00    +0.000 A 
BRANCH   7   9
ATOM      9  O   UNL     1       6.760   5.825  15.200  0.00  0.00    +0.000 OA
BRANCH   9  10
ATOM     10  C   UNL     1       7.033   4.675  14.362  0.00  0.00    +0.000 C 
ATOM     11  C   UNL     1       5.795   3.968  13.732  0.00  0.00    +0.000 C 
ATOM     12  S   UNL     1       6.732   3.646  12.206  0.00  0.00    +0.000 S 
ATOM     13  C   UNL     1       7.601   5.054  12.959  0.00  0.00    +0.000 C 
ENDBRANCH   9  10
ENDBRANCH   7   9
ENDBRANCH   2   3
BRANCH   1  14
ATOM     14  N   UNL     1       3.140   2.230  19.362  0.00  0.00    +0.000 N 
ATOM     15  H   UNL     1       3.265   1.229  19.512  0.00  0.00    +0.000 HD
BRANCH  14  17
ATOM     16  O   UNL     1       0.637   2.358  18.725  0.00  0.00    +0.000 OA
ATOM     17  S   UNL     1       1.576   2.793  19.734  0.00  0.00    +0.000 S 
ATOM     18  O   UNL     1       1.380   2.487  21.137  0.00  0.00    +0.000 OA
BRANCH  17  19
ATOM     19  C   UNL     1       1.769   4.553  19.580  0.00  0.00    +0.000 A 
ATOM     20  C   UNL     1       1.946   5.111  18.310  0.00  0.00    +0.000 A 
ATOM     21  C   UNL     1       2.130   6.488  18.183  0.00  0.00    +0.000 A 
ATOM     22  C   UNL     1       2.121   7.301  19.317  0.00  0.00    +0.000 A 
ATOM     23  C   UNL     1       1.919   6.743  20.580  0.00  0.00    +0.000 A 
ATOM     24  C   UNL     1       1.742   5.365  20.718  0.00  0.00    +0.000 A 
ENDBRANCH  17  19
ENDBRANCH  14  17
ENDBRANCH   1  14
TORSDOF 6
ENDMDL
MODEL 6
REMARK VINA RESULT:      -7.2      7.049     10.462
REMARK  Name = 
REMARK  6 active torsions:
REMARK  status: ('A' for Active; 'I' for Inactive)
REMARK    1  A    between atoms: S_2  and  N_4
REMARK    2  A    between atoms: S_2  and  C_18
REMARK    3  A    between atoms: N_4  and  N_5
REMARK    4  A    between atoms: C_6  and  C_7
REMARK    5  A    between atoms: C_11  and  O_12
REMARK    6  A    between atoms: O_12  and  C_13
REMARK                            x       y       z     vdW  Elec       q    Type
REMARK                         _______ _______ _______ _____ _____    ______ ____
ROOT
ATOM      1  N   UNL     1       1.748   8.504  17.632  0.00  0.00    +0.000 NA
ATOM      2  C   UNL     1       2.895   7.999  17.950  0.00  0.00    +0.000 C 
ENDROOT
BRANCH   2   3
ATOM      3  C   UNL     1       3.202   6.579  17.675  0.00  0.00    +0.000 A 
ATOM      4  C   UNL     1       4.482   6.212  17.247  0.00  0.00    +0.000 A 
ATOM      5  C   UNL     1       4.782   4.870  17.028  0.00  0.00    +0.000 A 
ATOM      6  C   UNL     1       3.803   3.901  17.238  0.00  0.00    +0.000 A 
ATOM      7  C   UNL     1       2.518   4.267  17.649  0.00  0.00    +0.000 A 
ATOM      8  C   UNL     1       2.210   5.609  17.872  0.00  0.00    +0.000 A 
BRANCH   7   9
ATOM      9  O   UNL     1       1.661   3.217  17.864  0.00  0.00    +0.000 OA
BRANCH   9  10
ATOM     10  C   UNL     1       1.549   2.651  19.192  0.00  0.00    +0.000 C 
ATOM     11  C   UNL     1       2.857   2.608  20.039  0.00  0.00    +0.000 C 
ATOM     12  S   UNL     1       1.914   2.977  21.550  0.00  0.00    +0.000 S 
ATOM     13  C   UNL     1       0.853   3.603  20.214  0.00  0.00    +0.000 C 
ENDBRANCH   9  10
ENDBRANCH   7   9
ENDBRANCH   2   3
BRANCH   1  14
ATOM     14  N   UNL     1       1.571   9.888  17.943  0.00  0.00    +0.000 N 
ATOM     15  H   UNL     1       2.127  10.640  17.534  0.00  0.00    +0.000 HD
BRANCH  14  17
ATOM     16  O   UNL     1       0.616   9.242  20.258  0.00  0.00    +0.000 OA
ATOM     17  S   UNL     1       0.704  10.350  19.334  0.00  0.00    +0.000 S 
ATOM     18  O   UNL     1       1.265  11.627  19.731  0.00  0.00    +0.000 OA
BRANCH  17  19
ATOM     19  C   UNL     1      -0.920  10.648  18.677  0.00  0.00    +0.000 A 
ATOM     20  C   UNL     1      -1.332   9.952  17.536  0.00  0.00    +0.000 A 
ATOM     21  C   UNL     1      -2.593  10.203  16.995  0.00  0.00    +0.000 A 
ATOM     22  C   UNL     1      -3.442  11.130  17.602  0.00  0.00    +0.000 A 
ATOM     23  C   UNL     1      -3.036  11.803  18.756  0.00  0.00    +0.000 A 
ATOM     24  C   UNL     1      -1.773  11.565  19.299  0.00  0.00    +0.000 A 
ENDBRANCH  17  19
ENDBRANCH  14  17
ENDBRANCH   1  14
TORSDOF 6
ENDMDL
MODEL 7
REMARK VINA RESULT:      -7.1      1.620      1.947
REMARK  Name = 
REMARK  6 active torsions:
REMARK  status: ('A' for Active; 'I' for Inactive)
REMARK    1  A    between atoms: S_2  and  N_4
REMARK    2  A    between atoms: S_2  and  C_18
REMARK    3  A    between atoms: N_4  and  N_5
REMARK    4  A    between atoms: C_6  and  C_7
REMARK    5  A    between atoms: C_11  and  O_12
REMARK    6  A    between atoms: O_12  and  C_13
REMARK                            x       y       z     vdW  Elec       q    Type
REMARK                         _______ _______ _______ _____ _____    ______ ____
ROOT
ATOM      1  N   UNL     1       8.142   7.942  17.912  0.00  0.00    +0.000 NA
ATOM      2  C   UNL     1       7.889   9.182  17.648  0.00  0.00    +0.000 C 
ENDROOT
BRANCH   2   3
ATOM      3  C   UNL     1       8.619  10.269  18.335  0.00  0.00    +0.000 A 
ATOM      4  C   UNL     1       9.344   9.994  19.500  0.00  0.00    +0.000 A 
ATOM      5  C   UNL     1      10.064  11.009  20.124  0.00  0.00    +0.000 A 
ATOM      6  C   UNL     1      10.058  12.293  19.583  0.00  0.00    +0.000 A 
ATOM      7  C   UNL     1       9.320  12.574  18.429  0.00  0.00    +0.000 A 
ATOM      8  C   UNL     1       8.596  11.562  17.797  0.00  0.00    +0.000 A 
BRANCH   7   9
ATOM      9  O   UNL     1       9.432  13.864  17.974  0.00  0.00    +0.000 OA
BRANCH   9  10
ATOM     10  C   UNL     1       8.423  14.836  18.339  0.00  0.00    +0.000 C 
ATOM     11  C   UNL     1       7.035  14.688  17.645  0.00  0.00    +0.000 C 
ATOM     12  S   UNL     1       6.194  15.198  19.175  0.00  0.00    +0.000 S 
ATOM     13  C   UNL     1       7.805  14.587  19.750  0.00  0.00    +0.000 C 
ENDBRANCH   9  10
ENDBRANCH   7   9
ENDBRANCH   2   3
BRANCH   1  14
ATOM     14  N   UNL     1       7.375   6.982  17.181  0.00  0.00    +0.000 N 
ATOM     15  H   UNL     1       6.682   7.226  16.473  0.00  0.00    +0.000 HD
BRANCH  14  17
ATOM     16  O   UNL     1       7.858   4.473  16.778  0.00  0.00    +0.000 OA
ATOM     17  S   UNL     1       7.259   5.376  17.735  0.00  0.00    +0.000 S 
ATOM     18  O   UNL     1       7.693   5.413  19.118  0.00  0.00    +0.000 OA
BRANCH  17  19
ATOM     19  C   UNL     1       5.503   5.105  17.720  0.00  0.00    +0.000 A 
ATOM     20  C   UNL     1       5.008   3.864  17.307  0.00  0.00    +0.000 A 
ATOM     21  C   UNL     1       3.630   3.652  17.262  0.00  0.00    +0.000 A 
ATOM     22  C   UNL     1       2.755   4.671  17.642  0.00  0.00    +0.000 A 
ATOM     23  C   UNL     1       3.254   5.900  18.078  0.00  0.00    +0.000 A 
ATOM     24  C   UNL     1       4.631   6.123  18.118  0.00  0.00    +0.000 A 
ENDBRANCH  17  19
ENDBRANCH  14  17
ENDBRANCH   1  14
TORSDOF 6
ENDMDL
MODEL 8
REMARK VINA RESULT:      -7.1      0.441      1.102
REMARK  Name = 
REMARK  6 active torsions:
REMARK  status: ('A' for Active; 'I' for Inactive)
REMARK    1  A    between atoms: S_2  and  N_4
REMARK    2  A    between atoms: S_2  and  C_18
REMARK    3  A    between atoms: N_4  and  N_5
REMARK    4  A    between atoms: C_6  and  C_7
REMARK    5  A    between atoms: C_11  and  O_12
REMARK    6  A    between atoms: O_12  and  C_13
REMARK                            x       y       z     vdW  Elec       q    Type
REMARK                         _______ _______ _______ _____ _____    ______ ____
ROOT
ATOM      1  N   UNL     1       8.189   8.056  17.354  0.00  0.00    +0.000 NA
ATOM      2  C   UNL     1       7.701   9.097  17.947  0.00  0.00    +0.000 C 
ENDROOT
BRANCH   2   3
ATOM      3  C   UNL     1       8.574  10.218  18.353  0.00  0.00    +0.000 A 
ATOM      4  C   UNL     1       9.429  10.075  19.451  0.00  0.00    +0.000 A 
ATOM      5  C   UNL     1      10.280  11.118  19.809  0.00  0.00    +0.000 A 
ATOM      6  C   UNL     1      10.275  12.297  19.067  0.00  0.00    +0.000 A 
ATOM      7  C   UNL     1       9.410  12.449  17.979  0.00  0.00    +0.000 A 
ATOM      8  C   UNL     1       8.555  11.410  17.614  0.00  0.00    +0.000 A 
BRANCH   7   9
ATOM      9  O   UNL     1       9.534  13.639  17.306  0.00  0.00    +0.000 OA
BRANCH   9  10
ATOM     10  C   UNL     1      10.329  14.703  17.885  0.00  0.00    +0.000 C 
ATOM     11  C   UNL     1      11.287  15.458  16.914  0.00  0.00    +0.000 C 
ATOM     12  S   UNL     1      10.957  17.024  17.778  0.00  0.00    +0.000 S 
ATOM     13  C   UNL     1       9.511  15.999  18.175  0.00  0.00    +0.000 C 
ENDBRANCH   9  10
ENDBRANCH   7   9
ENDBRANCH   2   3
BRANCH   1  14
ATOM     14  N   UNL     1       7.247   7.039  17.006  0.00  0.00    +0.000 N 
ATOM     15  H   UNL     1       6.357   7.223  16.541  0.00  0.00    +0.000 HD
BRANCH  14  17
ATOM     16  O   UNL     1       7.918   4.552  16.785  0.00  0.00    +0.000 OA
ATOM     17  S   UNL     1       7.348   5.497  17.719  0.00  0.00    +0.000 S 
ATOM     18  O   UNL     1       7.930   5.715  19.029  0.00  0.00    +0.000 OA
BRANCH  17  19
ATOM     19  C   UNL     1       5.635   5.079  17.945  0.00  0.00    +0.000 A 
ATOM     20  C   UNL     1       4.978   4.337  16.958  0.00  0.00    +0.000 A 
ATOM     21  C   UNL     1       3.626   4.032  17.111  0.00  0.00    +0.000 A 
ATOM     22  C   UNL     1       2.941   4.453  18.252  0.00  0.00    +0.000 A 
ATOM     23  C   UNL     1       3.606   5.172  19.247  0.00  0.00    +0.000 A 
ATOM     24  C   UNL     1       4.958   5.489  19.097  0.00  0.00    +0.000 A 
ENDBRANCH  17  19
ENDBRANCH  14  17
ENDBRANCH   1  14
TORSDOF 6
ENDMDL
MODEL 9
REMARK VINA RESULT:      -7.0      1.372      1.576
REMARK  Name = 
REMARK  6 active torsions:
REMARK  status: ('A' for Active; 'I' for Inactive)
REMARK    1  A    between atoms: S_2  and  N_4
REMARK    2  A    between atoms: S_2  and  C_18
REMARK    3  A    between atoms: N_4  and  N_5
REMARK    4  A    between atoms: C_6  and  C_7
REMARK    5  A    between atoms: C_11  and  O_12
REMARK    6  A    between atoms: O_12  and  C_13
REMARK                            x       y       z     vdW  Elec       q    Type
REMARK                         _______ _______ _______ _____ _____    ______ ____
ROOT
ATOM      1  N   UNL     1       7.994   8.477  18.141  0.00  0.00    +0.000 NA
ATOM      2  C   UNL     1       8.507   9.520  17.574  0.00  0.00    +0.000 C 
ENDROOT
BRANCH   2   3
ATOM      3  C   UNL     1       8.971  10.670  18.378  0.00  0.00    +0.000 A 
ATOM      4  C   UNL     1       9.484  10.461  19.663  0.00  0.00    +0.000 A 
ATOM      5  C   UNL     1       9.959  11.540  20.404  0.00  0.00    +0.000 A 
ATOM      6  C   UNL     1       9.922  12.822  19.859  0.00  0.00    +0.000 A 
ATOM      7  C   UNL     1       9.394  13.036  18.582  0.00  0.00    +0.000 A 
ATOM      8  C   UNL     1       8.916  11.960  17.833  0.00  0.00    +0.000 A 
BRANCH   7   9
ATOM      9  O   UNL     1       9.455  14.335  18.144  0.00  0.00    +0.000 OA
BRANCH   9  10
ATOM     10  C   UNL     1       8.942  15.394  18.988  0.00  0.00    +0.000 C 
ATOM     11  C   UNL     1       9.932  16.548  19.330  0.00  0.00    +0.000 C 
ATOM     12  S   UNL     1       8.579  17.761  19.241  0.00  0.00    +0.000 S 
ATOM     13  C   UNL     1       7.978  16.368  18.241  0.00  0.00    +0.000 C 
ENDBRANCH   9  10
ENDBRANCH   7   9
ENDBRANCH   2   3
BRANCH   1  14
ATOM     14  N   UNL     1       7.585   7.428  17.261  0.00  0.00    +0.000 N 
ATOM     15  H   UNL     1       7.180   7.586  16.337  0.00  0.00    +0.000 HD
BRANCH  14  17
ATOM     16  O   UNL     1       7.606   4.882  16.812  0.00  0.00    +0.000 OA
ATOM     17  S   UNL     1       7.354   5.850  17.856  0.00  0.00    +0.000 S 
ATOM     18  O   UNL     1       8.064   5.807  19.119  0.00  0.00    +0.000 OA
BRANCH  17  19
ATOM     19  C   UNL     1       5.612   5.838  18.207  0.00  0.00    +0.000 A 
ATOM     20  C   UNL     1       4.762   6.668  17.470  0.00  0.00    +0.000 A 
ATOM     21  C   UNL     1       3.398   6.688  17.760  0.00  0.00    +0.000 A 
ATOM     22  C   UNL     1       2.887   5.871  18.770  0.00  0.00    +0.000 A 
ATOM     23  C   UNL     1       3.735   5.025  19.486  0.00  0.00    +0.000 A 
ATOM     24  C   UNL     1       5.103   5.004  19.208  0.00  0.00    +0.000 A 
ENDBRANCH  17  19
ENDBRANCH  14  17
ENDBRANCH   1  14
TORSDOF 6
ENDMDL
