MODEL 1
REMARK VINA RESULT:      -7.6      0.000      0.000
REMARK  Name = 
REMARK  8 active torsions:
REMARK  status: ('A' for Active; 'I' for Inactive)
REMARK    1  A    between atoms: C_2  and  C_9
REMARK    2  A    between atoms: N_3  and  C_4
REMARK    3  A    between atoms: C_9  and  C_10
REMARK    4  A    between atoms: C_9  and  N_17
REMARK    5  A    between atoms: C_13  and  O_14
REMARK    6  A    between atoms: N_17  and  C_18
REMARK    7  A    between atoms: C_18  and  C_19
REMARK    8  A    between atoms: C_24  and  C_26
REMARK                            x       y       z     vdW  Elec       q    Type
REMARK                         _______ _______ _______ _____ _____    ______ ____
ROOT
ATOM      1  N   UNL     1      -0.625  11.865  20.781  0.00  0.00    +0.000 N 
ATOM      2  C   UNL     1      -0.018  10.795  21.466  0.00  0.00    +0.000 C 
ATOM      3  O   UNL     1       0.064  10.839  22.699  0.00  0.00    +0.000 OA
ENDROOT
BRANCH   2   4
ATOM      4  C   UNL     1       0.482   9.506  20.681  0.00  0.00    +0.000 C 
ATOM      5  C   UNL     1       1.308   8.654  21.655  0.00  0.00    +0.000 C 
ATOM      6  O   UNL     1       1.322   7.308  21.153  0.00  0.00    +0.000 OA
ATOM      7  C   UNL     1       1.882   7.307  19.910  0.00  0.00    +0.000 A 
ATOM      8  C   UNL     1       2.465   6.109  19.490  0.00  0.00    +0.000 A 
ATOM      9  C   UNL     1       3.209   6.079  18.314  0.00  0.00    +0.000 A 
ATOM     10  C   UNL     1       3.351   7.254  17.564  0.00  0.00    +0.000 A 
ATOM     11  C   UNL     1       2.696   8.438  17.955  0.00  0.00    +0.000 A 
ATOM     12  C   UNL     1       1.934   8.469  19.120  0.00  0.00    +0.000 A 
ATOM     13  O   UNL     1       1.283   9.650  19.483  0.00  0.00    +0.000 OA
ENDBRANCH   2   4
BRANCH   1  14
ATOM     14  C   UNL     1      -0.815  13.176  21.533  0.00  0.00    +0.000 C 
BRANCH  14  15
ATOM     15  C   UNL     1      -2.179  13.264  22.264  0.00  0.00    +0.000 A 
ATOM     16  C   UNL     1      -3.365  12.764  21.688  0.00  0.00    +0.000 A 
ATOM     17  C   UNL     1      -4.602  12.898  22.324  0.00  0.00    +0.000 A 
ATOM     18  C   UNL     1      -4.666  13.497  23.574  0.00  0.00    +0.000 A 
ATOM     19  C   UNL     1      -3.507  13.915  24.211  0.00  0.00    +0.000 A 
ATOM     20  C   UNL     1      -2.271  13.791  23.566  0.00  0.00    +0.000 A 
BRANCH  18  21
ATOM     21  O   UNL     1      -5.857  13.689  24.208  0.00  0.00    +0.000 OA
ATOM     22  H   UNL     1      -6.303  14.447  23.796  0.00  0.00    +0.000 HD
ENDBRANCH  18  21
ENDBRANCH  14  15
BRANCH  14  24
ATOM     23  O   UNL     1       0.710  15.066  21.054  0.00  0.00    +0.000 OA
ATOM     24  C   UNL     1      -0.400  14.569  20.825  0.00  0.00    +0.000 C 
ATOM     25  N   UNL     1      -1.348  15.280  20.105  0.00  0.00    +0.000 N 
ATOM     26  H   UNL     1      -2.263  14.837  20.039  0.00  0.00    +0.000 HD
BRANCH  25  27
ATOM     27  C   UNL     1      -1.223  16.684  19.648  0.00  0.00    +0.000 C 
ATOM     28  C   UNL     1      -0.608  16.892  18.256  0.00  0.00    +0.000 C 
ATOM     29  C   UNL     1      -1.049  18.283  17.813  0.00  0.00    +0.000 C 
ATOM     30  C   UNL     1      -2.383  18.538  18.491  0.00  0.00    +0.000 C 
ATOM     31  C   UNL     1      -2.514  17.517  19.630  0.00  0.00    +0.000 C 
ENDBRANCH  25  27
ENDBRANCH  14  24
ENDBRANCH   1  14
BRANCH   1  32
ATOM     32  C   UNL     1      -0.670  11.859  19.287  0.00  0.00    +0.000 C 
BRANCH  32  33
ATOM     33  C   UNL     1      -1.960  11.440  18.541  0.00  0.00    +0.000 C 
ATOM     34  C   UNL     1      -2.047   9.930  18.322  0.00  0.00    +0.000 C 
ATOM     35  C   UNL     1      -3.145   9.839  17.293  0.00  0.00    +0.000 C 
ATOM     36  C   UNL     1      -2.905  11.075  16.446  0.00  0.00    +0.000 C 
ATOM     37  O   UNL     1      -2.030  11.947  17.194  0.00  0.00    +0.000 OA
ENDBRANCH  32  33
ENDBRANCH   1  32
TORSDOF 8
ENDMDL
MODEL 2
REMARK VINA RESULT:      -7.5      2.044      2.392
REMARK  Name = 
REMARK  8 active torsions:
REMARK  status: ('A' for Active; 'I' for Inactive)
REMARK    1  A    between atoms: C_2  and  C_9
REMARK    2  A    between atoms: N_3  and  C_4
REMARK    3  A    between atoms: C_9  and  C_10
REMARK    4  A    between atoms: C_9  and  N_17
REMARK    5  A    between atoms: C_13  and  O_14
REMARK    6  A    between atoms: N_17  and  C_18
REMARK    7  A    between atoms: C_18  and  C_19
REMARK    8  A    between atoms: C_24  and  C_26
REMARK                            x       y       z     vdW  Elec       q    Type
REMARK                         _______ _______ _______ _____ _____    ______ ____
ROOT
ATOM      1  N   UNL     1      -0.195  10.937  20.188  0.00  0.00    +0.000 N 
ATOM      2  C   UNL     1       0.587   9.971  20.849  0.00  0.00    +0.000 C 
ATOM      3  O   UNL     1       0.851  10.128  22.048  0.00  0.00    +0.000 OA
ENDROOT
BRANCH   2   4
ATOM      4  C   UNL     1       1.059   8.652  20.097  0.00  0.00    +0.000 C 
ATOM      5  C   UNL     1       1.657   7.703  21.143  0.00  0.00    +0.000 C 
ATOM      6  O   UNL     1       1.606   6.372  20.605  0.00  0.00    +0.000 OA
ATOM      7  C   UNL     1       2.327   6.336  19.447  0.00  0.00    +0.000 A 
ATOM      8  C   UNL     1       2.839   5.093  19.070  0.00  0.00    +0.000 A 
ATOM      9  C   UNL     1       3.729   5.009  18.003  0.00  0.00    +0.000 A 
ATOM     10  C   UNL     1       4.087   6.177  17.317  0.00  0.00    +0.000 A 
ATOM     11  C   UNL     1       3.505   7.415  17.656  0.00  0.00    +0.000 A 
ATOM     12  C   UNL     1       2.599   7.502  18.709  0.00  0.00    +0.000 A 
ATOM     13  O   UNL     1       2.025   8.737  19.021  0.00  0.00    +0.000 OA
ENDBRANCH   2   4
BRANCH   1  14
ATOM     14  C   UNL     1      -0.368  12.294  20.858  0.00  0.00    +0.000 C 
BRANCH  14  15
ATOM     15  C   UNL     1      -1.731  12.445  21.581  0.00  0.00    +0.000 A 
ATOM     16  C   UNL     1      -2.907  12.791  20.885  0.00  0.00    +0.000 A 
ATOM     17  C   UNL     1      -4.122  12.984  21.549  0.00  0.00    +0.000 A 
ATOM     18  C   UNL     1      -4.189  12.788  22.920  0.00  0.00    +0.000 A 
ATOM     19  C   UNL     1      -3.074  12.356  23.622  0.00  0.00    +0.000 A 
ATOM     20  C   UNL     1      -1.856  12.176  22.957  0.00  0.00    +0.000 A 
BRANCH  18  21
ATOM     21  O   UNL     1      -5.342  13.010  23.613  0.00  0.00    +0.000 OA
ATOM     22  H   UNL     1      -5.242  13.836  24.114  0.00  0.00    +0.000 HD
ENDBRANCH  18  21
ENDBRANCH  14  15
BRANCH  14  24
ATOM     23  O   UNL     1      -0.788  14.289  19.454  0.00  0.00    +0.000 OA
ATOM     24  C   UNL     1       0.066  13.636  20.066  0.00  0.00    +0.000 C 
ATOM     25  N   UNL     1       1.410  13.950  19.939  0.00  0.00    +0.000 N 
ATOM     26  H   UNL     1       2.051  13.309  20.403  0.00  0.00    +0.000 HD
BRANCH  25  27
ATOM     27  C   UNL     1       1.986  14.959  19.019  0.00  0.00    +0.000 C 
ATOM     28  C   UNL     1       2.763  16.110  19.675  0.00  0.00    +0.000 C 
ATOM     29  C   UNL     1       3.655  16.684  18.579  0.00  0.00    +0.000 C 
ATOM     30  C   UNL     1       3.954  15.534  17.634  0.00  0.00    +0.000 C 
ATOM     31  C   UNL     1       2.926  14.432  17.923  0.00  0.00    +0.000 C 
ENDBRANCH  25  27
ENDBRANCH  14  24
ENDBRANCH   1  14
BRANCH   1  32
ATOM     32  C   UNL     1      -0.465  10.798  18.724  0.00  0.00    +0.000 C 
BRANCH  32  33
ATOM     33  C   UNL     1      -1.903  10.543  18.211  0.00  0.00    +0.000 C 
ATOM     34  C   UNL     1      -1.926   9.761  16.897  0.00  0.00    +0.000 C 
ATOM     35  C   UNL     1      -3.349   9.975  16.447  0.00  0.00    +0.000 C 
ATOM     36  C   UNL     1      -3.629  11.395  16.903  0.00  0.00    +0.000 C 
ATOM     37  O   UNL     1      -2.606  11.750  17.859  0.00  0.00    +0.000 OA
ENDBRANCH  32  33
ENDBRANCH   1  32
TORSDOF 8
ENDMDL
MODEL 3
REMARK VINA RESULT:      -7.5      1.635      2.174
REMARK  Name = 
REMARK  8 active torsions:
REMARK  status: ('A' for Active; 'I' for Inactive)
REMARK    1  A    between atoms: C_2  and  C_9
REMARK    2  A    between atoms: N_3  and  C_4
REMARK    3  A    between atoms: C_9  and  C_10
REMARK    4  A    between atoms: C_9  and  N_17
REMARK    5  A    between atoms: C_13  and  O_14
REMARK    6  A    between atoms: N_17  and  C_18
REMARK    7  A    between atoms: C_18  and  C_19
REMARK    8  A    between atoms: C_24  and  C_26
REMARK                            x       y       z     vdW  Elec       q    Type
REMARK                         _______ _______ _______ _____ _____    ______ ____
ROOT
ATOM      1  N   UNL     1       0.447  10.480  20.298  0.00  0.00    +0.000 N 
ATOM      2  C   UNL     1       1.134   9.352  20.788  0.00  0.00    +0.000 C 
ATOM      3  O   UNL     1       1.399   9.286  21.994  0.00  0.00    +0.000 OA
ENDROOT
BRANCH   2   4
ATOM      4  C   UNL     1       1.491   8.138  19.826  0.00  0.00    +0.000 C 
ATOM      5  C   UNL     1       1.813   6.922  20.705  0.00  0.00    +0.000 C 
ATOM      6  O   UNL     1       1.630   5.743  19.904  0.00  0.00    +0.000 OA
ATOM      7  C   UNL     1       2.471   5.804  18.831  0.00  0.00    +0.000 A 
ATOM      8  C   UNL     1       2.835   4.586  18.255  0.00  0.00    +0.000 A 
ATOM      9  C   UNL     1       3.823   4.554  17.275  0.00  0.00    +0.000 A 
ATOM     10  C   UNL     1       4.429   5.753  16.876  0.00  0.00    +0.000 A 
ATOM     11  C   UNL     1       4.000   6.986  17.408  0.00  0.00    +0.000 A 
ATOM     12  C   UNL     1       2.998   7.025  18.374  0.00  0.00    +0.000 A 
ATOM     13  O   UNL     1       2.580   8.258  18.879  0.00  0.00    +0.000 OA
ENDBRANCH   2   4
BRANCH   1  14
ATOM     14  C   UNL     1       0.391  11.719  21.183  0.00  0.00    +0.000 C 
BRANCH  14  15
ATOM     15  C   UNL     1      -1.034  12.023  21.713  0.00  0.00    +0.000 A 
ATOM     16  C   UNL     1      -1.434  11.663  23.016  0.00  0.00    +0.000 A 
ATOM     17  C   UNL     1      -2.737  11.885  23.471  0.00  0.00    +0.000 A 
ATOM     18  C   UNL     1      -3.651  12.515  22.640  0.00  0.00    +0.000 A 
ATOM     19  C   UNL     1      -3.266  12.967  21.387  0.00  0.00    +0.000 A 
ATOM     20  C   UNL     1      -1.964  12.732  20.930  0.00  0.00    +0.000 A 
BRANCH  18  21
ATOM     21  O   UNL     1      -4.944  12.709  23.026  0.00  0.00    +0.000 OA
ATOM     22  H   UNL     1      -4.970  12.748  23.996  0.00  0.00    +0.000 HD
ENDBRANCH  18  21
ENDBRANCH  14  15
BRANCH  14  24
ATOM     23  O   UNL     1       2.219  13.381  21.329  0.00  0.00    +0.000 OA
ATOM     24  C   UNL     1       1.184  13.056  20.735  0.00  0.00    +0.000 C 
ATOM     25  N   UNL     1       0.610  13.913  19.809  0.00  0.00    +0.000 N 
ATOM     26  H   UNL     1      -0.287  13.609  19.434  0.00  0.00    +0.000 HD
BRANCH  25  27
ATOM     27  C   UNL     1       1.051  15.295  19.511  0.00  0.00    +0.000 C 
ATOM     28  C   UNL     1       2.213  15.436  18.516  0.00  0.00    +0.000 C 
ATOM     29  C   UNL     1       2.138  16.867  17.993  0.00  0.00    +0.000 C 
ATOM     30  C   UNL     1       0.675  17.264  18.060  0.00  0.00    +0.000 C 
ATOM     31  C   UNL     1      -0.023  16.263  18.991  0.00  0.00    +0.000 C 
ENDBRANCH  25  27
ENDBRANCH  14  24
ENDBRANCH   1  14
BRANCH   1  32
ATOM     32  C   UNL     1       0.178  10.608  18.834  0.00  0.00    +0.000 C 
BRANCH  32  33
ATOM     33  C   UNL     1      -1.269  10.534  18.290  0.00  0.00    +0.000 C 
ATOM     34  C   UNL     1      -1.404   9.572  17.109  0.00  0.00    +0.000 C 
ATOM     35  C   UNL     1      -2.753   9.961  16.559  0.00  0.00    +0.000 C 
ATOM     36  C   UNL     1      -2.778  11.463  16.781  0.00  0.00    +0.000 C 
ATOM     37  O   UNL     1      -1.731  11.776  17.724  0.00  0.00    +0.000 OA
ENDBRANCH  32  33
ENDBRANCH   1  32
TORSDOF 8
ENDMDL
MODEL 4
REMARK VINA RESULT:      -7.5      1.347      1.680
REMARK  Name = 
REMARK  8 active torsions:
REMARK  status: ('A' for Active; 'I' for Inactive)
REMARK    1  A    between atoms: C_2  and  C_9
REMARK    2  A    between atoms: N_3  and  C_4
REMARK    3  A    between atoms: C_9  and  C_10
REMARK    4  A    between atoms: C_9  and  N_17
REMARK    5  A    between atoms: C_13  and  O_14
REMARK    6  A    between atoms: N_17  and  C_18
REMARK    7  A    between atoms: C_18  and  C_19
REMARK    8  A    between atoms: C_24  and  C_26
REMARK                            x       y       z     vdW  Elec       q    Type
REMARK                         _______ _______ _______ _____ _____    ______ ____
ROOT
ATOM      1  N   UNL     1      -0.793  10.950  20.165  0.00  0.00    +0.000 N 
ATOM      2  C   UNL     1       0.517  10.489  20.398  0.00  0.00    +0.000 C 
ATOM      3  O   UNL     1       1.288  11.181  21.073  0.00  0.00    +0.000 OA
ENDROOT
BRANCH   2   4
ATOM      4  C   UNL     1       0.981   9.061  19.875  0.00  0.00    +0.000 C 
ATOM      5  C   UNL     1       1.578   8.297  21.064  0.00  0.00    +0.000 C 
ATOM      6  O   UNL     1       1.519   6.894  20.755  0.00  0.00    +0.000 OA
ATOM      7  C   UNL     1       2.236   6.663  19.618  0.00  0.00    +0.000 A 
ATOM      8  C   UNL     1       2.742   5.372  19.453  0.00  0.00    +0.000 A 
ATOM      9  C   UNL     1       3.628   5.106  18.413  0.00  0.00    +0.000 A 
ATOM     10  C   UNL     1       3.988   6.142  17.541  0.00  0.00    +0.000 A 
ATOM     11  C   UNL     1       3.413   7.422  17.669  0.00  0.00    +0.000 A 
ATOM     12  C   UNL     1       2.511   7.688  18.695  0.00  0.00    +0.000 A 
ATOM     13  O   UNL     1       1.943   8.960  18.797  0.00  0.00    +0.000 OA
ENDBRANCH   2   4
BRANCH   1  14
ATOM     14  C   UNL     1      -1.087  12.422  20.429  0.00  0.00    +0.000 C 
BRANCH  14  15
ATOM     15  C   UNL     1      -2.446  12.652  21.139  0.00  0.00    +0.000 A 
ATOM     16  C   UNL     1      -3.591  13.073  20.433  0.00  0.00    +0.000 A 
ATOM     17  C   UNL     1      -4.800  13.336  21.086  0.00  0.00    +0.000 A 
ATOM     18  C   UNL     1      -4.893  13.136  22.455  0.00  0.00    +0.000 A 
ATOM     19  C   UNL     1      -3.814  12.633  23.166  0.00  0.00    +0.000 A 
ATOM     20  C   UNL     1      -2.602  12.382  22.512  0.00  0.00    +0.000 A 
BRANCH  18  21
ATOM     21  O   UNL     1      -6.037  13.425  23.137  0.00  0.00    +0.000 OA
ATOM     22  H   UNL     1      -6.307  12.632  23.628  0.00  0.00    +0.000 HD
ENDBRANCH  18  21
ENDBRANCH  14  15
BRANCH  14  24
ATOM     23  O   UNL     1      -0.332  13.146  18.186  0.00  0.00    +0.000 OA
ATOM     24  C   UNL     1      -0.800  13.513  19.271  0.00  0.00    +0.000 C 
ATOM     25  N   UNL     1      -0.921  14.864  19.559  0.00  0.00    +0.000 N 
ATOM     26  H   UNL     1      -1.229  15.079  20.506  0.00  0.00    +0.000 HD
BRANCH  25  27
ATOM     27  C   UNL     1      -0.425  15.981  18.722  0.00  0.00    +0.000 C 
ATOM     28  C   UNL     1      -1.187  17.309  18.842  0.00  0.00    +0.000 C 
ATOM     29  C   UNL     1      -0.232  18.382  18.331  0.00  0.00    +0.000 C 
ATOM     30  C   UNL     1       1.168  17.872  18.619  0.00  0.00    +0.000 C 
ATOM     31  C   UNL     1       1.053  16.366  18.895  0.00  0.00    +0.000 C 
ENDBRANCH  25  27
ENDBRANCH  14  24
ENDBRANCH   1  14
BRANCH   1  32
ATOM     32  C   UNL     1      -1.716  10.159  19.296  0.00  0.00    +0.000 C 
BRANCH  32  33
ATOM     33  C   UNL     1      -2.178  10.716  17.928  0.00  0.00    +0.000 C 
ATOM     34  C   UNL     1      -3.699  10.701  17.773  0.00  0.00    +0.000 C 
ATOM     35  C   UNL     1      -3.851  10.921  16.289  0.00  0.00    +0.000 C 
ATOM     36  C   UNL     1      -2.665  10.161  15.721  0.00  0.00    +0.000 C 
ATOM     37  O   UNL     1      -1.751   9.913  16.810  0.00  0.00    +0.000 OA
ENDBRANCH  32  33
ENDBRANCH   1  32
TORSDOF 8
ENDMDL
MODEL 5
REMARK VINA RESULT:      -7.5      1.494      1.704
REMARK  Name = 
REMARK  8 active torsions:
REMARK  status: ('A' for Active; 'I' for Inactive)
REMARK    1  A    between atoms: C_2  and  C_9
REMARK    2  A    between atoms: N_3  and  C_4
REMARK    3  A    between atoms: C_9  and  C_10
REMARK    4  A    between atoms: C_9  and  N_17
REMARK    5  A    between atoms: C_13  and  O_14
REMARK    6  A    between atoms: N_17  and  C_18
REMARK    7  A    between atoms: C_18  and  C_19
REMARK    8  A    between atoms: C_24  and  C_26
REMARK                            x       y       z     vdW  Elec       q    Type
REMARK                         _______ _______ _______ _____ _____    ______ ____
ROOT
ATOM      1  N   UNL     1      -1.086  11.732  20.995  0.00  0.00    +0.000 N 
ATOM      2  C   UNL     1      -0.333  10.725  21.628  0.00  0.00    +0.000 C 
ATOM      3  O   UNL     1      -0.202  10.754  22.857  0.00  0.00    +0.000 OA
ENDROOT
BRANCH   2   4
ATOM      4  C   UNL     1       0.274   9.517  20.791  0.00  0.00    +0.000 C 
ATOM      5  C   UNL     1       1.220   8.736  21.713  0.00  0.00    +0.000 C 
ATOM      6  O   UNL     1       1.360   7.411  21.173  0.00  0.00    +0.000 OA
ATOM      7  C   UNL     1       1.873   7.501  19.912  0.00  0.00    +0.000 A 
ATOM      8  C   UNL     1       2.565   6.383  19.440  0.00  0.00    +0.000 A 
ATOM      9  C   UNL     1       3.265   6.462  18.241  0.00  0.00    +0.000 A 
ATOM     10  C   UNL     1       3.254   7.663  17.519  0.00  0.00    +0.000 A 
ATOM     11  C   UNL     1       2.490   8.761  17.965  0.00  0.00    +0.000 A 
ATOM     12  C   UNL     1       1.771   8.681  19.154  0.00  0.00    +0.000 A 
ATOM     13  O   UNL     1       1.012   9.776  19.571  0.00  0.00    +0.000 OA
ENDBRANCH   2   4
BRANCH   1  14
ATOM     14  C   UNL     1      -1.389  12.998  21.786  0.00  0.00    +0.000 C 
BRANCH  14  15
ATOM     15  C   UNL     1      -2.777  12.965  22.476  0.00  0.00    +0.000 A 
ATOM     16  C   UNL     1      -3.973  12.866  21.736  0.00  0.00    +0.000 A 
ATOM     17  C   UNL     1      -5.225  12.896  22.358  0.00  0.00    +0.000 A 
ATOM     18  C   UNL     1      -5.298  12.980  23.740  0.00  0.00    +0.000 A 
ATOM     19  C   UNL     1      -4.141  12.984  24.506  0.00  0.00    +0.000 A 
ATOM     20  C   UNL     1      -2.890  12.967  23.879  0.00  0.00    +0.000 A 
BRANCH  18  21
ATOM     21  O   UNL     1      -6.498  13.059  24.383  0.00  0.00    +0.000 OA
ATOM     22  H   UNL     1      -6.920  13.898  24.138  0.00  0.00    +0.000 HD
ENDBRANCH  18  21
ENDBRANCH  14  15
BRANCH  14  24
ATOM     23  O   UNL     1      -1.937  15.070  20.548  0.00  0.00    +0.000 OA
ATOM     24  C   UNL     1      -1.051  14.442  21.142  0.00  0.00    +0.000 C 
ATOM     25  N   UNL     1       0.261  14.887  21.111  0.00  0.00    +0.000 N 
ATOM     26  H   UNL     1       0.940  14.265  21.547  0.00  0.00    +0.000 HD
BRANCH  25  27
ATOM     27  C   UNL     1       0.777  16.026  20.315  0.00  0.00    +0.000 C 
ATOM     28  C   UNL     1       2.084  16.663  20.811  0.00  0.00    +0.000 C 
ATOM     29  C   UNL     1       2.661  17.410  19.613  0.00  0.00    +0.000 C 
ATOM     30  C   UNL     1       2.183  16.662  18.381  0.00  0.00    +0.000 C 
ATOM     31  C   UNL     1       1.016  15.767  18.819  0.00  0.00    +0.000 C 
ENDBRANCH  25  27
ENDBRANCH  14  24
ENDBRANCH   1  14
BRANCH   1  32
ATOM     32  C   UNL     1      -1.197  11.751  19.504  0.00  0.00    +0.000 C 
BRANCH  32  33
ATOM     33  C   UNL     1      -2.318  10.959  18.789  0.00  0.00    +0.000 C 
ATOM     34  C   UNL     1      -1.805  10.178  17.579  0.00  0.00    +0.000 C 
ATOM     35  C   UNL     1      -3.094   9.828  16.880  0.00  0.00    +0.000 C 
ATOM     36  C   UNL     1      -3.949  11.057  17.132  0.00  0.00    +0.000 C 
ATOM     37  O   UNL     1      -3.327  11.802  18.201  0.00  0.00    +0.000 OA
ENDBRANCH  32  33
ENDBRANCH   1  32
TORSDOF 8
ENDMDL
MODEL 6
REMARK VINA RESULT:      -7.4      2.096      2.872
REMARK  Name = 
REMARK  8 active torsions:
REMARK  status: ('A' for Active; 'I' for Inactive)
REMARK    1  A    between atoms: C_2  and  C_9
REMARK    2  A    between atoms: N_3  and  C_4
REMARK    3  A    between atoms: C_9  and  C_10
REMARK    4  A    between atoms: C_9  and  N_17
REMARK    5  A    between atoms: C_13  and  O_14
REMARK    6  A    between atoms: N_17  and  C_18
REMARK    7  A    between atoms: C_18  and  C_19
REMARK    8  A    between atoms: C_24  and  C_26
REMARK                            x       y       z     vdW  Elec       q    Type
REMARK                         _______ _______ _______ _____ _____    ______ ____
ROOT
ATOM      1  N   UNL     1       0.666  10.068  20.305  0.00  0.00    +0.000 N 
ATOM      2  C   UNL     1       1.319   8.942  20.841  0.00  0.00    +0.000 C 
ATOM      3  O   UNL     1       1.684   8.963  22.022  0.00  0.00    +0.000 OA
ENDROOT
BRANCH   2   4
ATOM      4  C   UNL     1       1.515   7.625  19.971  0.00  0.00    +0.000 C 
ATOM      5  C   UNL     1       1.718   6.451  20.937  0.00  0.00    +0.000 C 
ATOM      6  O   UNL     1       1.384   5.244  20.232  0.00  0.00    +0.000 OA
ATOM      7  C   UNL     1       2.200   5.127  19.146  0.00  0.00    +0.000 A 
ATOM      8  C   UNL     1       2.410   3.835  18.661  0.00  0.00    +0.000 A 
ATOM      9  C   UNL     1       3.365   3.616  17.672  0.00  0.00    +0.000 A 
ATOM     10  C   UNL     1       4.093   4.704  17.172  0.00  0.00    +0.000 A 
ATOM     11  C   UNL     1       3.820   6.014  17.613  0.00  0.00    +0.000 A 
ATOM     12  C   UNL     1       2.852   6.241  18.587  0.00  0.00    +0.000 A 
ATOM     13  O   UNL     1       2.588   7.548  19.001  0.00  0.00    +0.000 OA
ENDBRANCH   2   4
BRANCH   1  14
ATOM     14  C   UNL     1       0.766  11.381  21.072  0.00  0.00    +0.000 C 
BRANCH  14  15
ATOM     15  C   UNL     1      -0.580  11.817  21.707  0.00  0.00    +0.000 A 
ATOM     16  C   UNL     1      -1.088  11.199  22.868  0.00  0.00    +0.000 A 
ATOM     17  C   UNL     1      -2.329  11.554  23.404  0.00  0.00    +0.000 A 
ATOM     18  C   UNL     1      -3.063  12.570  22.811  0.00  0.00    +0.000 A 
ATOM     19  C   UNL     1      -2.551  13.263  21.724  0.00  0.00    +0.000 A 
ATOM     20  C   UNL     1      -1.314  12.897  21.182  0.00  0.00    +0.000 A 
BRANCH  18  21
ATOM     21  O   UNL     1      -4.298  12.916  23.273  0.00  0.00    +0.000 OA
ATOM     22  H   UNL     1      -4.760  12.106  23.544  0.00  0.00    +0.000 HD
ENDBRANCH  18  21
ENDBRANCH  14  15
BRANCH  14  24
ATOM     23  O   UNL     1       2.296  13.325  21.147  0.00  0.00    +0.000 OA
ATOM     24  C   UNL     1       1.577  12.622  20.426  0.00  0.00    +0.000 C 
ATOM     25  N   UNL     1       1.331  12.991  19.113  0.00  0.00    +0.000 N 
ATOM     26  H   UNL     1       0.657  12.409  18.618  0.00  0.00    +0.000 HD
BRANCH  25  27
ATOM     27  C   UNL     1       1.758  14.255  18.468  0.00  0.00    +0.000 C 
ATOM     28  C   UNL     1       1.249  15.552  19.115  0.00  0.00    +0.000 C 
ATOM     29  C   UNL     1       2.192  16.651  18.635  0.00  0.00    +0.000 C 
ATOM     30  C   UNL     1       3.531  15.980  18.389  0.00  0.00    +0.000 C 
ATOM     31  C   UNL     1       3.272  14.469  18.312  0.00  0.00    +0.000 C 
ENDBRANCH  25  27
ENDBRANCH  14  24
ENDBRANCH   1  14
BRANCH   1  32
ATOM     32  C   UNL     1       0.279  10.085  18.861  0.00  0.00    +0.000 C 
BRANCH  32  33
ATOM     33  C   UNL     1      -1.201  10.262  18.445  0.00  0.00    +0.000 C 
ATOM     34  C   UNL     1      -1.514   9.609  17.099  0.00  0.00    +0.000 C 
ATOM     35  C   UNL     1      -2.849  10.228  16.769  0.00  0.00    +0.000 C 
ATOM     36  C   UNL     1      -2.703  11.636  17.318  0.00  0.00    +0.000 C 
ATOM     37  O   UNL     1      -1.568  11.635  18.210  0.00  0.00    +0.000 OA
ENDBRANCH  32  33
ENDBRANCH   1  32
TORSDOF 8
ENDMDL
MODEL 7
REMARK VINA RESULT:      -7.4      2.035      2.320
REMARK  Name = 
REMARK  8 active torsions:
REMARK  status: ('A' for Active; 'I' for Inactive)
REMARK    1  A    between atoms: C_2  and  C_9
REMARK    2  A    between atoms: N_3  and  C_4
REMARK    3  A    between atoms: C_9  and  C_10
REMARK    4  A    between atoms: C_9  and  N_17
REMARK    5  A    between atoms: C_13  and  O_14
REMARK    6  A    between atoms: N_17  and  C_18
REMARK    7  A    between atoms: C_18  and  C_19
REMARK    8  A    between atoms: C_24  and  C_26
REMARK                            x       y       z     vdW  Elec       q    Type
REMARK                         _______ _______ _______ _____ _____    ______ ____
ROOT
ATOM      1  N   UNL     1       0.322  11.080  20.587  0.00  0.00    +0.000 N 
ATOM      2  C   UNL     1       1.025  10.003  21.161  0.00  0.00    +0.000 C 
ATOM      3  O   UNL     1       1.439  10.104  22.322  0.00  0.00    +0.000 OA
ENDROOT
BRANCH   2   4
ATOM      4  C   UNL     1       1.214   8.640  20.364  0.00  0.00    +0.000 C 
ATOM      5  C   UNL     1       1.619   7.558  21.374  0.00  0.00    +0.000 C 
ATOM      6  O   UNL     1       1.295   6.282  20.799  0.00  0.00    +0.000 OA
ATOM      7  C   UNL     1       1.983   6.138  19.630  0.00  0.00    +0.000 A 
ATOM      8  C   UNL     1       2.231   4.829  19.210  0.00  0.00    +0.000 A 
ATOM      9  C   UNL     1       3.075   4.600  18.128  0.00  0.00    +0.000 A 
ATOM     10  C   UNL     1       3.654   5.693  17.469  0.00  0.00    +0.000 A 
ATOM     11  C   UNL     1       3.337   7.012  17.852  0.00  0.00    +0.000 A 
ATOM     12  C   UNL     1       2.477   7.247  18.921  0.00  0.00    +0.000 A 
ATOM     13  O   UNL     1       2.167   8.562  19.276  0.00  0.00    +0.000 OA
ENDBRANCH   2   4
BRANCH   1  14
ATOM     14  C   UNL     1       0.423  12.439  21.269  0.00  0.00    +0.000 C 
BRANCH  14  15
ATOM     15  C   UNL     1      -0.776  12.740  22.204  0.00  0.00    +0.000 A 
ATOM     16  C   UNL     1      -1.784  11.786  22.450  0.00  0.00    +0.000 A 
ATOM     17  C   UNL     1      -2.895  12.081  23.247  0.00  0.00    +0.000 A 
ATOM     18  C   UNL     1      -2.990  13.327  23.850  0.00  0.00    +0.000 A 
ATOM     19  C   UNL     1      -1.971  14.256  23.706  0.00  0.00    +0.000 A 
ATOM     20  C   UNL     1      -0.867  13.962  22.897  0.00  0.00    +0.000 A 
BRANCH  18  21
ATOM     21  O   UNL     1      -4.077  13.672  24.596  0.00  0.00    +0.000 OA
ATOM     22  H   UNL     1      -3.767  14.146  25.385  0.00  0.00    +0.000 HD
ENDBRANCH  18  21
ENDBRANCH  14  15
BRANCH  14  24
ATOM     23  O   UNL     1       0.109  14.207  19.565  0.00  0.00    +0.000 OA
ATOM     24  C   UNL     1       0.878  13.731  20.409  0.00  0.00    +0.000 C 
ATOM     25  N   UNL     1       2.183  14.190  20.503  0.00  0.00    +0.000 N 
ATOM     26  H   UNL     1       2.774  13.684  21.160  0.00  0.00    +0.000 HD
BRANCH  25  27
ATOM     27  C   UNL     1       2.835  15.156  19.588  0.00  0.00    +0.000 C 
ATOM     28  C   UNL     1       3.131  14.651  18.168  0.00  0.00    +0.000 C 
ATOM     29  C   UNL     1       3.298  15.902  17.311  0.00  0.00    +0.000 C 
ATOM     30  C   UNL     1       2.436  16.973  17.956  0.00  0.00    +0.000 C 
ATOM     31  C   UNL     1       2.116  16.498  19.380  0.00  0.00    +0.000 C 
ENDBRANCH  25  27
ENDBRANCH  14  24
ENDBRANCH   1  14
BRANCH   1  32
ATOM     32  C   UNL     1      -0.126  11.001  19.164  0.00  0.00    +0.000 C 
BRANCH  32  33
ATOM     33  C   UNL     1      -1.581  10.604  18.818  0.00  0.00    +0.000 C 
ATOM     34  C   UNL     1      -1.727  10.109  17.378  0.00  0.00    +0.000 C 
ATOM     35  C   UNL     1      -3.223  10.153  17.198  0.00  0.00    +0.000 C 
ATOM     36  C   UNL     1      -3.616  11.381  17.999  0.00  0.00    +0.000 C 
ATOM     37  O   UNL     1      -2.500  11.713  18.853  0.00  0.00    +0.000 OA
ENDBRANCH  32  33
ENDBRANCH   1  32
TORSDOF 8
ENDMDL
MODEL 8
REMARK VINA RESULT:      -7.4      1.320      1.824
REMARK  Name = 
REMARK  8 active torsions:
REMARK  status: ('A' for Active; 'I' for Inactive)
REMARK    1  A    between atoms: C_2  and  C_9
REMARK    2  A    between atoms: N_3  and  C_4
REMARK    3  A    between atoms: C_9  and  C_10
REMARK    4  A    between atoms: C_9  and  N_17
REMARK    5  A    between atoms: C_13  and  O_14
REMARK    6  A    between atoms: N_17  and  C_18
REMARK    7  A    between atoms: C_18  and  C_19
REMARK    8  A    between atoms: C_24  and  C_26
REMARK                            x       y       z     vdW  Elec       q    Type
REMARK                         _______ _______ _______ _____ _____    ______ ____
ROOT
ATOM      1  N   UNL     1      -0.378  10.863  19.704  0.00  0.00    +0.000 N 
ATOM      2  C   UNL     1       0.599  10.106  20.379  0.00  0.00    +0.000 C 
ATOM      3  O   UNL     1       1.008  10.495  21.479  0.00  0.00    +0.000 OA
ENDROOT
BRANCH   2   4
ATOM      4  C   UNL     1       1.113   8.724  19.782  0.00  0.00    +0.000 C 
ATOM      5  C   UNL     1       1.689   7.898  20.939  0.00  0.00    +0.000 C 
ATOM      6  O   UNL     1       1.673   6.518  20.541  0.00  0.00    +0.000 OA
ATOM      7  C   UNL     1       2.431   6.375  19.416  0.00  0.00    +0.000 A 
ATOM      8  C   UNL     1       2.972   5.108  19.186  0.00  0.00    +0.000 A 
ATOM      9  C   UNL     1       3.897   4.929  18.162  0.00  0.00    +0.000 A 
ATOM     10  C   UNL     1       4.261   6.026  17.369  0.00  0.00    +0.000 A 
ATOM     11  C   UNL     1       3.652   7.283  17.559  0.00  0.00    +0.000 A 
ATOM     12  C   UNL     1       2.712   7.463  18.570  0.00  0.00    +0.000 A 
ATOM     13  O   UNL     1       2.111   8.713  18.733  0.00  0.00    +0.000 OA
ENDBRANCH   2   4
BRANCH   1  14
ATOM     14  C   UNL     1      -0.614  12.295  20.167  0.00  0.00    +0.000 C 
BRANCH  14  15
ATOM     15  C   UNL     1      -1.912  12.458  20.998  0.00  0.00    +0.000 A 
ATOM     16  C   UNL     1      -1.907  12.387  22.406  0.00  0.00    +0.000 A 
ATOM     17  C   UNL     1      -3.088  12.476  23.150  0.00  0.00    +0.000 A 
ATOM     18  C   UNL     1      -4.292  12.685  22.494  0.00  0.00    +0.000 A 
ATOM     19  C   UNL     1      -4.322  12.854  21.118  0.00  0.00    +0.000 A 
ATOM     20  C   UNL     1      -3.140  12.752  20.376  0.00  0.00    +0.000 A 
BRANCH  18  21
ATOM     21  O   UNL     1      -5.471  12.731  23.177  0.00  0.00    +0.000 OA
ATOM     22  H   UNL     1      -5.297  13.089  24.062  0.00  0.00    +0.000 HD
ENDBRANCH  18  21
ENDBRANCH  14  15
BRANCH  14  24
ATOM     23  O   UNL     1       0.328  13.347  18.134  0.00  0.00    +0.000 OA
ATOM     24  C   UNL     1      -0.383  13.516  19.132  0.00  0.00    +0.000 C 
ATOM     25  N   UNL     1      -0.841  14.784  19.457  0.00  0.00    +0.000 N 
ATOM     26  H   UNL     1      -1.342  14.850  20.341  0.00  0.00    +0.000 HD
BRANCH  25  27
ATOM     27  C   UNL     1      -0.467  16.046  18.777  0.00  0.00    +0.000 C 
ATOM     28  C   UNL     1      -1.408  17.240  18.999  0.00  0.00    +0.000 C 
ATOM     29  C   UNL     1      -0.587  18.481  18.664  0.00  0.00    +0.000 C 
ATOM     30  C   UNL     1       0.857  18.127  18.973  0.00  0.00    +0.000 C 
ATOM     31  C   UNL     1       0.936  16.598  19.074  0.00  0.00    +0.000 C 
ENDBRANCH  25  27
ENDBRANCH  14  24
ENDBRANCH   1  14
BRANCH   1  32
ATOM     32  C   UNL     1      -0.834  10.443  18.344  0.00  0.00    +0.000 C 
BRANCH  32  33
ATOM     33  C   UNL     1      -2.200  10.916  17.791  0.00  0.00    +0.000 C 
ATOM     34  C   UNL     1      -3.253   9.808  17.805  0.00  0.00    +0.000 C 
ATOM     35  C   UNL     1      -4.315  10.394  16.908  0.00  0.00    +0.000 C 
ATOM     36  C   UNL     1      -3.495  11.139  15.870  0.00  0.00    +0.000 C 
ATOM     37  O   UNL     1      -2.158  11.279  16.398  0.00  0.00    +0.000 OA
ENDBRANCH  32  33
ENDBRANCH   1  32
TORSDOF 8
ENDMDL
MODEL 9
REMARK VINA RESULT:      -7.4      1.511      1.914
REMARK  Name = 
REMARK  8 active torsions:
REMARK  status: ('A' for Active; 'I' for Inactive)
REMARK    1  A    between atoms: C_2  and  C_9
REMARK    2  A    between atoms: N_3  and  C_4
REMARK    3  A    between atoms: C_9  and  C_10
REMARK    4  A    between atoms: C_9  and  N_17
REMARK    5  A    between atoms: C_13  and  O_14
REMARK    6  A    between atoms: N_17  and  C_18
REMARK    7  A    between atoms: C_18  and  C_19
REMARK    8  A    between atoms: C_24  and  C_26
REMARK                            x       y       z     vdW  Elec       q    Type
REMARK                         _______ _______ _______ _____ _____    ______ ____
ROOT
ATOM      1  N   UNL     1       0.312  10.696  20.291  0.00  0.00    +0.000 N 
ATOM      2  C   UNL     1       0.793   9.502  20.862  0.00  0.00    +0.000 C 
ATOM      3  O   UNL     1       0.784   9.377  22.093  0.00  0.00    +0.000 OA
ENDROOT
BRANCH   2   4
ATOM      4  C   UNL     1       1.262   8.293  19.943  0.00  0.00    +0.000 C 
ATOM      5  C   UNL     1       1.759   7.170  20.862  0.00  0.00    +0.000 C 
ATOM      6  O   UNL     1       1.693   5.939  20.123  0.00  0.00    +0.000 OA
ATOM      7  C   UNL     1       2.482   6.047  19.016  0.00  0.00    +0.000 A 
ATOM      8  C   UNL     1       2.972   4.853  18.481  0.00  0.00    +0.000 A 
ATOM      9  C   UNL     1       3.922   4.892  17.465  0.00  0.00    +0.000 A 
ATOM     10  C   UNL     1       4.364   6.133  16.988  0.00  0.00    +0.000 A 
ATOM     11  C   UNL     1       3.807   7.330  17.480  0.00  0.00    +0.000 A 
ATOM     12  C   UNL     1       2.842   7.298  18.482  0.00  0.00    +0.000 A 
ATOM     13  O   UNL     1       2.295   8.495  18.948  0.00  0.00    +0.000 OA
ENDBRANCH   2   4
BRANCH   1  14
ATOM     14  C   UNL     1       0.155  11.908  21.201  0.00  0.00    +0.000 C 
BRANCH  14  15
ATOM     15  C   UNL     1      -1.300  12.111  21.696  0.00  0.00    +0.000 A 
ATOM     16  C   UNL     1      -2.329  12.528  20.827  0.00  0.00    +0.000 A 
ATOM     17  C   UNL     1      -3.627  12.767  21.289  0.00  0.00    +0.000 A 
ATOM     18  C   UNL     1      -3.927  12.547  22.625  0.00  0.00    +0.000 A 
ATOM     19  C   UNL     1      -2.963  12.048  23.488  0.00  0.00    +0.000 A 
ATOM     20  C   UNL     1      -1.661  11.821  23.025  0.00  0.00    +0.000 A 
BRANCH  18  21
ATOM     21  O   UNL     1      -5.167  12.812  23.126  0.00  0.00    +0.000 OA
ATOM     22  H   UNL     1      -5.072  13.450  23.852  0.00  0.00    +0.000 HD
ENDBRANCH  18  21
ENDBRANCH  14  15
BRANCH  14  24
ATOM     23  O   UNL     1       1.788  13.741  21.519  0.00  0.00    +0.000 OA
ATOM     24  C   UNL     1       0.876  13.301  20.807  0.00  0.00    +0.000 C 
ATOM     25  N   UNL     1       0.358  14.072  19.778  0.00  0.00    +0.000 N 
ATOM     26  H   UNL     1      -0.448  13.672  19.301  0.00  0.00    +0.000 HD
BRANCH  25  27
ATOM     27  C   UNL     1       0.709  15.481  19.484  0.00  0.00    +0.000 C 
ATOM     28  C   UNL     1       1.934  15.701  18.584  0.00  0.00    +0.000 C 
ATOM     29  C   UNL     1       1.787  17.111  18.022  0.00  0.00    +0.000 C 
ATOM     30  C   UNL     1       0.295  17.386  17.959  0.00  0.00    +0.000 C 
ATOM     31  C   UNL     1      -0.394  16.346  18.854  0.00  0.00    +0.000 C 
ENDBRANCH  25  27
ENDBRANCH  14  24
ENDBRANCH   1  14
BRANCH   1  32
ATOM     32  C   UNL     1       0.378  10.890  18.811  0.00  0.00    +0.000 C 
BRANCH  32  33
ATOM     33  C   UNL     1      -0.853  10.589  17.922  0.00  0.00    +0.000 C 
ATOM     34  C   UNL     1      -1.624  11.853  17.541  0.00  0.00    +0.000 C 
ATOM     35  C   UNL     1      -2.917  11.271  17.028  0.00  0.00    +0.000 C 
ATOM     36  C   UNL     1      -3.122  10.072  17.937  0.00  0.00    +0.000 C 
ATOM     37  O   UNL     1      -1.862   9.807  18.590  0.00  0.00    +0.000 OA
ENDBRANCH  32  33
ENDBRANCH   1  32
TORSDOF 8
ENDMDL
