MODEL 1
REMARK VINA RESULT:      -7.6      0.000      0.000
REMARK  Name = 
REMARK  5 active torsions:
REMARK  status: ('A' for Active; 'I' for Inactive)
REMARK    1  A    between atoms: C_1  and  C_2
REMARK    2  A    between atoms: C_2  and  N_3
REMARK    3  A    between atoms: N_6  and  C_7
REMARK    4  A    between atoms: C_7  and  C_8
REMARK    5  A    between atoms: C_7  and  C_9
REMARK                            x       y       z     vdW  Elec       q    Type
REMARK                         _______ _______ _______ _____ _____    ______ ____
ROOT
ATOM      1  C   UNL     1       1.761   8.100  19.893  0.00  0.00    +0.000 A 
ATOM      2  C   UNL     1       1.535   8.307  21.240  0.00  0.00    +0.000 A 
ATOM      3  C   UNL     1       0.617   9.373  21.325  0.00  0.00    +0.000 A 
ATOM      4  C   UNL     1       0.352   9.769  20.035  0.00  0.00    +0.000 A 
ATOM      5  O   UNL     1       1.040   9.000  19.149  0.00  0.00    +0.000 OA
ATOM      6  C   UNL     1      -0.519  10.842  19.635  0.00  0.00    +0.000 C 
ATOM      7  O   UNL     1      -0.748  11.191  18.482  0.00  0.00    +0.000 OA
ATOM      8  C   UNL     1      -1.165  11.554  20.790  0.00  0.00    +0.000 A 
ATOM      9  C   UNL     1      -2.026  12.631  20.539  0.00  0.00    +0.000 A 
ATOM     10  C   UNL     1      -2.636  13.301  21.603  0.00  0.00    +0.000 A 
ATOM     11  C   UNL     1      -2.400  12.899  22.918  0.00  0.00    +0.000 A 
ATOM     12  C   UNL     1      -1.542  11.832  23.180  0.00  0.00    +0.000 A 
ATOM     13  C   UNL     1      -0.918  11.156  22.122  0.00  0.00    +0.000 A 
ATOM     14  C   UNL     1       0.002  10.026  22.452  0.00  0.00    +0.000 C 
ATOM     15  O   UNL     1       0.214   9.692  23.610  0.00  0.00    +0.000 OA
ENDROOT
BRANCH   1  16
ATOM     16  C   UNL     1       2.623   7.124  19.138  0.00  0.00    +0.000 C 
ATOM     17  C   UNL     1       3.096   7.825  17.849  0.00  0.00    +0.000 C 
BRANCH  16  21
ATOM     18  N   UNL     1       3.628   3.552  19.772  0.00  0.00    +0.000 NA
ATOM     19  C   UNL     1       3.887   4.332  18.544  0.00  0.00    +0.000 C 
ATOM     20  C   UNL     1       2.619   4.968  17.926  0.00  0.00    +0.000 C 
ATOM     21  N   UNL     1       1.883   5.864  18.850  0.00  0.00    +0.000 NA
ATOM     22  C   UNL     1       1.611   5.084  20.088  0.00  0.00    +0.000 C 
ATOM     23  C   UNL     1       2.858   4.404  20.714  0.00  0.00    +0.000 C 
BRANCH  18  25
ATOM     24  C   UNL     1       3.500   1.446  18.401  0.00  0.00    +0.000 C 
ATOM     25  C   UNL     1       2.909   2.291  19.524  0.00  0.00    +0.000 C 
ENDBRANCH  18  25
ENDBRANCH  16  21
ENDBRANCH   1  16
TORSDOF 3
ENDMDL
MODEL 2
REMARK VINA RESULT:      -7.4      0.732      2.206
REMARK  Name = 
REMARK  5 active torsions:
REMARK  status: ('A' for Active; 'I' for Inactive)
REMARK    1  A    between atoms: C_1  and  C_2
REMARK    2  A    between atoms: C_2  and  N_3
REMARK    3  A    between atoms: N_6  and  C_7
REMARK    4  A    between atoms: C_7  and  C_8
REMARK    5  A    between atoms: C_7  and  C_9
REMARK                            x       y       z     vdW  Elec       q    Type
REMARK                         _______ _______ _______ _____ _____    ______ ____
ROOT
ATOM      1  C   UNL     1       2.004   8.091  19.112  0.00  0.00    +0.000 A 
ATOM      2  C   UNL     1       1.201   8.966  18.405  0.00  0.00    +0.000 A 
ATOM      3  C   UNL     1       0.523   9.740  19.367  0.00  0.00    +0.000 A 
ATOM      4  C   UNL     1       0.929   9.284  20.599  0.00  0.00    +0.000 A 
ATOM      5  O   UNL     1       1.836   8.279  20.460  0.00  0.00    +0.000 OA
ATOM      6  C   UNL     1       0.483   9.769  21.879  0.00  0.00    +0.000 C 
ATOM      7  O   UNL     1       0.849   9.354  22.973  0.00  0.00    +0.000 OA
ATOM      8  C   UNL     1      -0.525  10.879  21.780  0.00  0.00    +0.000 A 
ATOM      9  C   UNL     1      -1.055  11.431  22.955  0.00  0.00    +0.000 A 
ATOM     10  C   UNL     1      -1.991  12.466  22.881  0.00  0.00    +0.000 A 
ATOM     11  C   UNL     1      -2.399  12.960  21.641  0.00  0.00    +0.000 A 
ATOM     12  C   UNL     1      -1.883  12.415  20.466  0.00  0.00    +0.000 A 
ATOM     13  C   UNL     1      -0.948  11.372  20.528  0.00  0.00    +0.000 A 
ATOM     14  C   UNL     1      -0.430  10.812  19.242  0.00  0.00    +0.000 C 
ATOM     15  O   UNL     1      -0.807  11.244  18.160  0.00  0.00    +0.000 OA
ENDROOT
BRANCH   1  16
ATOM     16  C   UNL     1       2.966   7.014  18.685  0.00  0.00    +0.000 C 
ATOM     17  C   UNL     1       3.760   7.556  17.480  0.00  0.00    +0.000 C 
BRANCH  16  21
ATOM     18  N   UNL     1       3.716   3.485  19.757  0.00  0.00    +0.000 NA
ATOM     19  C   UNL     1       4.221   4.160  18.544  0.00  0.00    +0.000 C 
ATOM     20  C   UNL     1       3.110   4.770  17.656  0.00  0.00    +0.000 C 
ATOM     21  N   UNL     1       2.248   5.751  18.359  0.00  0.00    +0.000 NA
ATOM     22  C   UNL     1       1.728   5.077  19.580  0.00  0.00    +0.000 C 
ATOM     23  C   UNL     1       2.816   4.423  20.474  0.00  0.00    +0.000 C 
BRANCH  18  25
ATOM     24  C   UNL     1       3.658   1.379  18.380  0.00  0.00    +0.000 C 
ATOM     25  C   UNL     1       3.012   2.222  19.474  0.00  0.00    +0.000 C 
ENDBRANCH  18  25
ENDBRANCH  16  21
ENDBRANCH   1  16
TORSDOF 3
ENDMDL
MODEL 3
REMARK VINA RESULT:      -7.2      1.992      3.038
REMARK  Name = 
REMARK  5 active torsions:
REMARK  status: ('A' for Active; 'I' for Inactive)
REMARK    1  A    between atoms: C_1  and  C_2
REMARK    2  A    between atoms: C_2  and  N_3
REMARK    3  A    between atoms: N_6  and  C_7
REMARK    4  A    between atoms: C_7  and  C_8
REMARK    5  A    between atoms: C_7  and  C_9
REMARK                            x       y       z     vdW  Elec       q    Type
REMARK                         _______ _______ _______ _____ _____    ______ ____
ROOT
ATOM      1  C   UNL     1       2.191   6.449  19.764  0.00  0.00    +0.000 A 
ATOM      2  C   UNL     1       1.695   6.983  20.938  0.00  0.00    +0.000 A 
ATOM      3  C   UNL     1       1.364   8.322  20.651  0.00  0.00    +0.000 A 
ATOM      4  C   UNL     1       1.695   8.537  19.333  0.00  0.00    +0.000 A 
ATOM      5  O   UNL     1       2.198   7.402  18.777  0.00  0.00    +0.000 OA
ATOM      6  C   UNL     1       1.550   9.771  18.608  0.00  0.00    +0.000 C 
ATOM      7  O   UNL     1       1.850   9.955  17.433  0.00  0.00    +0.000 OA
ATOM      8  C   UNL     1       0.978  10.889  19.433  0.00  0.00    +0.000 A 
ATOM      9  C   UNL     1       0.800  12.151  18.851  0.00  0.00    +0.000 A 
ATOM     10  C   UNL     1       0.266  13.200  19.604  0.00  0.00    +0.000 A 
ATOM     11  C   UNL     1      -0.099  12.997  20.936  0.00  0.00    +0.000 A 
ATOM     12  C   UNL     1       0.078  11.747  21.527  0.00  0.00    +0.000 A 
ATOM     13  C   UNL     1       0.618  10.689  20.783  0.00  0.00    +0.000 A 
ATOM     14  C   UNL     1       0.800   9.370  21.462  0.00  0.00    +0.000 C 
ATOM     15  O   UNL     1       0.490   9.208  22.636  0.00  0.00    +0.000 OA
ENDROOT
BRANCH   1  16
ATOM     16  C   UNL     1       2.712   5.084  19.401  0.00  0.00    +0.000 C 
ATOM     17  C   UNL     1       2.172   4.090  20.448  0.00  0.00    +0.000 C 
BRANCH  16  21
ATOM     18  N   UNL     1       4.989   4.266  16.517  0.00  0.00    +0.000 NA
ATOM     19  C   UNL     1       4.474   3.317  17.526  0.00  0.00    +0.000 C 
ATOM     20  C   UNL     1       4.750   3.745  18.988  0.00  0.00    +0.000 C 
ATOM     21  N   UNL     1       4.200   5.076  19.339  0.00  0.00    +0.000 NA
ATOM     22  C   UNL     1       4.719   6.041  18.332  0.00  0.00    +0.000 C 
ATOM     23  C   UNL     1       4.490   5.624  16.855  0.00  0.00    +0.000 C 
BRANCH  18  25
ATOM     24  C   UNL     1       6.990   4.701  15.054  0.00  0.00    +0.000 C 
ATOM     25  C   UNL     1       6.459   4.275  16.418  0.00  0.00    +0.000 C 
ENDBRANCH  18  25
ENDBRANCH  16  21
ENDBRANCH   1  16
TORSDOF 3
ENDMDL
MODEL 4
REMARK VINA RESULT:      -7.2      2.605      8.154
REMARK  Name = 
REMARK  5 active torsions:
REMARK  status: ('A' for Active; 'I' for Inactive)
REMARK    1  A    between atoms: C_1  and  C_2
REMARK    2  A    between atoms: C_2  and  N_3
REMARK    3  A    between atoms: N_6  and  C_7
REMARK    4  A    between atoms: C_7  and  C_8
REMARK    5  A    between atoms: C_7  and  C_9
REMARK                            x       y       z     vdW  Elec       q    Type
REMARK                         _______ _______ _______ _____ _____    ______ ____
ROOT
ATOM      1  C   UNL     1       1.430   8.072  20.706  0.00  0.00    +0.000 A 
ATOM      2  C   UNL     1       1.101   6.813  21.169  0.00  0.00    +0.000 A 
ATOM      3  C   UNL     1       1.752   5.898  20.318  0.00  0.00    +0.000 A 
ATOM      4  C   UNL     1       2.421   6.644  19.375  0.00  0.00    +0.000 A 
ATOM      5  O   UNL     1       2.237   7.973  19.600  0.00  0.00    +0.000 OA
ATOM      6  C   UNL     1       3.211   6.133  18.286  0.00  0.00    +0.000 C 
ATOM      7  O   UNL     1       3.802   6.805  17.448  0.00  0.00    +0.000 OA
ATOM      8  C   UNL     1       3.264   4.632  18.237  0.00  0.00    +0.000 A 
ATOM      9  C   UNL     1       3.987   4.003  17.214  0.00  0.00    +0.000 A 
ATOM     10  C   UNL     1       4.049   2.609  17.156  0.00  0.00    +0.000 A 
ATOM     11  C   UNL     1       3.398   1.834  18.117  0.00  0.00    +0.000 A 
ATOM     12  C   UNL     1       2.671   2.448  19.136  0.00  0.00    +0.000 A 
ATOM     13  C   UNL     1       2.597   3.846  19.201  0.00  0.00    +0.000 A 
ATOM     14  C   UNL     1       1.797   4.459  20.305  0.00  0.00    +0.000 C 
ATOM     15  O   UNL     1       1.218   3.769  21.133  0.00  0.00    +0.000 OA
ENDROOT
BRANCH   1  16
ATOM     16  C   UNL     1       1.067   9.459  21.166  0.00  0.00    +0.000 C 
ATOM     17  C   UNL     1       0.621   9.355  22.637  0.00  0.00    +0.000 C 
BRANCH  16  21
ATOM     18  N   UNL     1       0.965  12.809  19.452  0.00  0.00    +0.000 NA
ATOM     19  C   UNL     1       0.462  12.500  20.807  0.00  0.00    +0.000 C 
ATOM     20  C   UNL     1      -0.535  11.317  20.850  0.00  0.00    +0.000 C 
ATOM     21  N   UNL     1       0.008  10.051  20.301  0.00  0.00    +0.000 NA
ATOM     22  C   UNL     1       0.512  10.351  18.933  0.00  0.00    +0.000 C 
ATOM     23  C   UNL     1       1.487  11.555  18.850  0.00  0.00    +0.000 C 
BRANCH  18  25
ATOM     24  C   UNL     1      -0.275  14.900  18.804  0.00  0.00    +0.000 C 
ATOM     25  C   UNL     1      -0.052  13.410  18.572  0.00  0.00    +0.000 C 
ENDBRANCH  18  25
ENDBRANCH  16  21
ENDBRANCH   1  16
TORSDOF 3
ENDMDL
MODEL 5
REMARK VINA RESULT:      -6.9      2.630      8.463
REMARK  Name = 
REMARK  5 active torsions:
REMARK  status: ('A' for Active; 'I' for Inactive)
REMARK    1  A    between atoms: C_1  and  C_2
REMARK    2  A    between atoms: C_2  and  N_3
REMARK    3  A    between atoms: N_6  and  C_7
REMARK    4  A    between atoms: C_7  and  C_8
REMARK    5  A    between atoms: C_7  and  C_9
REMARK                            x       y       z     vdW  Elec       q    Type
REMARK                         _______ _______ _______ _____ _____    ______ ____
ROOT
ATOM      1  C   UNL     1       1.616   8.175  20.252  0.00  0.00    +0.000 A 
ATOM      2  C   UNL     1       2.383   8.005  19.114  0.00  0.00    +0.000 A 
ATOM      3  C   UNL     1       2.586   6.616  18.983  0.00  0.00    +0.000 A 
ATOM      4  C   UNL     1       1.955   6.022  20.050  0.00  0.00    +0.000 A 
ATOM      5  O   UNL     1       1.355   6.960  20.833  0.00  0.00    +0.000 OA
ATOM      6  C   UNL     1       1.913   4.613  20.339  0.00  0.00    +0.000 C 
ATOM      7  O   UNL     1       1.350   4.091  21.296  0.00  0.00    +0.000 OA
ATOM      8  C   UNL     1       2.652   3.773  19.337  0.00  0.00    +0.000 A 
ATOM      9  C   UNL     1       2.703   2.383  19.510  0.00  0.00    +0.000 A 
ATOM     10  C   UNL     1       3.383   1.587  18.585  0.00  0.00    +0.000 A 
ATOM     11  C   UNL     1       4.009   2.168  17.481  0.00  0.00    +0.000 A 
ATOM     12  C   UNL     1       3.970   3.549  17.301  0.00  0.00    +0.000 A 
ATOM     13  C   UNL     1       3.296   4.359  18.226  0.00  0.00    +0.000 A 
ATOM     14  C   UNL     1       3.289   5.836  17.998  0.00  0.00    +0.000 C 
ATOM     15  O   UNL     1       3.855   6.335  17.034  0.00  0.00    +0.000 OA
ENDROOT
BRANCH   1  16
ATOM     16  C   UNL     1       1.060   9.395  20.936  0.00  0.00    +0.000 C 
ATOM     17  C   UNL     1       0.552   8.955  22.323  0.00  0.00    +0.000 C 
BRANCH  16  21
ATOM     18  N   UNL     1       0.710  12.955  19.763  0.00  0.00    +0.000 NA
ATOM     19  C   UNL     1       0.187  12.390  21.025  0.00  0.00    +0.000 C 
ATOM     20  C   UNL     1      -0.696  11.134  20.832  0.00  0.00    +0.000 C 
ATOM     21  N   UNL     1      -0.016  10.024  20.121  0.00  0.00    +0.000 NA
ATOM     22  C   UNL     1       0.508  10.582  18.844  0.00  0.00    +0.000 C 
ATOM     23  C   UNL     1       1.369  11.864  19.001  0.00  0.00    +0.000 C 
BRANCH  18  25
ATOM     24  C   UNL     1      -0.205  15.117  18.857  0.00  0.00    +0.000 C 
ATOM     25  C   UNL     1      -0.325  13.599  18.937  0.00  0.00    +0.000 C 
ENDBRANCH  18  25
ENDBRANCH  16  21
ENDBRANCH   1  16
TORSDOF 3
ENDMDL
MODEL 6
REMARK VINA RESULT:      -6.9      1.868      3.260
REMARK  Name = 
REMARK  5 active torsions:
REMARK  status: ('A' for Active; 'I' for Inactive)
REMARK    1  A    between atoms: C_1  and  C_2
REMARK    2  A    between atoms: C_2  and  N_3
REMARK    3  A    between atoms: N_6  and  C_7
REMARK    4  A    between atoms: C_7  and  C_8
REMARK    5  A    between atoms: C_7  and  C_9
REMARK                            x       y       z     vdW  Elec       q    Type
REMARK                         _______ _______ _______ _____ _____    ______ ____
ROOT
ATOM      1  C   UNL     1       2.073   7.149  19.576  0.00  0.00    +0.000 A 
ATOM      2  C   UNL     1       2.012   8.308  18.825  0.00  0.00    +0.000 A 
ATOM      3  C   UNL     1       1.343   9.257  19.623  0.00  0.00    +0.000 A 
ATOM      4  C   UNL     1       1.017   8.624  20.800  0.00  0.00    +0.000 A 
ATOM      5  O   UNL     1       1.459   7.337  20.788  0.00  0.00    +0.000 OA
ATOM      6  C   UNL     1       0.306   9.201  21.911  0.00  0.00    +0.000 C 
ATOM      7  O   UNL     1       0.017   8.629  22.955  0.00  0.00    +0.000 OA
ATOM      8  C   UNL     1      -0.086  10.635  21.691  0.00  0.00    +0.000 A 
ATOM      9  C   UNL     1      -0.798  11.312  22.691  0.00  0.00    +0.000 A 
ATOM     10  C   UNL     1      -1.168  12.647  22.504  0.00  0.00    +0.000 A 
ATOM     11  C   UNL     1      -0.825  13.315  21.327  0.00  0.00    +0.000 A 
ATOM     12  C   UNL     1      -0.121  12.650  20.325  0.00  0.00    +0.000 A 
ATOM     13  C   UNL     1       0.249  11.309  20.498  0.00  0.00    +0.000 A 
ATOM     14  C   UNL     1       0.993  10.635  19.391  0.00  0.00    +0.000 C 
ATOM     15  O   UNL     1       1.275  11.227  18.357  0.00  0.00    +0.000 OA
ENDROOT
BRANCH   1  16
ATOM     16  C   UNL     1       2.652   5.785  19.306  0.00  0.00    +0.000 C 
ATOM     17  C   UNL     1       2.141   4.840  20.412  0.00  0.00    +0.000 C 
BRANCH  16  21
ATOM     18  N   UNL     1       5.018   4.263  16.805  0.00  0.00    +0.000 NA
ATOM     19  C   UNL     1       4.529   3.632  18.049  0.00  0.00    +0.000 C 
ATOM     20  C   UNL     1       4.757   4.487  19.318  0.00  0.00    +0.000 C 
ATOM     21  N   UNL     1       4.140   5.834  19.256  0.00  0.00    +0.000 NA
ATOM     22  C   UNL     1       4.632   6.481  18.009  0.00  0.00    +0.000 C 
ATOM     23  C   UNL     1       4.450   5.633  16.722  0.00  0.00    +0.000 C 
BRANCH  18  25
ATOM     24  C   UNL     1       7.012   4.794  15.365  0.00  0.00    +0.000 C 
ATOM     25  C   UNL     1       6.487   4.316  16.714  0.00  0.00    +0.000 C 
ENDBRANCH  18  25
ENDBRANCH  16  21
ENDBRANCH   1  16
TORSDOF 3
ENDMDL
MODEL 7
REMARK VINA RESULT:      -6.8      2.031      3.127
REMARK  Name = 
REMARK  5 active torsions:
REMARK  status: ('A' for Active; 'I' for Inactive)
REMARK    1  A    between atoms: C_1  and  C_2
REMARK    2  A    between atoms: C_2  and  N_3
REMARK    3  A    between atoms: N_6  and  C_7
REMARK    4  A    between atoms: C_7  and  C_8
REMARK    5  A    between atoms: C_7  and  C_9
REMARK                            x       y       z     vdW  Elec       q    Type
REMARK                         _______ _______ _______ _____ _____    ______ ____
ROOT
ATOM      1  C   UNL     1       2.168   6.320  19.350  0.00  0.00    +0.000 A 
ATOM      2  C   UNL     1       1.711   6.773  20.573  0.00  0.00    +0.000 A 
ATOM      3  C   UNL     1       1.426   8.142  20.403  0.00  0.00    +0.000 A 
ATOM      4  C   UNL     1       1.744   8.453  19.102  0.00  0.00    +0.000 A 
ATOM      5  O   UNL     1       2.195   7.351  18.444  0.00  0.00    +0.000 OA
ATOM      6  C   UNL     1       1.634   9.748  18.483  0.00  0.00    +0.000 C 
ATOM      7  O   UNL     1       1.922  10.017  17.322  0.00  0.00    +0.000 OA
ATOM      8  C   UNL     1       1.117  10.813  19.408  0.00  0.00    +0.000 A 
ATOM      9  C   UNL     1       0.977  12.125  18.935  0.00  0.00    +0.000 A 
ATOM     10  C   UNL     1       0.495  13.126  19.782  0.00  0.00    +0.000 A 
ATOM     11  C   UNL     1       0.144  12.827  21.099  0.00  0.00    +0.000 A 
ATOM     12  C   UNL     1       0.284  11.527  21.582  0.00  0.00    +0.000 A 
ATOM     13  C   UNL     1       0.772  10.515  20.744  0.00  0.00    +0.000 A 
ATOM     14  C   UNL     1       0.915   9.139  21.309  0.00  0.00    +0.000 C 
ATOM     15  O   UNL     1       0.618   8.891  22.470  0.00  0.00    +0.000 OA
ENDROOT
BRANCH   1  16
ATOM     16  C   UNL     1       2.631   4.972  18.866  0.00  0.00    +0.000 C 
ATOM     17  C   UNL     1       1.555   3.943  19.266  0.00  0.00    +0.000 C 
BRANCH  16  21
ATOM     18  N   UNL     1       5.999   4.913  17.185  0.00  0.00    +0.000 NA
ATOM     19  C   UNL     1       5.051   3.785  17.292  0.00  0.00    +0.000 C 
ATOM     20  C   UNL     1       4.600   3.479  18.740  0.00  0.00    +0.000 C 
ATOM     21  N   UNL     1       3.968   4.630  19.429  0.00  0.00    +0.000 NA
ATOM     22  C   UNL     1       4.919   5.771  19.334  0.00  0.00    +0.000 C 
ATOM     23  C   UNL     1       5.419   6.080  17.897  0.00  0.00    +0.000 C 
BRANCH  18  25
ATOM     24  C   UNL     1       7.951   5.730  18.547  0.00  0.00    +0.000 C 
ATOM     25  C   UNL     1       7.337   4.606  17.720  0.00  0.00    +0.000 C 
ENDBRANCH  18  25
ENDBRANCH  16  21
ENDBRANCH   1  16
TORSDOF 3
ENDMDL
MODEL 8
REMARK VINA RESULT:      -6.7      2.596      7.953
REMARK  Name = 
REMARK  5 active torsions:
REMARK  status: ('A' for Active; 'I' for Inactive)
REMARK    1  A    between atoms: C_1  and  C_2
REMARK    2  A    between atoms: C_2  and  N_3
REMARK    3  A    between atoms: N_6  and  C_7
REMARK    4  A    between atoms: C_7  and  C_8
REMARK    5  A    between atoms: C_7  and  C_9
REMARK                            x       y       z     vdW  Elec       q    Type
REMARK                         _______ _______ _______ _____ _____    ______ ____
ROOT
ATOM      1  C   UNL     1       1.429   8.014  20.737  0.00  0.00    +0.000 A 
ATOM      2  C   UNL     1       1.084   6.759  21.200  0.00  0.00    +0.000 A 
ATOM      3  C   UNL     1       1.739   5.837  20.358  0.00  0.00    +0.000 A 
ATOM      4  C   UNL     1       2.424   6.575  19.422  0.00  0.00    +0.000 A 
ATOM      5  O   UNL     1       2.247   7.906  19.641  0.00  0.00    +0.000 OA
ATOM      6  C   UNL     1       3.223   6.054  18.344  0.00  0.00    +0.000 C 
ATOM      7  O   UNL     1       3.829   6.720  17.511  0.00  0.00    +0.000 OA
ATOM      8  C   UNL     1       3.265   4.553  18.300  0.00  0.00    +0.000 A 
ATOM      9  C   UNL     1       3.996   3.916  17.287  0.00  0.00    +0.000 A 
ATOM     10  C   UNL     1       4.048   2.521  17.234  0.00  0.00    +0.000 A 
ATOM     11  C   UNL     1       3.379   1.754  18.189  0.00  0.00    +0.000 A 
ATOM     12  C   UNL     1       2.645   2.376  19.197  0.00  0.00    +0.000 A 
ATOM     13  C   UNL     1       2.581   3.775  19.258  0.00  0.00    +0.000 A 
ATOM     14  C   UNL     1       1.772   4.397  20.350  0.00  0.00    +0.000 C 
ATOM     15  O   UNL     1       1.178   3.714  21.173  0.00  0.00    +0.000 OA
ENDROOT
BRANCH   1  16
ATOM     16  C   UNL     1       1.071   9.405  21.189  0.00  0.00    +0.000 C 
ATOM     17  C   UNL     1       1.370   9.492  22.698  0.00  0.00    +0.000 C 
BRANCH  16  21
ATOM     18  N   UNL     1      -0.368  11.968  18.837  0.00  0.00    +0.000 NA
ATOM     19  C   UNL     1      -0.055  12.167  20.268  0.00  0.00    +0.000 C 
ATOM     20  C   UNL     1      -0.710  11.122  21.203  0.00  0.00    +0.000 C 
ATOM     21  N   UNL     1      -0.353   9.719  20.882  0.00  0.00    +0.000 NA
ATOM     22  C   UNL     1      -0.671   9.507  19.444  0.00  0.00    +0.000 C 
ATOM     23  C   UNL     1      -0.059  10.560  18.481  0.00  0.00    +0.000 C 
BRANCH  18  25
ATOM     24  C   UNL     1      -2.305  11.506  17.299  0.00  0.00    +0.000 C 
ATOM     25  C   UNL     1      -1.765  12.283  18.494  0.00  0.00    +0.000 C 
ENDBRANCH  18  25
ENDBRANCH  16  21
ENDBRANCH   1  16
TORSDOF 3
ENDMDL
MODEL 9
REMARK VINA RESULT:      -6.7      2.876      8.239
REMARK  Name = 
REMARK  5 active torsions:
REMARK  status: ('A' for Active; 'I' for Inactive)
REMARK    1  A    between atoms: C_1  and  C_2
REMARK    2  A    between atoms: C_2  and  N_3
REMARK    3  A    between atoms: N_6  and  C_7
REMARK    4  A    between atoms: C_7  and  C_8
REMARK    5  A    between atoms: C_7  and  C_9
REMARK                            x       y       z     vdW  Elec       q    Type
REMARK                         _______ _______ _______ _____ _____    ______ ____
ROOT
ATOM      1  C   UNL     1       1.440   9.455  18.710  0.00  0.00    +0.000 A 
ATOM      2  C   UNL     1       2.382   9.102  17.763  0.00  0.00    +0.000 A 
ATOM      3  C   UNL     1       2.812   7.804  18.103  0.00  0.00    +0.000 A 
ATOM      4  C   UNL     1       2.129   7.447  19.242  0.00  0.00    +0.000 A 
ATOM      5  O   UNL     1       1.285   8.444  19.624  0.00  0.00    +0.000 OA
ATOM      6  C   UNL     1       2.261   6.209  19.963  0.00  0.00    +0.000 C 
ATOM      7  O   UNL     1       1.651   5.900  20.981  0.00  0.00    +0.000 OA
ATOM      8  C   UNL     1       3.259   5.264  19.355  0.00  0.00    +0.000 A 
ATOM      9  C   UNL     1       3.496   4.027  19.970  0.00  0.00    +0.000 A 
ATOM     10  C   UNL     1       4.419   3.136  19.415  0.00  0.00    +0.000 A 
ATOM     11  C   UNL     1       5.104   3.468  18.246  0.00  0.00    +0.000 A 
ATOM     12  C   UNL     1       4.880   4.698  17.629  0.00  0.00    +0.000 A 
ATOM     13  C   UNL     1       3.962   5.602  18.179  0.00  0.00    +0.000 A 
ATOM     14  C   UNL     1       3.763   6.913  17.489  0.00  0.00    +0.000 C 
ATOM     15  O   UNL     1       4.381   7.200  16.472  0.00  0.00    +0.000 OA
ENDROOT
BRANCH   1  16
ATOM     16  C   UNL     1       0.609  10.694  18.913  0.00  0.00    +0.000 C 
ATOM     17  C   UNL     1       1.374  11.609  19.889  0.00  0.00    +0.000 C 
BRANCH  16  21
ATOM     18  N   UNL     1      -2.761  11.868  17.714  0.00  0.00    +0.000 NA
ATOM     19  C   UNL     1      -1.930  12.504  18.758  0.00  0.00    +0.000 C 
ATOM     20  C   UNL     1      -1.500  11.541  19.890  0.00  0.00    +0.000 C 
ATOM     21  N   UNL     1      -0.751  10.352  19.418  0.00  0.00    +0.000 NA
ATOM     22  C   UNL     1      -1.584   9.700  18.371  0.00  0.00    +0.000 C 
ATOM     23  C   UNL     1      -2.061  10.648  17.238  0.00  0.00    +0.000 C 
BRANCH  18  25
ATOM     24  C   UNL     1      -5.216  11.841  17.163  0.00  0.00    +0.000 C 
ATOM     25  C   UNL     1      -4.118  11.528  18.174  0.00  0.00    +0.000 C 
ENDBRANCH  18  25
ENDBRANCH  16  21
ENDBRANCH   1  16
TORSDOF 3
ENDMDL
