MODEL 1
REMARK VINA RESULT:      -7.4      0.000      0.000
REMARK  Name = 
REMARK  11 active torsions:
REMARK  status: ('A' for Active; 'I' for Inactive)
REMARK    1  A    between atoms: C_1  and  C_2
REMARK    2  A    between atoms: C_2  and  C_3
REMARK    3  A    between atoms: C_3  and  C_17
REMARK    4  A    between atoms: C_4  and  C_5
REMARK    5  A    between atoms: C_8  and  O_9
REMARK    6  A    between atoms: O_9  and  C_10
REMARK    7  A    between atoms: C_10  and  C_11
REMARK    8  A    between atoms: C_11  and  N_12
REMARK    9  A    between atoms: N_12  and  C_13
REMARK   10  A    between atoms: N_12  and  C_14
REMARK   11  A    between atoms: C_20  and  C_21
REMARK                            x       y       z     vdW  Elec       q    Type
REMARK                         _______ _______ _______ _____ _____    ______ ____
ROOT
ATOM      1  C   UNL     1       3.368   4.465  17.673  0.00  0.00    +0.000 C 
ATOM      2  C   UNL     1       4.621   4.531  17.182  0.00  0.00    +0.000 C 
ENDROOT
BRANCH   2   3
ATOM      3  C   UNL     1       5.658   5.484  17.575  0.00  0.00    +0.000 A 
ATOM      4  C   UNL     1       6.438   5.173  18.688  0.00  0.00    +0.000 A 
ATOM      5  C   UNL     1       7.490   6.004  19.059  0.00  0.00    +0.000 A 
ATOM      6  C   UNL     1       7.789   7.155  18.321  0.00  0.00    +0.000 A 
ATOM      7  C   UNL     1       6.989   7.481  17.221  0.00  0.00    +0.000 A 
ATOM      8  C   UNL     1       5.922   6.647  16.847  0.00  0.00    +0.000 A 
BRANCH   6   9
ATOM      9  O   UNL     1       8.842   8.002  18.586  0.00  0.00    +0.000 OA
BRANCH   9  10
ATOM     10  C   UNL     1       8.536   9.380  18.350  0.00  0.00    +0.000 C 
BRANCH  10  11
ATOM     11  C   UNL     1       9.274  10.323  19.305  0.00  0.00    +0.000 C 
BRANCH  11  12
ATOM     12  N   UNL     1       9.572  11.628  18.672  0.00  0.00    +0.000 NA
ATOM     13  C   UNL     1      10.901  11.669  18.062  0.00  0.00    +0.000 C 
ATOM     14  C   UNL     1       8.556  11.955  17.672  0.00  0.00    +0.000 C 
ENDBRANCH  11  12
ENDBRANCH  10  11
ENDBRANCH   9  10
ENDBRANCH   6   9
ENDBRANCH   2   3
BRANCH   1  15
ATOM     15  C   UNL     1       2.869   5.502  18.601  0.00  0.00    +0.000 A 
ATOM     16  C   UNL     1       2.464   5.139  19.891  0.00  0.00    +0.000 A 
ATOM     17  C   UNL     1       1.886   6.079  20.752  0.00  0.00    +0.000 A 
ATOM     18  C   UNL     1       1.702   7.402  20.331  0.00  0.00    +0.000 A 
ATOM     19  C   UNL     1       2.134   7.772  19.048  0.00  0.00    +0.000 A 
ATOM     20  C   UNL     1       2.716   6.829  18.190  0.00  0.00    +0.000 A 
BRANCH  18  21
ATOM     21  C   UNL     1       1.045   8.447  21.173  0.00  0.00    +0.000 C 
ATOM     22  N   UNL     1       1.695   8.899  22.288  0.00  0.00    +0.000 N 
ATOM     23  O   UNL     1      -0.059   8.896  20.891  0.00  0.00    +0.000 OA
ATOM     24  H   UNL     1       2.570   8.545  22.636  0.00  0.00    +0.000 HD
ATOM     25  H   UNL     1       1.197   9.571  22.859  0.00  0.00    +0.000 HD
ENDBRANCH  18  21
ENDBRANCH   1  15
BRANCH   1  27
ATOM     26  C   UNL     1       2.699   1.983  17.909  0.00  0.00    +0.000 C 
ATOM     27  C   UNL     1       2.382   3.364  17.335  0.00  0.00    +0.000 C 
ENDBRANCH   1  27
TORSDOF 8
ENDMDL
MODEL 2
REMARK VINA RESULT:      -7.2      0.788      1.321
REMARK  Name = 
REMARK  11 active torsions:
REMARK  status: ('A' for Active; 'I' for Inactive)
REMARK    1  A    between atoms: C_1  and  C_2
REMARK    2  A    between atoms: C_2  and  C_3
REMARK    3  A    between atoms: C_3  and  C_17
REMARK    4  A    between atoms: C_4  and  C_5
REMARK    5  A    between atoms: C_8  and  O_9
REMARK    6  A    between atoms: O_9  and  C_10
REMARK    7  A    between atoms: C_10  and  C_11
REMARK    8  A    between atoms: C_11  and  N_12
REMARK    9  A    between atoms: N_12  and  C_13
REMARK   10  A    between atoms: N_12  and  C_14
REMARK   11  A    between atoms: C_20  and  C_21
REMARK                            x       y       z     vdW  Elec       q    Type
REMARK                         _______ _______ _______ _____ _____    ______ ____
ROOT
ATOM      1  C   UNL     1       3.842   4.130  17.634  0.00  0.00    +0.000 C 
ATOM      2  C   UNL     1       5.132   4.275  17.271  0.00  0.00    +0.000 C 
ENDROOT
BRANCH   2   3
ATOM      3  C   UNL     1       6.025   5.366  17.657  0.00  0.00    +0.000 A 
ATOM      4  C   UNL     1       6.820   5.185  18.788  0.00  0.00    +0.000 A 
ATOM      5  C   UNL     1       7.744   6.158  19.156  0.00  0.00    +0.000 A 
ATOM      6  C   UNL     1       7.900   7.322  18.395  0.00  0.00    +0.000 A 
ATOM      7  C   UNL     1       7.084   7.515  17.277  0.00  0.00    +0.000 A 
ATOM      8  C   UNL     1       6.144   6.538  16.906  0.00  0.00    +0.000 A 
BRANCH   6   9
ATOM      9  O   UNL     1       8.825   8.308  18.656  0.00  0.00    +0.000 OA
BRANCH   9  10
ATOM     10  C   UNL     1       8.427   9.601  18.188  0.00  0.00    +0.000 C 
BRANCH  10  11
ATOM     11  C   UNL     1       9.538  10.647  18.321  0.00  0.00    +0.000 C 
BRANCH  11  12
ATOM     12  N   UNL     1       9.197  11.690  19.316  0.00  0.00    +0.000 NA
ATOM     13  C   UNL     1       9.644  11.348  20.667  0.00  0.00    +0.000 C 
ATOM     14  C   UNL     1       9.759  12.980  18.919  0.00  0.00    +0.000 C 
ENDBRANCH  11  12
ENDBRANCH  10  11
ENDBRANCH   9  10
ENDBRANCH   6   9
ENDBRANCH   2   3
BRANCH   1  15
ATOM     15  C   UNL     1       3.147   5.201  18.380  0.00  0.00    +0.000 A 
ATOM     16  C   UNL     1       2.777   6.377  17.718  0.00  0.00    +0.000 A 
ATOM     17  C   UNL     1       2.217   7.450  18.421  0.00  0.00    +0.000 A 
ATOM     18  C   UNL     1       2.020   7.361  19.804  0.00  0.00    +0.000 A 
ATOM     19  C   UNL     1       2.365   6.171  20.464  0.00  0.00    +0.000 A 
ATOM     20  C   UNL     1       2.922   5.097  19.756  0.00  0.00    +0.000 A 
BRANCH  18  21
ATOM     21  C   UNL     1       1.479   8.482  20.630  0.00  0.00    +0.000 C 
ATOM     22  N   UNL     1       1.679   8.460  21.983  0.00  0.00    +0.000 N 
ATOM     23  O   UNL     1       0.855   9.407  20.124  0.00  0.00    +0.000 OA
ATOM     24  H   UNL     1       2.118   7.714  22.495  0.00  0.00    +0.000 HD
ATOM     25  H   UNL     1       1.255   9.211  22.514  0.00  0.00    +0.000 HD
ENDBRANCH  18  21
ENDBRANCH   1  15
BRANCH   1  27
ATOM     26  C   UNL     1       3.242   1.689  18.223  0.00  0.00    +0.000 C 
ATOM     27  C   UNL     1       3.006   2.904  17.325  0.00  0.00    +0.000 C 
ENDBRANCH   1  27
TORSDOF 8
ENDMDL
MODEL 3
REMARK VINA RESULT:      -7.0      1.470      2.016
REMARK  Name = 
REMARK  11 active torsions:
REMARK  status: ('A' for Active; 'I' for Inactive)
REMARK    1  A    between atoms: C_1  and  C_2
REMARK    2  A    between atoms: C_2  and  C_3
REMARK    3  A    between atoms: C_3  and  C_17
REMARK    4  A    between atoms: C_4  and  C_5
REMARK    5  A    between atoms: C_8  and  O_9
REMARK    6  A    between atoms: O_9  and  C_10
REMARK    7  A    between atoms: C_10  and  C_11
REMARK    8  A    between atoms: C_11  and  N_12
REMARK    9  A    between atoms: N_12  and  C_13
REMARK   10  A    between atoms: N_12  and  C_14
REMARK   11  A    between atoms: C_20  and  C_21
REMARK                            x       y       z     vdW  Elec       q    Type
REMARK                         _______ _______ _______ _____ _____    ______ ____
ROOT
ATOM      1  C   UNL     1       2.517   4.497  18.713  0.00  0.00    +0.000 C 
ATOM      2  C   UNL     1       3.672   4.056  18.176  0.00  0.00    +0.000 C 
ENDROOT
BRANCH   2   3
ATOM      3  C   UNL     1       4.847   4.867  17.860  0.00  0.00    +0.000 A 
ATOM      4  C   UNL     1       4.942   5.399  16.575  0.00  0.00    +0.000 A 
ATOM      5  C   UNL     1       5.997   6.242  16.243  0.00  0.00    +0.000 A 
ATOM      6  C   UNL     1       6.971   6.579  17.191  0.00  0.00    +0.000 A 
ATOM      7  C   UNL     1       6.890   6.024  18.471  0.00  0.00    +0.000 A 
ATOM      8  C   UNL     1       5.829   5.166  18.808  0.00  0.00    +0.000 A 
BRANCH   6   9
ATOM      9  O   UNL     1       8.016   7.446  16.963  0.00  0.00    +0.000 OA
BRANCH   9  10
ATOM     10  C   UNL     1       8.284   8.316  18.068  0.00  0.00    +0.000 C 
BRANCH  10  11
ATOM     11  C   UNL     1       8.122   9.797  17.708  0.00  0.00    +0.000 C 
BRANCH  11  12
ATOM     12  N   UNL     1       9.252  10.612  18.207  0.00  0.00    +0.000 NA
ATOM     13  C   UNL     1       9.100  12.035  17.902  0.00  0.00    +0.000 C 
ATOM     14  C   UNL     1       9.418  10.428  19.649  0.00  0.00    +0.000 C 
ENDBRANCH  11  12
ENDBRANCH  10  11
ENDBRANCH   9  10
ENDBRANCH   6   9
ENDBRANCH   2   3
BRANCH   1  15
ATOM     15  C   UNL     1       2.281   5.944  18.903  0.00  0.00    +0.000 A 
ATOM     16  C   UNL     1       2.046   6.442  20.190  0.00  0.00    +0.000 A 
ATOM     17  C   UNL     1       1.711   7.787  20.387  0.00  0.00    +0.000 A 
ATOM     18  C   UNL     1       1.606   8.656  19.294  0.00  0.00    +0.000 A 
ATOM     19  C   UNL     1       1.870   8.162  18.007  0.00  0.00    +0.000 A 
ATOM     20  C   UNL     1       2.208   6.816  17.814  0.00  0.00    +0.000 A 
BRANCH  18  21
ATOM     21  C   UNL     1       1.202  10.089  19.421  0.00  0.00    +0.000 C 
ATOM     22  N   UNL     1       1.123  10.853  18.289  0.00  0.00    +0.000 N 
ATOM     23  O   UNL     1       0.953  10.591  20.510  0.00  0.00    +0.000 OA
ATOM     24  H   UNL     1       1.372  10.550  17.362  0.00  0.00    +0.000 HD
ATOM     25  H   UNL     1       0.894  11.830  18.419  0.00  0.00    +0.000 HD
ENDBRANCH  18  21
ENDBRANCH   1  15
BRANCH   1  27
ATOM     26  C   UNL     1       1.651   2.087  19.039  0.00  0.00    +0.000 C 
ATOM     27  C   UNL     1       1.387   3.589  19.155  0.00  0.00    +0.000 C 
ENDBRANCH   1  27
TORSDOF 8
ENDMDL
MODEL 4
REMARK VINA RESULT:      -6.9      0.869      1.298
REMARK  Name = 
REMARK  11 active torsions:
REMARK  status: ('A' for Active; 'I' for Inactive)
REMARK    1  A    between atoms: C_1  and  C_2
REMARK    2  A    between atoms: C_2  and  C_3
REMARK    3  A    between atoms: C_3  and  C_17
REMARK    4  A    between atoms: C_4  and  C_5
REMARK    5  A    between atoms: C_8  and  O_9
REMARK    6  A    between atoms: O_9  and  C_10
REMARK    7  A    between atoms: C_10  and  C_11
REMARK    8  A    between atoms: C_11  and  N_12
REMARK    9  A    between atoms: N_12  and  C_13
REMARK   10  A    between atoms: N_12  and  C_14
REMARK   11  A    between atoms: C_20  and  C_21
REMARK                            x       y       z     vdW  Elec       q    Type
REMARK                         _______ _______ _______ _____ _____    ______ ____
ROOT
ATOM      1  C   UNL     1       3.576   4.485  17.451  0.00  0.00    +0.000 C 
ATOM      2  C   UNL     1       4.860   4.435  17.045  0.00  0.00    +0.000 C 
ENDROOT
BRANCH   2   3
ATOM      3  C   UNL     1       5.949   5.299  17.499  0.00  0.00    +0.000 A 
ATOM      4  C   UNL     1       6.234   6.436  16.744  0.00  0.00    +0.000 A 
ATOM      5  C   UNL     1       7.205   7.335  17.173  0.00  0.00    +0.000 A 
ATOM      6  C   UNL     1       7.901   7.121  18.368  0.00  0.00    +0.000 A 
ATOM      7  C   UNL     1       7.634   5.968  19.111  0.00  0.00    +0.000 A 
ATOM      8  C   UNL     1       6.658   5.054  18.678  0.00  0.00    +0.000 A 
BRANCH   6   9
ATOM      9  O   UNL     1       8.838   7.985  18.892  0.00  0.00    +0.000 OA
BRANCH   9  10
ATOM     10  C   UNL     1       8.585   9.358  18.574  0.00  0.00    +0.000 C 
BRANCH  10  11
ATOM     11  C   UNL     1       9.238  10.325  19.568  0.00  0.00    +0.000 C 
BRANCH  11  12
ATOM     12  N   UNL     1       9.002  11.739  19.196  0.00  0.00    +0.000 NA
ATOM     13  C   UNL     1       9.889  12.663  19.904  0.00  0.00    +0.000 C 
ATOM     14  C   UNL     1       9.146  11.919  17.752  0.00  0.00    +0.000 C 
ENDBRANCH  11  12
ENDBRANCH  10  11
ENDBRANCH   9  10
ENDBRANCH   6   9
ENDBRANCH   2   3
BRANCH   1  15
ATOM     15  C   UNL     1       3.110   5.575  18.335  0.00  0.00    +0.000 A 
ATOM     16  C   UNL     1       2.853   5.307  19.685  0.00  0.00    +0.000 A 
ATOM     17  C   UNL     1       2.308   6.290  20.519  0.00  0.00    +0.000 A 
ATOM     18  C   UNL     1       2.008   7.560  20.011  0.00  0.00    +0.000 A 
ATOM     19  C   UNL     1       2.292   7.836  18.664  0.00  0.00    +0.000 A 
ATOM     20  C   UNL     1       2.842   6.851  17.834  0.00  0.00    +0.000 A 
BRANCH  18  21
ATOM     21  C   UNL     1       1.376   8.642  20.825  0.00  0.00    +0.000 C 
ATOM     22  N   UNL     1       0.722   9.655  20.179  0.00  0.00    +0.000 N 
ATOM     23  O   UNL     1       1.441   8.644  22.048  0.00  0.00    +0.000 OA
ATOM     24  H   UNL     1       0.673   9.774  19.182  0.00  0.00    +0.000 HD
ATOM     25  H   UNL     1       0.349  10.394  20.762  0.00  0.00    +0.000 HD
ENDBRANCH  18  21
ENDBRANCH   1  15
BRANCH   1  27
ATOM     26  C   UNL     1       2.185   2.412  18.107  0.00  0.00    +0.000 C 
ATOM     27  C   UNL     1       2.522   3.470  17.056  0.00  0.00    +0.000 C 
ENDBRANCH   1  27
TORSDOF 8
ENDMDL
MODEL 5
REMARK VINA RESULT:      -6.9      0.886      1.705
REMARK  Name = 
REMARK  11 active torsions:
REMARK  status: ('A' for Active; 'I' for Inactive)
REMARK    1  A    between atoms: C_1  and  C_2
REMARK    2  A    between atoms: C_2  and  C_3
REMARK    3  A    between atoms: C_3  and  C_17
REMARK    4  A    between atoms: C_4  and  C_5
REMARK    5  A    between atoms: C_8  and  O_9
REMARK    6  A    between atoms: O_9  and  C_10
REMARK    7  A    between atoms: C_10  and  C_11
REMARK    8  A    between atoms: C_11  and  N_12
REMARK    9  A    between atoms: N_12  and  C_13
REMARK   10  A    between atoms: N_12  and  C_14
REMARK   11  A    between atoms: C_20  and  C_21
REMARK                            x       y       z     vdW  Elec       q    Type
REMARK                         _______ _______ _______ _____ _____    ______ ____
ROOT
ATOM      1  C   UNL     1       3.976   3.998  17.406  0.00  0.00    +0.000 C 
ATOM      2  C   UNL     1       5.274   4.103  17.056  0.00  0.00    +0.000 C 
ENDROOT
BRANCH   2   3
ATOM      3  C   UNL     1       6.202   5.153  17.471  0.00  0.00    +0.000 A 
ATOM      4  C   UNL     1       6.261   6.311  16.697  0.00  0.00    +0.000 A 
ATOM      5  C   UNL     1       7.068   7.374  17.088  0.00  0.00    +0.000 A 
ATOM      6  C   UNL     1       7.822   7.305  18.266  0.00  0.00    +0.000 A 
ATOM      7  C   UNL     1       7.783   6.134  19.027  0.00  0.00    +0.000 A 
ATOM      8  C   UNL     1       6.975   5.055  18.631  0.00  0.00    +0.000 A 
BRANCH   6   9
ATOM      9  O   UNL     1       8.603   8.329  18.754  0.00  0.00    +0.000 OA
BRANCH   9  10
ATOM     10  C   UNL     1       8.323   9.596  18.150  0.00  0.00    +0.000 C 
BRANCH  10  11
ATOM     11  C   UNL     1       9.513  10.558  18.214  0.00  0.00    +0.000 C 
BRANCH  11  12
ATOM     12  N   UNL     1       9.266  11.679  19.150  0.00  0.00    +0.000 NA
ATOM     13  C   UNL     1       9.470  11.303  20.549  0.00  0.00    +0.000 C 
ATOM     14  C   UNL     1      10.114  12.823  18.814  0.00  0.00    +0.000 C 
ENDBRANCH  11  12
ENDBRANCH  10  11
ENDBRANCH   9  10
ENDBRANCH   6   9
ENDBRANCH   2   3
BRANCH   1  15
ATOM     15  C   UNL     1       3.314   5.078  18.168  0.00  0.00    +0.000 A 
ATOM     16  C   UNL     1       2.879   6.229  17.500  0.00  0.00    +0.000 A 
ATOM     17  C   UNL     1       2.348   7.312  18.209  0.00  0.00    +0.000 A 
ATOM     18  C   UNL     1       2.248   7.261  19.605  0.00  0.00    +0.000 A 
ATOM     19  C   UNL     1       2.658   6.095  20.272  0.00  0.00    +0.000 A 
ATOM     20  C   UNL     1       3.185   5.011  19.558  0.00  0.00    +0.000 A 
BRANCH  18  21
ATOM     21  C   UNL     1       1.743   8.396  20.434  0.00  0.00    +0.000 C 
ATOM     22  N   UNL     1       1.773   8.281  21.797  0.00  0.00    +0.000 N 
ATOM     23  O   UNL     1       1.296   9.415  19.922  0.00  0.00    +0.000 OA
ATOM     24  H   UNL     1       2.058   7.461  22.306  0.00  0.00    +0.000 HD
ATOM     25  H   UNL     1       1.378   9.049  22.324  0.00  0.00    +0.000 HD
ENDBRANCH  18  21
ENDBRANCH   1  15
BRANCH   1  27
ATOM     26  C   UNL     1       2.886   1.792  18.186  0.00  0.00    +0.000 C 
ATOM     27  C   UNL     1       3.099   2.810  17.065  0.00  0.00    +0.000 C 
ENDBRANCH   1  27
TORSDOF 8
ENDMDL
MODEL 6
REMARK VINA RESULT:      -6.9      0.956      1.481
REMARK  Name = 
REMARK  11 active torsions:
REMARK  status: ('A' for Active; 'I' for Inactive)
REMARK    1  A    between atoms: C_1  and  C_2
REMARK    2  A    between atoms: C_2  and  C_3
REMARK    3  A    between atoms: C_3  and  C_17
REMARK    4  A    between atoms: C_4  and  C_5
REMARK    5  A    between atoms: C_8  and  O_9
REMARK    6  A    between atoms: O_9  and  C_10
REMARK    7  A    between atoms: C_10  and  C_11
REMARK    8  A    between atoms: C_11  and  N_12
REMARK    9  A    between atoms: N_12  and  C_13
REMARK   10  A    between atoms: N_12  and  C_14
REMARK   11  A    between atoms: C_20  and  C_21
REMARK                            x       y       z     vdW  Elec       q    Type
REMARK                         _______ _______ _______ _____ _____    ______ ____
ROOT
ATOM      1  C   UNL     1       2.874   4.178  17.971  0.00  0.00    +0.000 C 
ATOM      2  C   UNL     1       4.107   4.028  17.448  0.00  0.00    +0.000 C 
ENDROOT
BRANCH   2   3
ATOM      3  C   UNL     1       5.262   4.892  17.689  0.00  0.00    +0.000 A 
ATOM      4  C   UNL     1       5.565   5.855  16.728  0.00  0.00    +0.000 A 
ATOM      5  C   UNL     1       6.604   6.755  16.943  0.00  0.00    +0.000 A 
ATOM      6  C   UNL     1       7.352   6.717  18.126  0.00  0.00    +0.000 A 
ATOM      7  C   UNL     1       7.065   5.734  19.077  0.00  0.00    +0.000 A 
ATOM      8  C   UNL     1       6.021   4.819  18.860  0.00  0.00    +0.000 A 
BRANCH   6   9
ATOM      9  O   UNL     1       8.360   7.601  18.442  0.00  0.00    +0.000 OA
BRANCH   9  10
ATOM     10  C   UNL     1       8.407   8.741  17.577  0.00  0.00    +0.000 C 
BRANCH  10  11
ATOM     11  C   UNL     1       8.250  10.064  18.333  0.00  0.00    +0.000 C 
BRANCH  11  12
ATOM     12  N   UNL     1       9.420  10.951  18.142  0.00  0.00    +0.000 NA
ATOM     13  C   UNL     1       9.039  12.334  17.856  0.00  0.00    +0.000 C 
ATOM     14  C   UNL     1      10.292  10.908  19.315  0.00  0.00    +0.000 C 
ENDBRANCH  11  12
ENDBRANCH  10  11
ENDBRANCH   9  10
ENDBRANCH   6   9
ENDBRANCH   2   3
BRANCH   1  15
ATOM     15  C   UNL     1       2.534   5.378  18.764  0.00  0.00    +0.000 A 
ATOM     16  C   UNL     1       2.182   5.239  20.112  0.00  0.00    +0.000 A 
ATOM     17  C   UNL     1       1.751   6.343  20.858  0.00  0.00    +0.000 A 
ATOM     18  C   UNL     1       1.664   7.607  20.262  0.00  0.00    +0.000 A 
ATOM     19  C   UNL     1       2.045   7.751  18.918  0.00  0.00    +0.000 A 
ATOM     20  C   UNL     1       2.479   6.644  18.176  0.00  0.00    +0.000 A 
BRANCH  18  21
ATOM     21  C   UNL     1       1.163   8.819  20.976  0.00  0.00    +0.000 C 
ATOM     22  N   UNL     1       0.585   9.822  20.247  0.00  0.00    +0.000 N 
ATOM     23  O   UNL     1       1.268   8.935  22.191  0.00  0.00    +0.000 OA
ATOM     24  H   UNL     1       0.515   9.847  19.244  0.00  0.00    +0.000 HD
ATOM     25  H   UNL     1       0.303  10.647  20.761  0.00  0.00    +0.000 HD
ENDBRANCH  18  21
ENDBRANCH   1  15
BRANCH   1  27
ATOM     26  C   UNL     1       1.681   2.068  18.859  0.00  0.00    +0.000 C 
ATOM     27  C   UNL     1       1.754   3.170  17.802  0.00  0.00    +0.000 C 
ENDBRANCH   1  27
TORSDOF 8
ENDMDL
MODEL 7
REMARK VINA RESULT:      -6.8      1.099      1.612
REMARK  Name = 
REMARK  11 active torsions:
REMARK  status: ('A' for Active; 'I' for Inactive)
REMARK    1  A    between atoms: C_1  and  C_2
REMARK    2  A    between atoms: C_2  and  C_3
REMARK    3  A    between atoms: C_3  and  C_17
REMARK    4  A    between atoms: C_4  and  C_5
REMARK    5  A    between atoms: C_8  and  O_9
REMARK    6  A    between atoms: O_9  and  C_10
REMARK    7  A    between atoms: C_10  and  C_11
REMARK    8  A    between atoms: C_11  and  N_12
REMARK    9  A    between atoms: N_12  and  C_13
REMARK   10  A    between atoms: N_12  and  C_14
REMARK   11  A    between atoms: C_20  and  C_21
REMARK                            x       y       z     vdW  Elec       q    Type
REMARK                         _______ _______ _______ _____ _____    ______ ____
ROOT
ATOM      1  C   UNL     1       3.183   3.499  18.239  0.00  0.00    +0.000 C 
ATOM      2  C   UNL     1       4.341   3.562  17.552  0.00  0.00    +0.000 C 
ENDROOT
BRANCH   2   3
ATOM      3  C   UNL     1       5.234   4.716  17.460  0.00  0.00    +0.000 A 
ATOM      4  C   UNL     1       6.185   4.884  18.466  0.00  0.00    +0.000 A 
ATOM      5  C   UNL     1       7.110   5.919  18.387  0.00  0.00    +0.000 A 
ATOM      6  C   UNL     1       7.111   6.799  17.298  0.00  0.00    +0.000 A 
ATOM      7  C   UNL     1       6.141   6.646  16.304  0.00  0.00    +0.000 A 
ATOM      8  C   UNL     1       5.199   5.606  16.383  0.00  0.00    +0.000 A 
BRANCH   6   9
ATOM      9  O   UNL     1       8.023   7.815  17.115  0.00  0.00    +0.000 OA
BRANCH   9  10
ATOM     10  C   UNL     1       8.372   8.491  18.328  0.00  0.00    +0.000 C 
BRANCH  10  11
ATOM     11  C   UNL     1       8.488  10.007  18.148  0.00  0.00    +0.000 C 
BRANCH  11  12
ATOM     12  N   UNL     1       9.691  10.552  18.818  0.00  0.00    +0.000 NA
ATOM     13  C   UNL     1      10.438  11.481  17.970  0.00  0.00    +0.000 C 
ATOM     14  C   UNL     1       9.325  11.208  20.073  0.00  0.00    +0.000 C 
ENDBRANCH  11  12
ENDBRANCH  10  11
ENDBRANCH   9  10
ENDBRANCH   6   9
ENDBRANCH   2   3
BRANCH   1  15
ATOM     15  C   UNL     1       2.619   4.710  18.874  0.00  0.00    +0.000 A 
ATOM     16  C   UNL     1       2.339   5.835  18.090  0.00  0.00    +0.000 A 
ATOM     17  C   UNL     1       1.909   7.030  18.679  0.00  0.00    +0.000 A 
ATOM     18  C   UNL     1       1.754   7.116  20.068  0.00  0.00    +0.000 A 
ATOM     19  C   UNL     1       2.007   5.979  20.851  0.00  0.00    +0.000 A 
ATOM     20  C   UNL     1       2.435   4.784  20.257  0.00  0.00    +0.000 A 
BRANCH  18  21
ATOM     21  C   UNL     1       1.351   8.370  20.772  0.00  0.00    +0.000 C 
ATOM     22  N   UNL     1       0.955   9.447  20.026  0.00  0.00    +0.000 N 
ATOM     23  O   UNL     1       1.377   8.455  21.994  0.00  0.00    +0.000 OA
ATOM     24  H   UNL     1       0.964   9.494  19.022  0.00  0.00    +0.000 HD
ATOM     25  H   UNL     1       0.737  10.293  20.537  0.00  0.00    +0.000 HD
ENDBRANCH  18  21
ENDBRANCH   1  15
BRANCH   1  27
ATOM     26  C   UNL     1       0.872   2.423  18.645  0.00  0.00    +0.000 C 
ATOM     27  C   UNL     1       2.372   2.231  18.419  0.00  0.00    +0.000 C 
ENDBRANCH   1  27
TORSDOF 8
ENDMDL
MODEL 8
REMARK VINA RESULT:      -6.7      3.928      7.013
REMARK  Name = 
REMARK  11 active torsions:
REMARK  status: ('A' for Active; 'I' for Inactive)
REMARK    1  A    between atoms: C_1  and  C_2
REMARK    2  A    between atoms: C_2  and  C_3
REMARK    3  A    between atoms: C_3  and  C_17
REMARK    4  A    between atoms: C_4  and  C_5
REMARK    5  A    between atoms: C_8  and  O_9
REMARK    6  A    between atoms: O_9  and  C_10
REMARK    7  A    between atoms: C_10  and  C_11
REMARK    8  A    between atoms: C_11  and  N_12
REMARK    9  A    between atoms: N_12  and  C_13
REMARK   10  A    between atoms: N_12  and  C_14
REMARK   11  A    between atoms: C_20  and  C_21
REMARK                            x       y       z     vdW  Elec       q    Type
REMARK                         _______ _______ _______ _____ _____    ______ ____
ROOT
ATOM      1  C   UNL     1       2.823   4.169  20.241  0.00  0.00    +0.000 C 
ATOM      2  C   UNL     1       2.091   5.221  20.657  0.00  0.00    +0.000 C 
ENDROOT
BRANCH   2   3
ATOM      3  C   UNL     1       2.018   6.535  20.019  0.00  0.00    +0.000 A 
ATOM      4  C   UNL     1       2.306   6.611  18.657  0.00  0.00    +0.000 A 
ATOM      5  C   UNL     1       2.176   7.820  17.982  0.00  0.00    +0.000 A 
ATOM      6  C   UNL     1       1.746   8.972  18.651  0.00  0.00    +0.000 A 
ATOM      7  C   UNL     1       1.484   8.901  20.022  0.00  0.00    +0.000 A 
ATOM      8  C   UNL     1       1.621   7.683  20.709  0.00  0.00    +0.000 A 
BRANCH   6   9
ATOM      9  O   UNL     1       1.540  10.194  18.049  0.00  0.00    +0.000 OA
BRANCH   9  10
ATOM     10  C   UNL     1       0.712  11.073  18.818  0.00  0.00    +0.000 C 
BRANCH  10  11
ATOM     11  C   UNL     1      -0.739  11.100  18.325  0.00  0.00    +0.000 C 
BRANCH  11  12
ATOM     12  N   UNL     1      -1.372  12.421  18.548  0.00  0.00    +0.000 NA
ATOM     13  C   UNL     1      -2.060  12.506  19.837  0.00  0.00    +0.000 C 
ATOM     14  C   UNL     1      -0.378  13.489  18.443  0.00  0.00    +0.000 C 
ENDBRANCH  11  12
ENDBRANCH  10  11
ENDBRANCH   9  10
ENDBRANCH   6   9
ENDBRANCH   2   3
BRANCH   1  15
ATOM     15  C   UNL     1       3.777   4.314  19.121  0.00  0.00    +0.000 A 
ATOM     16  C   UNL     1       3.428   3.839  17.851  0.00  0.00    +0.000 A 
ATOM     17  C   UNL     1       4.351   3.863  16.798  0.00  0.00    +0.000 A 
ATOM     18  C   UNL     1       5.643   4.363  17.004  0.00  0.00    +0.000 A 
ATOM     19  C   UNL     1       5.983   4.865  18.270  0.00  0.00    +0.000 A 
ATOM     20  C   UNL     1       5.055   4.842  19.320  0.00  0.00    +0.000 A 
BRANCH  18  21
ATOM     21  C   UNL     1       6.698   4.372  15.946  0.00  0.00    +0.000 C 
ATOM     22  N   UNL     1       6.337   4.105  14.654  0.00  0.00    +0.000 N 
ATOM     23  O   UNL     1       7.871   4.601  16.213  0.00  0.00    +0.000 OA
ATOM     24  H   UNL     1       5.415   3.841  14.349  0.00  0.00    +0.000 HD
ATOM     25  H   UNL     1       7.086   4.072  13.974  0.00  0.00    +0.000 HD
ENDBRANCH  18  21
ENDBRANCH   1  15
BRANCH   1  27
ATOM     26  C   UNL     1       1.528   2.513  21.739  0.00  0.00    +0.000 C 
ATOM     27  C   UNL     1       2.747   2.786  20.858  0.00  0.00    +0.000 C 
ENDBRANCH   1  27
TORSDOF 8
ENDMDL
MODEL 9
REMARK VINA RESULT:      -6.7      3.662      6.993
REMARK  Name = 
REMARK  11 active torsions:
REMARK  status: ('A' for Active; 'I' for Inactive)
REMARK    1  A    between atoms: C_1  and  C_2
REMARK    2  A    between atoms: C_2  and  C_3
REMARK    3  A    between atoms: C_3  and  C_17
REMARK    4  A    between atoms: C_4  and  C_5
REMARK    5  A    between atoms: C_8  and  O_9
REMARK    6  A    between atoms: O_9  and  C_10
REMARK    7  A    between atoms: C_10  and  C_11
REMARK    8  A    between atoms: C_11  and  N_12
REMARK    9  A    between atoms: N_12  and  C_13
REMARK   10  A    between atoms: N_12  and  C_14
REMARK   11  A    between atoms: C_20  and  C_21
REMARK                            x       y       z     vdW  Elec       q    Type
REMARK                         _______ _______ _______ _____ _____    ______ ____
ROOT
ATOM      1  C   UNL     1       2.649   4.319  20.073  0.00  0.00    +0.000 C 
ATOM      2  C   UNL     1       1.841   5.324  20.462  0.00  0.00    +0.000 C 
ENDROOT
BRANCH   2   3
ATOM      3  C   UNL     1       1.762   6.656  19.862  0.00  0.00    +0.000 A 
ATOM      4  C   UNL     1       1.439   7.725  20.696  0.00  0.00    +0.000 A 
ATOM      5  C   UNL     1       1.427   9.023  20.196  0.00  0.00    +0.000 A 
ATOM      6  C   UNL     1       1.748   9.278  18.858  0.00  0.00    +0.000 A 
ATOM      7  C   UNL     1       2.045   8.203  18.016  0.00  0.00    +0.000 A 
ATOM      8  C   UNL     1       2.051   6.890  18.516  0.00  0.00    +0.000 A 
BRANCH   6   9
ATOM      9  O   UNL     1       1.812  10.534  18.295  0.00  0.00    +0.000 OA
BRANCH   9  10
ATOM     10  C   UNL     1       1.025  11.508  18.988  0.00  0.00    +0.000 C 
BRANCH  10  11
ATOM     11  C   UNL     1      -0.396  11.628  18.429  0.00  0.00    +0.000 C 
BRANCH  11  12
ATOM     12  N   UNL     1      -1.420  11.344  19.461  0.00  0.00    +0.000 NA
ATOM     13  C   UNL     1      -1.038  11.835  20.785  0.00  0.00    +0.000 C 
ATOM     14  C   UNL     1      -2.709  11.915  19.072  0.00  0.00    +0.000 C 
ENDBRANCH  11  12
ENDBRANCH  10  11
ENDBRANCH   9  10
ENDBRANCH   6   9
ENDBRANCH   2   3
BRANCH   1  15
ATOM     15  C   UNL     1       3.682   4.542  19.038  0.00  0.00    +0.000 A 
ATOM     16  C   UNL     1       3.462   4.087  17.733  0.00  0.00    +0.000 A 
ATOM     17  C   UNL     1       4.464   4.187  16.760  0.00  0.00    +0.000 A 
ATOM     18  C   UNL     1       5.708   4.745  17.083  0.00  0.00    +0.000 A 
ATOM     19  C   UNL     1       5.917   5.227  18.385  0.00  0.00    +0.000 A 
ATOM     20  C   UNL     1       4.910   5.128  19.354  0.00  0.00    +0.000 A 
BRANCH  18  21
ATOM     21  C   UNL     1       6.842   4.836  16.116  0.00  0.00    +0.000 C 
ATOM     22  N   UNL     1       6.606   5.349  14.870  0.00  0.00    +0.000 N 
ATOM     23  O   UNL     1       7.968   4.455  16.411  0.00  0.00    +0.000 OA
ATOM     24  H   UNL     1       5.706   5.624  14.514  0.00  0.00    +0.000 HD
ATOM     25  H   UNL     1       7.387   5.349  14.227  0.00  0.00    +0.000 HD
ENDBRANCH  18  21
ENDBRANCH   1  15
BRANCH   1  27
ATOM     26  C   UNL     1       1.524   2.670  21.710  0.00  0.00    +0.000 C 
ATOM     27  C   UNL     1       2.586   2.913  20.636  0.00  0.00    +0.000 C 
ENDBRANCH   1  27
TORSDOF 8
ENDMDL
