MODEL 1
REMARK VINA RESULT:      -5.9      0.000      0.000
REMARK  Name = 
REMARK  3 active torsions:
REMARK  status: ('A' for Active; 'I' for Inactive)
REMARK    1  A    between atoms: N_1  and  S_2
REMARK    2  A    between atoms: S_2  and  C_5
REMARK    3  A    between atoms: C_5  and  C_6
REMARK                            x       y       z     vdW  Elec       q    Type
REMARK                         _______ _______ _______ _____ _____    ______ ____
ROOT
ATOM      1  C   UNL     1       4.951   5.699  17.860  0.00  0.00    +0.000 A 
ATOM      2  C   UNL     1       3.660   5.752  17.316  0.00  0.00    +0.000 A 
ATOM      3  C   UNL     1       2.562   5.315  18.063  0.00  0.00    +0.000 A 
ATOM      4  C   UNL     1       2.749   4.829  19.358  0.00  0.00    +0.000 A 
ATOM      5 BR   UNL     1       1.266   4.208  20.350  0.00  0.00    +0.000 Br
ATOM      6  C   UNL     1       4.022   4.790  19.919  0.00  0.00    +0.000 A 
ATOM      7  C   UNL     1       5.107   5.228  19.166  0.00  0.00    +0.000 A 
ATOM      8  F   UNL     1       6.332   5.165  19.706  0.00  0.00    +0.000 F 
ENDROOT
BRANCH   1   9
ATOM      9  C   UNL     1       6.152   6.118  17.059  0.00  0.00    +0.000 C 
BRANCH   9  10
ATOM     10  S   UNL     1       6.924   4.672  16.329  0.00  0.00    +0.000 S 
ATOM     11  O   UNL     1       5.934   3.734  15.856  0.00  0.00    +0.000 OA
ATOM     12  O   UNL     1       8.063   4.260  17.118  0.00  0.00    +0.000 OA
BRANCH  10  13
ATOM     13  N   UNL     1       7.600   5.333  14.933  0.00  0.00    +0.000 NA
ATOM     14  H   UNL     1       8.382   5.940  15.188  0.00  0.00    +0.000 HD
ATOM     15  H   UNL     1       6.881   5.811  14.387  0.00  0.00    +0.000 HD
ENDBRANCH  10  13
ENDBRANCH   9  10
ENDBRANCH   1   9
TORSDOF 3
ENDMDL
MODEL 2
REMARK VINA RESULT:      -5.9      0.984      1.213
REMARK  Name = 
REMARK  3 active torsions:
REMARK  status: ('A' for Active; 'I' for Inactive)
REMARK    1  A    between atoms: N_1  and  S_2
REMARK    2  A    between atoms: S_2  and  C_5
REMARK    3  A    between atoms: C_5  and  C_6
REMARK                            x       y       z     vdW  Elec       q    Type
REMARK                         _______ _______ _______ _____ _____    ______ ____
ROOT
ATOM      1  C   UNL     1       4.946   5.777  17.923  0.00  0.00    +0.000 A 
ATOM      2  C   UNL     1       3.664   5.877  17.362  0.00  0.00    +0.000 A 
ATOM      3  C   UNL     1       2.551   5.401  18.061  0.00  0.00    +0.000 A 
ATOM      4  C   UNL     1       2.713   4.831  19.324  0.00  0.00    +0.000 A 
ATOM      5 BR   UNL     1       1.209   4.158  20.249  0.00  0.00    +0.000 Br
ATOM      6  C   UNL     1       3.976   4.744  19.902  0.00  0.00    +0.000 A 
ATOM      7  C   UNL     1       5.077   5.221  19.198  0.00  0.00    +0.000 A 
ATOM      8  F   UNL     1       6.292   5.112  19.752  0.00  0.00    +0.000 F 
ENDROOT
BRANCH   1   9
ATOM      9  C   UNL     1       6.164   6.237  17.171  0.00  0.00    +0.000 C 
BRANCH   9  10
ATOM     10  S   UNL     1       6.800   4.890  16.172  0.00  0.00    +0.000 S 
ATOM     11  O   UNL     1       7.549   5.386  15.042  0.00  0.00    +0.000 OA
ATOM     12  O   UNL     1       5.805   3.849  16.041  0.00  0.00    +0.000 OA
BRANCH  10  13
ATOM     13  N   UNL     1       7.957   4.234  17.207  0.00  0.00    +0.000 NA
ATOM     14  H   UNL     1       8.747   4.877  17.287  0.00  0.00    +0.000 HD
ATOM     15  H   UNL     1       8.227   3.302  16.888  0.00  0.00    +0.000 HD
ENDBRANCH  10  13
ENDBRANCH   9  10
ENDBRANCH   1   9
TORSDOF 3
ENDMDL
MODEL 3
REMARK VINA RESULT:      -5.9      1.661      2.084
REMARK  Name = 
REMARK  3 active torsions:
REMARK  status: ('A' for Active; 'I' for Inactive)
REMARK    1  A    between atoms: N_1  and  S_2
REMARK    2  A    between atoms: S_2  and  C_5
REMARK    3  A    between atoms: C_5  and  C_6
REMARK                            x       y       z     vdW  Elec       q    Type
REMARK                         _______ _______ _______ _____ _____    ______ ____
ROOT
ATOM      1  C   UNL     1       4.779   4.705  18.405  0.00  0.00    +0.000 A 
ATOM      2  C   UNL     1       4.709   3.501  19.121  0.00  0.00    +0.000 A 
ATOM      3  C   UNL     1       3.482   2.854  19.292  0.00  0.00    +0.000 A 
ATOM      4  C   UNL     1       2.322   3.404  18.745  0.00  0.00    +0.000 A 
ATOM      5 BR   UNL     1       0.661   2.543  19.010  0.00  0.00    +0.000 Br
ATOM      6  C   UNL     1       2.379   4.586  18.015  0.00  0.00    +0.000 A 
ATOM      7  C   UNL     1       3.606   5.222  17.850  0.00  0.00    +0.000 A 
ATOM      8  F   UNL     1       3.648   6.373  17.165  0.00  0.00    +0.000 F 
ENDROOT
BRANCH   1   9
ATOM      9  C   UNL     1       6.079   5.444  18.248  0.00  0.00    +0.000 C 
BRANCH   9  10
ATOM     10  S   UNL     1       7.028   4.717  16.910  0.00  0.00    +0.000 S 
ATOM     11  O   UNL     1       6.178   3.967  16.015  0.00  0.00    +0.000 OA
ATOM     12  O   UNL     1       8.278   4.190  17.411  0.00  0.00    +0.000 OA
BRANCH  10  13
ATOM     13  N   UNL     1       7.471   6.091  16.041  0.00  0.00    +0.000 NA
ATOM     14  H   UNL     1       7.046   6.916  16.468  0.00  0.00    +0.000 HD
ATOM     15  H   UNL     1       7.228   5.977  15.055  0.00  0.00    +0.000 HD
ENDBRANCH  10  13
ENDBRANCH   9  10
ENDBRANCH   1   9
TORSDOF 3
ENDMDL
MODEL 4
REMARK VINA RESULT:      -5.8      2.288      2.509
REMARK  Name = 
REMARK  3 active torsions:
REMARK  status: ('A' for Active; 'I' for Inactive)
REMARK    1  A    between atoms: N_1  and  S_2
REMARK    2  A    between atoms: S_2  and  C_5
REMARK    3  A    between atoms: C_5  and  C_6
REMARK                            x       y       z     vdW  Elec       q    Type
REMARK                         _______ _______ _______ _____ _____    ______ ____
ROOT
ATOM      1  C   UNL     1       4.582   5.061  17.502  0.00  0.00    +0.000 A 
ATOM      2  C   UNL     1       4.521   3.679  17.273  0.00  0.00    +0.000 A 
ATOM      3  C   UNL     1       3.390   2.951  17.657  0.00  0.00    +0.000 A 
ATOM      4  C   UNL     1       2.316   3.602  18.265  0.00  0.00    +0.000 A 
ATOM      5 BR   UNL     1       0.806   2.608  18.813  0.00  0.00    +0.000 Br
ATOM      6  C   UNL     1       2.354   4.977  18.478  0.00  0.00    +0.000 A 
ATOM      7  C   UNL     1       3.484   5.691  18.092  0.00  0.00    +0.000 A 
ATOM      8  F   UNL     1       3.522   7.010  18.323  0.00  0.00    +0.000 F 
ENDROOT
BRANCH   1   9
ATOM      9  C   UNL     1       5.806   5.856  17.142  0.00  0.00    +0.000 C 
BRANCH   9  10
ATOM     10  S   UNL     1       7.050   5.661  18.420  0.00  0.00    +0.000 S 
ATOM     11  O   UNL     1       6.466   5.173  19.646  0.00  0.00    +0.000 OA
ATOM     12  O   UNL     1       7.974   6.773  18.394  0.00  0.00    +0.000 OA
BRANCH  10  13
ATOM     13  N   UNL     1       7.940   4.364  17.814  0.00  0.00    +0.000 NA
ATOM     14  H   UNL     1       7.961   4.413  16.793  0.00  0.00    +0.000 HD
ATOM     15  H   UNL     1       7.563   3.483  18.168  0.00  0.00    +0.000 HD
ENDBRANCH  10  13
ENDBRANCH   9  10
ENDBRANCH   1   9
TORSDOF 3
ENDMDL
MODEL 5
REMARK VINA RESULT:      -5.8      1.791      2.030
REMARK  Name = 
REMARK  3 active torsions:
REMARK  status: ('A' for Active; 'I' for Inactive)
REMARK    1  A    between atoms: N_1  and  S_2
REMARK    2  A    between atoms: S_2  and  C_5
REMARK    3  A    between atoms: C_5  and  C_6
REMARK                            x       y       z     vdW  Elec       q    Type
REMARK                         _______ _______ _______ _____ _____    ______ ____
ROOT
ATOM      1  C   UNL     1       4.283   5.104  17.048  0.00  0.00    +0.000 A 
ATOM      2  C   UNL     1       4.007   3.731  17.132  0.00  0.00    +0.000 A 
ATOM      3  C   UNL     1       3.016   3.263  17.999  0.00  0.00    +0.000 A 
ATOM      4  C   UNL     1       2.293   4.164  18.781  0.00  0.00    +0.000 A 
ATOM      5 BR   UNL     1       0.978   3.523  19.977  0.00  0.00    +0.000 Br
ATOM      6  C   UNL     1       2.540   5.530  18.693  0.00  0.00    +0.000 A 
ATOM      7  C   UNL     1       3.528   5.985  17.826  0.00  0.00    +0.000 A 
ATOM      8  F   UNL     1       3.776   7.301  17.766  0.00  0.00    +0.000 F 
ENDROOT
BRANCH   1   9
ATOM      9  C   UNL     1       5.376   5.627  16.159  0.00  0.00    +0.000 C 
BRANCH   9  10
ATOM     10  S   UNL     1       6.957   5.476  16.994  0.00  0.00    +0.000 S 
ATOM     11  O   UNL     1       7.821   4.542  16.313  0.00  0.00    +0.000 OA
ATOM     12  O   UNL     1       6.765   5.446  18.427  0.00  0.00    +0.000 OA
BRANCH  10  13
ATOM     13  N   UNL     1       7.630   6.992  16.694  0.00  0.00    +0.000 NA
ATOM     14  H   UNL     1       8.012   7.013  15.747  0.00  0.00    +0.000 HD
ATOM     15  H   UNL     1       8.320   7.218  17.412  0.00  0.00    +0.000 HD
ENDBRANCH  10  13
ENDBRANCH   9  10
ENDBRANCH   1   9
TORSDOF 3
ENDMDL
MODEL 6
REMARK VINA RESULT:      -5.8      2.047      2.218
REMARK  Name = 
REMARK  3 active torsions:
REMARK  status: ('A' for Active; 'I' for Inactive)
REMARK    1  A    between atoms: N_1  and  S_2
REMARK    2  A    between atoms: S_2  and  C_5
REMARK    3  A    between atoms: C_5  and  C_6
REMARK                            x       y       z     vdW  Elec       q    Type
REMARK                         _______ _______ _______ _____ _____    ______ ____
ROOT
ATOM      1  C   UNL     1       4.331   5.241  17.108  0.00  0.00    +0.000 A 
ATOM      2  C   UNL     1       4.135   3.868  17.312  0.00  0.00    +0.000 A 
ATOM      3  C   UNL     1       3.149   3.422  18.197  0.00  0.00    +0.000 A 
ATOM      4  C   UNL     1       2.354   4.344  18.877  0.00  0.00    +0.000 A 
ATOM      5 BR   UNL     1       1.048   3.736  20.099  0.00  0.00    +0.000 Br
ATOM      6  C   UNL     1       2.523   5.709  18.669  0.00  0.00    +0.000 A 
ATOM      7  C   UNL     1       3.506   6.143  17.785  0.00  0.00    +0.000 A 
ATOM      8  F   UNL     1       3.678   7.460  17.608  0.00  0.00    +0.000 F 
ENDROOT
BRANCH   1   9
ATOM      9  C   UNL     1       5.416   5.746  16.197  0.00  0.00    +0.000 C 
BRANCH   9  10
ATOM     10  S   UNL     1       6.942   5.933  17.122  0.00  0.00    +0.000 S 
ATOM     11  O   UNL     1       6.709   5.812  18.542  0.00  0.00    +0.000 OA
ATOM     12  O   UNL     1       7.742   6.997  16.559  0.00  0.00    +0.000 OA
BRANCH  10  13
ATOM     13  N   UNL     1       7.758   4.523  16.692  0.00  0.00    +0.000 NA
ATOM     14  H   UNL     1       7.971   3.982  17.533  0.00  0.00    +0.000 HD
ATOM     15  H   UNL     1       8.587   4.751  16.139  0.00  0.00    +0.000 HD
ENDBRANCH  10  13
ENDBRANCH   9  10
ENDBRANCH   1   9
TORSDOF 3
ENDMDL
MODEL 7
REMARK VINA RESULT:      -5.8      1.779      2.046
REMARK  Name = 
REMARK  3 active torsions:
REMARK  status: ('A' for Active; 'I' for Inactive)
REMARK    1  A    between atoms: N_1  and  S_2
REMARK    2  A    between atoms: S_2  and  C_5
REMARK    3  A    between atoms: C_5  and  C_6
REMARK                            x       y       z     vdW  Elec       q    Type
REMARK                         _______ _______ _______ _____ _____    ______ ____
ROOT
ATOM      1  C   UNL     1       4.463   4.849  16.942  0.00  0.00    +0.000 A 
ATOM      2  C   UNL     1       4.294   3.580  17.514  0.00  0.00    +0.000 A 
ATOM      3  C   UNL     1       3.546   3.429  18.686  0.00  0.00    +0.000 A 
ATOM      4  C   UNL     1       2.959   4.544  19.286  0.00  0.00    +0.000 A 
ATOM      5 BR   UNL     1       1.978   4.339  20.887  0.00  0.00    +0.000 Br
ATOM      6  C   UNL     1       3.100   5.806  18.718  0.00  0.00    +0.000 A 
ATOM      7  C   UNL     1       3.847   5.944  17.552  0.00  0.00    +0.000 A 
ATOM      8  F   UNL     1       3.997   7.167  17.025  0.00  0.00    +0.000 F 
ENDROOT
BRANCH   1   9
ATOM      9  C   UNL     1       5.303   5.043  15.711  0.00  0.00    +0.000 C 
BRANCH   9  10
ATOM     10  S   UNL     1       6.980   5.471  16.185  0.00  0.00    +0.000 S 
ATOM     11  O   UNL     1       7.591   4.412  16.952  0.00  0.00    +0.000 OA
ATOM     12  O   UNL     1       7.046   6.857  16.592  0.00  0.00    +0.000 OA
BRANCH  10  13
ATOM     13  N   UNL     1       7.760   5.436  14.692  0.00  0.00    +0.000 NA
ATOM     14  H   UNL     1       8.758   5.608  14.825  0.00  0.00    +0.000 HD
ATOM     15  H   UNL     1       7.319   6.097  14.049  0.00  0.00    +0.000 HD
ENDBRANCH  10  13
ENDBRANCH   9  10
ENDBRANCH   1   9
TORSDOF 3
ENDMDL
MODEL 8
REMARK VINA RESULT:      -5.8      1.895      2.412
REMARK  Name = 
REMARK  3 active torsions:
REMARK  status: ('A' for Active; 'I' for Inactive)
REMARK    1  A    between atoms: N_1  and  S_2
REMARK    2  A    between atoms: S_2  and  C_5
REMARK    3  A    between atoms: C_5  and  C_6
REMARK                            x       y       z     vdW  Elec       q    Type
REMARK                         _______ _______ _______ _____ _____    ______ ____
ROOT
ATOM      1  C   UNL     1       4.753   4.931  18.383  0.00  0.00    +0.000 A 
ATOM      2  C   UNL     1       4.768   3.672  19.000  0.00  0.00    +0.000 A 
ATOM      3  C   UNL     1       3.580   2.954  19.163  0.00  0.00    +0.000 A 
ATOM      4  C   UNL     1       2.375   3.487  18.706  0.00  0.00    +0.000 A 
ATOM      5 BR   UNL     1       0.768   2.527  18.961  0.00  0.00    +0.000 Br
ATOM      6  C   UNL     1       2.348   4.725  18.072  0.00  0.00    +0.000 A 
ATOM      7  C   UNL     1       3.536   5.432  17.915  0.00  0.00    +0.000 A 
ATOM      8  F   UNL     1       3.497   6.634  17.324  0.00  0.00    +0.000 F 
ENDROOT
BRANCH   1   9
ATOM      9  C   UNL     1       6.010   5.744  18.239  0.00  0.00    +0.000 C 
BRANCH   9  10
ATOM     10  S   UNL     1       6.852   5.287  16.721  0.00  0.00    +0.000 S 
ATOM     11  O   UNL     1       7.610   6.396  16.191  0.00  0.00    +0.000 OA
ATOM     12  O   UNL     1       5.988   4.477  15.893  0.00  0.00    +0.000 OA
BRANCH  10  13
ATOM     13  N   UNL     1       8.008   4.207  17.302  0.00  0.00    +0.000 NA
ATOM     14  H   UNL     1       7.896   3.305  16.836  0.00  0.00    +0.000 HD
ATOM     15  H   UNL     1       7.951   4.145  18.321  0.00  0.00    +0.000 HD
ENDBRANCH  10  13
ENDBRANCH   9  10
ENDBRANCH   1   9
TORSDOF 3
ENDMDL
MODEL 9
REMARK VINA RESULT:      -5.8      1.470      1.772
REMARK  Name = 
REMARK  3 active torsions:
REMARK  status: ('A' for Active; 'I' for Inactive)
REMARK    1  A    between atoms: N_1  and  S_2
REMARK    2  A    between atoms: S_2  and  C_5
REMARK    3  A    between atoms: C_5  and  C_6
REMARK                            x       y       z     vdW  Elec       q    Type
REMARK                         _______ _______ _______ _____ _____    ______ ____
ROOT
ATOM      1  C   UNL     1       5.094   4.300  17.572  0.00  0.00    +0.000 A 
ATOM      2  C   UNL     1       3.891   3.758  17.096  0.00  0.00    +0.000 A 
ATOM      3  C   UNL     1       2.743   3.785  17.892  0.00  0.00    +0.000 A 
ATOM      4  C   UNL     1       2.790   4.358  19.163  0.00  0.00    +0.000 A 
ATOM      5 BR   UNL     1       1.243   4.360  20.248  0.00  0.00    +0.000 Br
ATOM      6  C   UNL     1       3.971   4.918  19.641  0.00  0.00    +0.000 A 
ATOM      7  C   UNL     1       5.108   4.886  18.840  0.00  0.00    +0.000 A 
ATOM      8  F   UNL     1       6.246   5.407  19.317  0.00  0.00    +0.000 F 
ENDROOT
BRANCH   1   9
ATOM      9  C   UNL     1       6.354   4.240  16.754  0.00  0.00    +0.000 C 
BRANCH   9  10
ATOM     10  S   UNL     1       6.636   5.826  15.964  0.00  0.00    +0.000 S 
ATOM     11  O   UNL     1       7.564   6.630  16.724  0.00  0.00    +0.000 OA
ATOM     12  O   UNL     1       5.393   6.358  15.451  0.00  0.00    +0.000 OA
BRANCH  10  13
ATOM     13  N   UNL     1       7.490   5.358  14.588  0.00  0.00    +0.000 NA
ATOM     14  H   UNL     1       6.876   5.409  13.773  0.00  0.00    +0.000 HD
ATOM     15  H   UNL     1       7.900   4.432  14.727  0.00  0.00    +0.000 HD
ENDBRANCH  10  13
ENDBRANCH   9  10
ENDBRANCH   1   9
TORSDOF 3
ENDMDL
