MODEL 1
REMARK VINA RESULT:      -7.6      0.000      0.000
REMARK  Name = 
REMARK  11 active torsions:
REMARK  status: ('A' for Active; 'I' for Inactive)
REMARK    1  A    between atoms: C_1  and  O_2
REMARK    2  A    between atoms: O_2  and  C_3
REMARK    3  A    between atoms: C_5  and  C_6
REMARK    4  A    between atoms: C_7  and  C_8
REMARK    5  A    between atoms: C_8  and  C_10
REMARK    6  A    between atoms: C_11  and  O_12
REMARK    7  A    between atoms: C_14  and  C_15
REMARK    8  A    between atoms: C_20  and  O_21
REMARK    9  A    between atoms: O_21  and  C_22
REMARK   10  A    between atoms: C_23  and  O_24
REMARK   11  A    between atoms: O_24  and  C_25
REMARK                            x       y       z     vdW  Elec       q    Type
REMARK                         _______ _______ _______ _____ _____    ______ ____
ROOT
ATOM      1  C   UNL     1       8.154   9.170  17.822  0.00  0.00    +0.000 C 
ATOM      2  C   UNL     1       8.181   7.871  18.162  0.00  0.00    +0.000 C 
ENDROOT
BRANCH   1   5
ATOM      3  C   UNL     1       9.724  11.442  20.457  0.00  0.00    +0.000 A 
ATOM      4  C   UNL     1       8.835  10.546  19.825  0.00  0.00    +0.000 A 
ATOM      5  C   UNL     1       8.956  10.227  18.471  0.00  0.00    +0.000 A 
ATOM      6  C   UNL     1       9.958  10.869  17.744  0.00  0.00    +0.000 A 
ATOM      7  C   UNL     1      10.808  11.828  18.332  0.00  0.00    +0.000 A 
ATOM      8  C   UNL     1      10.692  12.137  19.704  0.00  0.00    +0.000 A 
BRANCH   3  10
ATOM      9  C   UNL     1       8.437  12.298  22.251  0.00  0.00    +0.000 C 
ATOM     10  O   UNL     1       9.633  11.646  21.814  0.00  0.00    +0.000 OA
ENDBRANCH   3  10
BRANCH   7  11
ATOM     11  O   UNL     1      11.699  12.329  17.412  0.00  0.00    +0.000 OA
ATOM     12  C   UNL     1      11.352  13.470  16.641  0.00  0.00    +0.000 C 
ENDBRANCH   7  11
BRANCH   8  13
ATOM     13  O   UNL     1      11.539  13.104  20.173  0.00  0.00    +0.000 OA
ATOM     14  C   UNL     1      11.145  14.462  20.261  0.00  0.00    +0.000 C 
ENDBRANCH   8  13
ENDBRANCH   1   5
BRANCH   2  15
ATOM     15  C   UNL     1       7.412   6.853  17.393  0.00  0.00    +0.000 C 
ATOM     16  O   UNL     1       7.730   6.537  16.246  0.00  0.00    +0.000 OA
BRANCH  15  17
ATOM     17  C   UNL     1       6.189   6.280  18.029  0.00  0.00    +0.000 A 
ATOM     18  C   UNL     1       5.007   6.408  17.393  0.00  0.00    +0.000 A 
ATOM     19  C   UNL     1       3.783   5.927  17.968  0.00  0.00    +0.000 A 
ATOM     20  C   UNL     1       3.813   5.299  19.147  0.00  0.00    +0.000 A 
ATOM     21  C   UNL     1       2.623   4.752  19.859  0.00  0.00    +0.000 C 
ATOM     22  O   UNL     1       5.031   5.100  19.827  0.00  0.00    +0.000 OA
ATOM     23  C   UNL     1       6.223   5.538  19.312  0.00  0.00    +0.000 A 
ATOM     24  O   UNL     1       7.271   5.308  19.905  0.00  0.00    +0.000 OA
BRANCH  18  25
ATOM     25  O   UNL     1       4.823   7.010  16.169  0.00  0.00    +0.000 OA
ATOM     26  H   UNL     1       4.692   6.314  15.486  0.00  0.00    +0.000 HD
ENDBRANCH  18  25
ENDBRANCH  15  17
ENDBRANCH   2  15
TORSDOF 7
ENDMDL
MODEL 2
REMARK VINA RESULT:      -7.5      0.280      2.453
REMARK  Name = 
REMARK  11 active torsions:
REMARK  status: ('A' for Active; 'I' for Inactive)
REMARK    1  A    between atoms: C_1  and  O_2
REMARK    2  A    between atoms: O_2  and  C_3
REMARK    3  A    between atoms: C_5  and  C_6
REMARK    4  A    between atoms: C_7  and  C_8
REMARK    5  A    between atoms: C_8  and  C_10
REMARK    6  A    between atoms: C_11  and  O_12
REMARK    7  A    between atoms: C_14  and  C_15
REMARK    8  A    between atoms: C_20  and  O_21
REMARK    9  A    between atoms: O_21  and  C_22
REMARK   10  A    between atoms: C_23  and  O_24
REMARK   11  A    between atoms: O_24  and  C_25
REMARK                            x       y       z     vdW  Elec       q    Type
REMARK                         _______ _______ _______ _____ _____    ______ ____
ROOT
ATOM      1  C   UNL     1       8.193   9.064  17.840  0.00  0.00    +0.000 C 
ATOM      2  C   UNL     1       8.177   7.757  18.147  0.00  0.00    +0.000 C 
ENDROOT
BRANCH   1   5
ATOM      3  C   UNL     1      10.670  11.912  18.412  0.00  0.00    +0.000 A 
ATOM      4  C   UNL     1       9.981  10.845  17.796  0.00  0.00    +0.000 A 
ATOM      5  C   UNL     1       9.052  10.072  18.495  0.00  0.00    +0.000 A 
ATOM      6  C   UNL     1       8.865  10.356  19.848  0.00  0.00    +0.000 A 
ATOM      7  C   UNL     1       9.598  11.363  20.507  0.00  0.00    +0.000 A 
ATOM      8  C   UNL     1      10.526  12.151  19.794  0.00  0.00    +0.000 A 
BRANCH   3  10
ATOM      9  C   UNL     1      10.858  13.829  17.035  0.00  0.00    +0.000 C 
ATOM     10  O   UNL     1      11.497  12.711  17.659  0.00  0.00    +0.000 OA
ENDBRANCH   3  10
BRANCH   7  11
ATOM     11  O   UNL     1       9.248  11.440  21.835  0.00  0.00    +0.000 OA
ATOM     12  C   UNL     1       8.167  12.270  22.234  0.00  0.00    +0.000 C 
ENDBRANCH   7  11
BRANCH   8  13
ATOM     13  O   UNL     1      11.212  13.078  20.529  0.00  0.00    +0.000 OA
ATOM     14  C   UNL     1      10.752  14.411  20.666  0.00  0.00    +0.000 C 
ENDBRANCH   8  13
ENDBRANCH   1   5
BRANCH   2  15
ATOM     15  C   UNL     1       7.349   6.790  17.374  0.00  0.00    +0.000 C 
ATOM     16  O   UNL     1       7.638   6.474  16.220  0.00  0.00    +0.000 OA
BRANCH  15  17
ATOM     17  C   UNL     1       6.104   6.272  18.015  0.00  0.00    +0.000 A 
ATOM     18  C   UNL     1       4.928   6.442  17.380  0.00  0.00    +0.000 A 
ATOM     19  C   UNL     1       3.686   6.015  17.959  0.00  0.00    +0.000 A 
ATOM     20  C   UNL     1       3.692   5.395  19.143  0.00  0.00    +0.000 A 
ATOM     21  C   UNL     1       2.482   4.902  19.860  0.00  0.00    +0.000 C 
ATOM     22  O   UNL     1       4.902   5.153  19.824  0.00  0.00    +0.000 OA
ATOM     23  C   UNL     1       6.110   5.539  19.304  0.00  0.00    +0.000 A 
ATOM     24  O   UNL     1       7.148   5.271  19.898  0.00  0.00    +0.000 OA
BRANCH  18  25
ATOM     25  O   UNL     1       4.766   7.041  16.151  0.00  0.00    +0.000 OA
ATOM     26  H   UNL     1       5.017   6.402  15.447  0.00  0.00    +0.000 HD
ENDBRANCH  18  25
ENDBRANCH  15  17
ENDBRANCH   2  15
TORSDOF 7
ENDMDL
MODEL 3
REMARK VINA RESULT:      -7.1      4.697      8.581
REMARK  Name = 
REMARK  11 active torsions:
REMARK  status: ('A' for Active; 'I' for Inactive)
REMARK    1  A    between atoms: C_1  and  O_2
REMARK    2  A    between atoms: O_2  and  C_3
REMARK    3  A    between atoms: C_5  and  C_6
REMARK    4  A    between atoms: C_7  and  C_8
REMARK    5  A    between atoms: C_8  and  C_10
REMARK    6  A    between atoms: C_11  and  O_12
REMARK    7  A    between atoms: C_14  and  C_15
REMARK    8  A    between atoms: C_20  and  O_21
REMARK    9  A    between atoms: O_21  and  C_22
REMARK   10  A    between atoms: C_23  and  O_24
REMARK   11  A    between atoms: O_24  and  C_25
REMARK                            x       y       z     vdW  Elec       q    Type
REMARK                         _______ _______ _______ _____ _____    ______ ____
ROOT
ATOM      1  C   UNL     1       1.972   7.996  18.398  0.00  0.00    +0.000 C 
ATOM      2  C   UNL     1       1.865   9.214  17.843  0.00  0.00    +0.000 C 
ENDROOT
BRANCH   1   5
ATOM      3  C   UNL     1       3.635   4.676  17.512  0.00  0.00    +0.000 A 
ATOM      4  C   UNL     1       2.717   5.612  18.035  0.00  0.00    +0.000 A 
ATOM      5  C   UNL     1       2.978   6.983  18.017  0.00  0.00    +0.000 A 
ATOM      6  C   UNL     1       4.209   7.399  17.510  0.00  0.00    +0.000 A 
ATOM      7  C   UNL     1       5.176   6.480  17.055  0.00  0.00    +0.000 A 
ATOM      8  C   UNL     1       4.904   5.096  17.063  0.00  0.00    +0.000 A 
BRANCH   3  10
ATOM      9  C   UNL     1       3.478   2.618  18.673  0.00  0.00    +0.000 C 
ATOM     10  O   UNL     1       3.292   3.346  17.455  0.00  0.00    +0.000 OA
ENDBRANCH   3  10
BRANCH   7  11
ATOM     11  O   UNL     1       6.308   7.130  16.620  0.00  0.00    +0.000 OA
ATOM     12  C   UNL     1       7.396   7.326  17.512  0.00  0.00    +0.000 C 
ENDBRANCH   7  11
BRANCH   8  13
ATOM     13  O   UNL     1       5.918   4.284  16.634  0.00  0.00    +0.000 OA
ATOM     14  C   UNL     1       6.057   3.919  15.272  0.00  0.00    +0.000 C 
ENDBRANCH   8  13
ENDBRANCH   1   5
BRANCH   2  15
ATOM     15  C   UNL     1       0.882  10.213  18.349  0.00  0.00    +0.000 C 
ATOM     16  O   UNL     1      -0.312  10.148  18.054  0.00  0.00    +0.000 OA
BRANCH  15  17
ATOM     17  C   UNL     1       1.404  11.349  19.166  0.00  0.00    +0.000 A 
ATOM     18  C   UNL     1       2.142  12.298  18.559  0.00  0.00    +0.000 A 
ATOM     19  C   UNL     1       2.717  13.391  19.290  0.00  0.00    +0.000 A 
ATOM     20  C   UNL     1       2.486  13.499  20.602  0.00  0.00    +0.000 A 
ATOM     21  C   UNL     1       3.019  14.577  21.483  0.00  0.00    +0.000 C 
ATOM     22  O   UNL     1       1.681  12.555  21.271  0.00  0.00    +0.000 OA
ATOM     23  C   UNL     1       1.108  11.500  20.611  0.00  0.00    +0.000 A 
ATOM     24  O   UNL     1       0.374  10.724  21.213  0.00  0.00    +0.000 OA
BRANCH  18  25
ATOM     25  O   UNL     1       2.447  12.333  17.217  0.00  0.00    +0.000 OA
ATOM     26  H   UNL     1       2.758  13.237  16.982  0.00  0.00    +0.000 HD
ENDBRANCH  18  25
ENDBRANCH  15  17
ENDBRANCH   2  15
TORSDOF 7
ENDMDL
MODEL 4
REMARK VINA RESULT:      -7.1      6.112      9.281
REMARK  Name = 
REMARK  11 active torsions:
REMARK  status: ('A' for Active; 'I' for Inactive)
REMARK    1  A    between atoms: C_1  and  O_2
REMARK    2  A    between atoms: O_2  and  C_3
REMARK    3  A    between atoms: C_5  and  C_6
REMARK    4  A    between atoms: C_7  and  C_8
REMARK    5  A    between atoms: C_8  and  C_10
REMARK    6  A    between atoms: C_11  and  O_12
REMARK    7  A    between atoms: C_14  and  C_15
REMARK    8  A    between atoms: C_20  and  O_21
REMARK    9  A    between atoms: O_21  and  C_22
REMARK   10  A    between atoms: C_23  and  O_24
REMARK   11  A    between atoms: O_24  and  C_25
REMARK                            x       y       z     vdW  Elec       q    Type
REMARK                         _______ _______ _______ _____ _____    ______ ____
ROOT
ATOM      1  C   UNL     1       2.754   7.930  17.982  0.00  0.00    +0.000 C 
ATOM      2  C   UNL     1       1.849   8.645  18.668  0.00  0.00    +0.000 C 
ENDROOT
BRANCH   1   5
ATOM      3  C   UNL     1       2.440   4.127  18.081  0.00  0.00    +0.000 A 
ATOM      4  C   UNL     1       2.094   5.493  18.018  0.00  0.00    +0.000 A 
ATOM      5  C   UNL     1       3.044   6.499  18.209  0.00  0.00    +0.000 A 
ATOM      6  C   UNL     1       4.345   6.106  18.520  0.00  0.00    +0.000 A 
ATOM      7  C   UNL     1       4.700   4.750  18.669  0.00  0.00    +0.000 A 
ATOM      8  C   UNL     1       3.740   3.736  18.462  0.00  0.00    +0.000 A 
BRANCH   3  10
ATOM      9  C   UNL     1       0.771   2.663  18.906  0.00  0.00    +0.000 C 
ATOM     10  O   UNL     1       1.496   3.172  17.783  0.00  0.00    +0.000 OA
ENDBRANCH   3  10
BRANCH   7  11
ATOM     11  O   UNL     1       6.030   4.619  18.992  0.00  0.00    +0.000 OA
ATOM     12  C   UNL     1       7.020   4.762  17.984  0.00  0.00    +0.000 C 
ENDBRANCH   7  11
BRANCH   8  13
ATOM     13  O   UNL     1       4.172   2.454  18.662  0.00  0.00    +0.000 OA
ATOM     14  C   UNL     1       4.313   1.908  19.962  0.00  0.00    +0.000 C 
ENDBRANCH   8  13
ENDBRANCH   1   5
BRANCH   2  15
ATOM     15  C   UNL     1       1.549  10.061  18.313  0.00  0.00    +0.000 C 
ATOM     16  O   UNL     1       2.280  10.705  17.561  0.00  0.00    +0.000 OA
BRANCH  15  17
ATOM     17  C   UNL     1       0.371  10.706  18.965  0.00  0.00    +0.000 A 
ATOM     18  C   UNL     1      -0.821  10.666  18.336  0.00  0.00    +0.000 A 
ATOM     19  C   UNL     1      -1.984  11.308  18.880  0.00  0.00    +0.000 A 
ATOM     20  C   UNL     1      -1.901  11.932  20.059  0.00  0.00    +0.000 A 
ATOM     21  C   UNL     1      -3.023  12.639  20.737  0.00  0.00    +0.000 C 
ATOM     22  O   UNL     1      -0.687  11.960  20.775  0.00  0.00    +0.000 OA
ATOM     23  C   UNL     1       0.446  11.355  20.296  0.00  0.00    +0.000 A 
ATOM     24  O   UNL     1       1.473  11.357  20.965  0.00  0.00    +0.000 OA
BRANCH  18  25
ATOM     25  O   UNL     1      -1.065  10.047  17.132  0.00  0.00    +0.000 OA
ATOM     26  H   UNL     1      -1.624   9.252  17.287  0.00  0.00    +0.000 HD
ENDBRANCH  18  25
ENDBRANCH  15  17
ENDBRANCH   2  15
TORSDOF 7
ENDMDL
MODEL 5
REMARK VINA RESULT:      -7.0      1.690      1.937
REMARK  Name = 
REMARK  11 active torsions:
REMARK  status: ('A' for Active; 'I' for Inactive)
REMARK    1  A    between atoms: C_1  and  O_2
REMARK    2  A    between atoms: O_2  and  C_3
REMARK    3  A    between atoms: C_5  and  C_6
REMARK    4  A    between atoms: C_7  and  C_8
REMARK    5  A    between atoms: C_8  and  C_10
REMARK    6  A    between atoms: C_11  and  O_12
REMARK    7  A    between atoms: C_14  and  C_15
REMARK    8  A    between atoms: C_20  and  O_21
REMARK    9  A    between atoms: O_21  and  C_22
REMARK   10  A    between atoms: C_23  and  O_24
REMARK   11  A    between atoms: O_24  and  C_25
REMARK                            x       y       z     vdW  Elec       q    Type
REMARK                         _______ _______ _______ _____ _____    ______ ____
ROOT
ATOM      1  C   UNL     1       8.436   9.053  17.634  0.00  0.00    +0.000 C 
ATOM      2  C   UNL     1       7.290   8.376  17.813  0.00  0.00    +0.000 C 
ENDROOT
BRANCH   1   5
ATOM      3  C   UNL     1      10.013  11.884  19.651  0.00  0.00    +0.000 A 
ATOM      4  C   UNL     1       9.634  10.589  19.239  0.00  0.00    +0.000 A 
ATOM      5  C   UNL     1       8.723  10.386  18.201  0.00  0.00    +0.000 A 
ATOM      6  C   UNL     1       8.152  11.516  17.615  0.00  0.00    +0.000 A 
ATOM      7  C   UNL     1       8.452  12.819  18.060  0.00  0.00    +0.000 A 
ATOM      8  C   UNL     1       9.384  13.020  19.100  0.00  0.00    +0.000 A 
BRANCH   3  10
ATOM      9  C   UNL     1      12.331  12.052  20.104  0.00  0.00    +0.000 C 
ATOM     10  O   UNL     1      10.991  12.036  20.605  0.00  0.00    +0.000 OA
ENDBRANCH   3  10
BRANCH   7  11
ATOM     11  O   UNL     1       7.754  13.760  17.340  0.00  0.00    +0.000 OA
ATOM     12  C   UNL     1       6.587  14.351  17.892  0.00  0.00    +0.000 C 
ENDBRANCH   7  11
BRANCH   8  13
ATOM     13  O   UNL     1       9.581  14.318  19.484  0.00  0.00    +0.000 OA
ATOM     14  C   UNL     1      10.605  15.116  18.917  0.00  0.00    +0.000 C 
ENDBRANCH   8  13
ENDBRANCH   1   5
BRANCH   2  15
ATOM     15  C   UNL     1       7.116   6.993  17.286  0.00  0.00    +0.000 C 
ATOM     16  O   UNL     1       7.835   6.552  16.388  0.00  0.00    +0.000 OA
BRANCH  15  17
ATOM     17  C   UNL     1       5.985   6.181  17.823  0.00  0.00    +0.000 A 
ATOM     18  C   UNL     1       4.866   6.058  17.083  0.00  0.00    +0.000 A 
ATOM     19  C   UNL     1       3.721   5.333  17.559  0.00  0.00    +0.000 A 
ATOM     20  C   UNL     1       3.773   4.730  18.750  0.00  0.00    +0.000 A 
ATOM     21  C   UNL     1       2.663   3.949  19.366  0.00  0.00    +0.000 C 
ATOM     22  O   UNL     1       4.939   4.792  19.539  0.00  0.00    +0.000 OA
ATOM     23  C   UNL     1       6.056   5.467  19.121  0.00  0.00    +0.000 A 
ATOM     24  O   UNL     1       7.071   5.462  19.809  0.00  0.00    +0.000 OA
BRANCH  18  25
ATOM     25  O   UNL     1       4.673   6.603  15.835  0.00  0.00    +0.000 OA
ATOM     26  H   UNL     1       5.253   6.140  15.189  0.00  0.00    +0.000 HD
ENDBRANCH  18  25
ENDBRANCH  15  17
ENDBRANCH   2  15
TORSDOF 7
ENDMDL
MODEL 6
REMARK VINA RESULT:      -7.0      6.331      9.450
REMARK  Name = 
REMARK  11 active torsions:
REMARK  status: ('A' for Active; 'I' for Inactive)
REMARK    1  A    between atoms: C_1  and  O_2
REMARK    2  A    between atoms: O_2  and  C_3
REMARK    3  A    between atoms: C_5  and  C_6
REMARK    4  A    between atoms: C_7  and  C_8
REMARK    5  A    between atoms: C_8  and  C_10
REMARK    6  A    between atoms: C_11  and  O_12
REMARK    7  A    between atoms: C_14  and  C_15
REMARK    8  A    between atoms: C_20  and  O_21
REMARK    9  A    between atoms: O_21  and  C_22
REMARK   10  A    between atoms: C_23  and  O_24
REMARK   11  A    between atoms: O_24  and  C_25
REMARK                            x       y       z     vdW  Elec       q    Type
REMARK                         _______ _______ _______ _____ _____    ______ ____
ROOT
ATOM      1  C   UNL     1       2.813   8.091  18.034  0.00  0.00    +0.000 C 
ATOM      2  C   UNL     1       1.785   8.711  18.636  0.00  0.00    +0.000 C 
ENDROOT
BRANCH   1   5
ATOM      3  C   UNL     1       4.452   4.668  17.626  0.00  0.00    +0.000 A 
ATOM      4  C   UNL     1       4.017   5.981  17.347  0.00  0.00    +0.000 A 
ATOM      5  C   UNL     1       3.152   6.663  18.205  0.00  0.00    +0.000 A 
ATOM      6  C   UNL     1       2.686   5.980  19.328  0.00  0.00    +0.000 A 
ATOM      7  C   UNL     1       3.042   4.641  19.587  0.00  0.00    +0.000 A 
ATOM      8  C   UNL     1       3.926   3.959  18.725  0.00  0.00    +0.000 A 
BRANCH   3  10
ATOM      9  C   UNL     1       6.730   4.530  16.989  0.00  0.00    +0.000 C 
ATOM     10  O   UNL     1       5.385   4.074  16.808  0.00  0.00    +0.000 OA
ENDBRANCH   3  10
BRANCH   7  11
ATOM     11  O   UNL     1       2.444   4.184  20.739  0.00  0.00    +0.000 OA
ATOM     12  C   UNL     1       1.129   3.652  20.690  0.00  0.00    +0.000 C 
ENDBRANCH   7  11
BRANCH   8  13
ATOM     13  O   UNL     1       4.184   2.654  19.042  0.00  0.00    +0.000 OA
ATOM     14  C   UNL     1       3.433   1.588  18.487  0.00  0.00    +0.000 C 
ENDBRANCH   8  13
ENDBRANCH   1   5
BRANCH   2  15
ATOM     15  C   UNL     1       1.455  10.132  18.336  0.00  0.00    +0.000 C 
ATOM     16  O   UNL     1       2.138  10.803  17.562  0.00  0.00    +0.000 OA
BRANCH  15  17
ATOM     17  C   UNL     1       0.310  10.749  19.069  0.00  0.00    +0.000 A 
ATOM     18  C   UNL     1      -0.873  10.877  18.435  0.00  0.00    +0.000 A 
ATOM     19  C   UNL     1      -2.002  11.505  19.060  0.00  0.00    +0.000 A 
ATOM     20  C   UNL     1      -1.897  11.944  20.318  0.00  0.00    +0.000 A 
ATOM     21  C   UNL     1      -2.984  12.614  21.087  0.00  0.00    +0.000 C 
ATOM     22  O   UNL     1      -0.695  11.791  21.037  0.00  0.00    +0.000 OA
ATOM     23  C   UNL     1       0.405  11.192  20.481  0.00  0.00    +0.000 A 
ATOM     24  O   UNL     1       1.421  11.031  21.148  0.00  0.00    +0.000 OA
BRANCH  18  25
ATOM     25  O   UNL     1      -1.137  10.456  17.152  0.00  0.00    +0.000 OA
ATOM     26  H   UNL     1      -1.669   9.629  17.188  0.00  0.00    +0.000 HD
ENDBRANCH  18  25
ENDBRANCH  15  17
ENDBRANCH   2  15
TORSDOF 7
ENDMDL
MODEL 7
REMARK VINA RESULT:      -6.9      1.265      2.521
REMARK  Name = 
REMARK  11 active torsions:
REMARK  status: ('A' for Active; 'I' for Inactive)
REMARK    1  A    between atoms: C_1  and  O_2
REMARK    2  A    between atoms: O_2  and  C_3
REMARK    3  A    between atoms: C_5  and  C_6
REMARK    4  A    between atoms: C_7  and  C_8
REMARK    5  A    between atoms: C_8  and  C_10
REMARK    6  A    between atoms: C_11  and  O_12
REMARK    7  A    between atoms: C_14  and  C_15
REMARK    8  A    between atoms: C_20  and  O_21
REMARK    9  A    between atoms: O_21  and  C_22
REMARK   10  A    between atoms: C_23  and  O_24
REMARK   11  A    between atoms: O_24  and  C_25
REMARK                            x       y       z     vdW  Elec       q    Type
REMARK                         _______ _______ _______ _____ _____    ______ ____
ROOT
ATOM      1  C   UNL     1       8.551   8.674  18.386  0.00  0.00    +0.000 C 
ATOM      2  C   UNL     1       7.606   8.355  17.488  0.00  0.00    +0.000 C 
ENDROOT
BRANCH   1   5
ATOM      3  C   UNL     1       9.012  12.464  18.407  0.00  0.00    +0.000 A 
ATOM      4  C   UNL     1       8.862  11.140  17.942  0.00  0.00    +0.000 A 
ATOM      5  C   UNL     1       8.874  10.050  18.816  0.00  0.00    +0.000 A 
ATOM      6  C   UNL     1       9.094  10.311  20.168  0.00  0.00    +0.000 A 
ATOM      7  C   UNL     1       9.326  11.616  20.648  0.00  0.00    +0.000 A 
ATOM      8  C   UNL     1       9.300  12.715  19.764  0.00  0.00    +0.000 A 
BRANCH   3  10
ATOM      9  C   UNL     1       7.638  14.205  17.576  0.00  0.00    +0.000 C 
ATOM     10  O   UNL     1       8.889  13.511  17.525  0.00  0.00    +0.000 OA
ENDBRANCH   3  10
BRANCH   7  11
ATOM     11  O   UNL     1       9.533  11.613  22.008  0.00  0.00    +0.000 OA
ATOM     12  C   UNL     1       8.439  11.822  22.889  0.00  0.00    +0.000 C 
ENDBRANCH   7  11
BRANCH   8  13
ATOM     13  O   UNL     1       9.571  13.936  20.319  0.00  0.00    +0.000 OA
ATOM     14  C   UNL     1      10.868  14.504  20.278  0.00  0.00    +0.000 C 
ENDBRANCH   8  13
ENDBRANCH   1   5
BRANCH   2  15
ATOM     15  C   UNL     1       7.278   6.935  17.180  0.00  0.00    +0.000 C 
ATOM     16  O   UNL     1       7.855   6.321  16.282  0.00  0.00    +0.000 OA
BRANCH  15  17
ATOM     17  C   UNL     1       6.163   6.298  17.942  0.00  0.00    +0.000 A 
ATOM     18  C   UNL     1       4.918   6.343  17.430  0.00  0.00    +0.000 A 
ATOM     19  C   UNL     1       3.792   5.796  18.131  0.00  0.00    +0.000 A 
ATOM     20  C   UNL     1       3.980   5.188  19.306  0.00  0.00    +0.000 A 
ATOM     21  C   UNL     1       2.906   4.579  20.141  0.00  0.00    +0.000 C 
ATOM     22  O   UNL     1       5.272   5.075  19.860  0.00  0.00    +0.000 OA
ATOM     23  C   UNL     1       6.375   5.579  19.221  0.00  0.00    +0.000 A 
ATOM     24  O   UNL     1       7.490   5.422  19.706  0.00  0.00    +0.000 OA
BRANCH  18  25
ATOM     25  O   UNL     1       4.572   6.914  16.226  0.00  0.00    +0.000 OA
ATOM     26  H   UNL     1       4.178   6.225  15.645  0.00  0.00    +0.000 HD
ENDBRANCH  18  25
ENDBRANCH  15  17
ENDBRANCH   2  15
TORSDOF 7
ENDMDL
MODEL 8
REMARK VINA RESULT:      -6.9      5.355      9.326
REMARK  Name = 
REMARK  11 active torsions:
REMARK  status: ('A' for Active; 'I' for Inactive)
REMARK    1  A    between atoms: C_1  and  O_2
REMARK    2  A    between atoms: O_2  and  C_3
REMARK    3  A    between atoms: C_5  and  C_6
REMARK    4  A    between atoms: C_7  and  C_8
REMARK    5  A    between atoms: C_8  and  C_10
REMARK    6  A    between atoms: C_11  and  O_12
REMARK    7  A    between atoms: C_14  and  C_15
REMARK    8  A    between atoms: C_20  and  O_21
REMARK    9  A    between atoms: O_21  and  C_22
REMARK   10  A    between atoms: C_23  and  O_24
REMARK   11  A    between atoms: O_24  and  C_25
REMARK                            x       y       z     vdW  Elec       q    Type
REMARK                         _______ _______ _______ _____ _____    ______ ____
ROOT
ATOM      1  C   UNL     1       2.135   8.675  18.278  0.00  0.00    +0.000 C 
ATOM      2  C   UNL     1       1.336   9.261  19.184  0.00  0.00    +0.000 C 
ENDROOT
BRANCH   1   5
ATOM      3  C   UNL     1       4.432   5.654  17.874  0.00  0.00    +0.000 A 
ATOM      4  C   UNL     1       3.766   6.869  17.608  0.00  0.00    +0.000 A 
ATOM      5  C   UNL     1       2.734   7.333  18.426  0.00  0.00    +0.000 A 
ATOM      6  C   UNL     1       2.343   6.524  19.493  0.00  0.00    +0.000 A 
ATOM      7  C   UNL     1       2.937   5.268  19.733  0.00  0.00    +0.000 A 
ATOM      8  C   UNL     1       3.988   4.809  18.912  0.00  0.00    +0.000 A 
BRANCH   3  10
ATOM      9  C   UNL     1       6.645   6.154  17.195  0.00  0.00    +0.000 C 
ATOM     10  O   UNL     1       5.511   5.287  17.104  0.00  0.00    +0.000 OA
ENDBRANCH   3  10
BRANCH   7  11
ATOM     11  O   UNL     1       2.371   4.655  20.826  0.00  0.00    +0.000 OA
ATOM     12  C   UNL     1       1.183   3.892  20.672  0.00  0.00    +0.000 C 
ENDBRANCH   7  11
BRANCH   8  13
ATOM     13  O   UNL     1       4.475   3.564  19.205  0.00  0.00    +0.000 OA
ATOM     14  C   UNL     1       3.911   2.391  18.646  0.00  0.00    +0.000 C 
ENDBRANCH   8  13
ENDBRANCH   1   5
BRANCH   2  15
ATOM     15  C   UNL     1       0.695  10.579  18.916  0.00  0.00    +0.000 C 
ATOM     16  O   UNL     1      -0.305  10.675  18.204  0.00  0.00    +0.000 OA
BRANCH  15  17
ATOM     17  C   UNL     1       1.352  11.798  19.474  0.00  0.00    +0.000 A 
ATOM     18  C   UNL     1       2.122  12.549  18.661  0.00  0.00    +0.000 A 
ATOM     19  C   UNL     1       2.822  13.706  19.141  0.00  0.00    +0.000 A 
ATOM     20  C   UNL     1       2.683  14.077  20.417  0.00  0.00    +0.000 A 
ATOM     21  C   UNL     1       3.351  15.251  21.049  0.00  0.00    +0.000 C 
ATOM     22  O   UNL     1       1.851  13.350  21.293  0.00  0.00    +0.000 OA
ATOM     23  C   UNL     1       1.159  12.243  20.875  0.00  0.00    +0.000 A 
ATOM     24  O   UNL     1       0.407  11.661  21.648  0.00  0.00    +0.000 OA
BRANCH  18  25
ATOM     25  O   UNL     1       2.344  12.305  17.326  0.00  0.00    +0.000 OA
ATOM     26  H   UNL     1       2.420  13.164  16.851  0.00  0.00    +0.000 HD
ENDBRANCH  18  25
ENDBRANCH  15  17
ENDBRANCH   2  15
TORSDOF 7
ENDMDL
MODEL 9
REMARK VINA RESULT:      -6.9      5.595      9.385
REMARK  Name = 
REMARK  11 active torsions:
REMARK  status: ('A' for Active; 'I' for Inactive)
REMARK    1  A    between atoms: C_1  and  O_2
REMARK    2  A    between atoms: O_2  and  C_3
REMARK    3  A    between atoms: C_5  and  C_6
REMARK    4  A    between atoms: C_7  and  C_8
REMARK    5  A    between atoms: C_8  and  C_10
REMARK    6  A    between atoms: C_11  and  O_12
REMARK    7  A    between atoms: C_14  and  C_15
REMARK    8  A    between atoms: C_20  and  O_21
REMARK    9  A    between atoms: O_21  and  C_22
REMARK   10  A    between atoms: C_23  and  O_24
REMARK   11  A    between atoms: O_24  and  C_25
REMARK                            x       y       z     vdW  Elec       q    Type
REMARK                         _______ _______ _______ _____ _____    ______ ____
ROOT
ATOM      1  C   UNL     1       1.760   7.718  17.980  0.00  0.00    +0.000 C 
ATOM      2  C   UNL     1       1.869   8.810  18.755  0.00  0.00    +0.000 C 
ENDROOT
BRANCH   1   5
ATOM      3  C   UNL     1       4.462   5.237  19.036  0.00  0.00    +0.000 A 
ATOM      4  C   UNL     1       3.815   6.449  18.713  0.00  0.00    +0.000 A 
ATOM      5  C   UNL     1       2.529   6.472  18.170  0.00  0.00    +0.000 A 
ATOM      6  C   UNL     1       1.921   5.245  17.903  0.00  0.00    +0.000 A 
ATOM      7  C   UNL     1       2.576   4.020  18.140  0.00  0.00    +0.000 A 
ATOM      8  C   UNL     1       3.870   4.002  18.702  0.00  0.00    +0.000 A 
BRANCH   3  10
ATOM      9  C   UNL     1       6.804   5.508  18.809  0.00  0.00    +0.000 C 
ATOM     10  O   UNL     1       5.684   5.266  19.666  0.00  0.00    +0.000 OA
ENDBRANCH   3  10
BRANCH   7  11
ATOM     11  O   UNL     1       1.781   2.956  17.783  0.00  0.00    +0.000 OA
ATOM     12  C   UNL     1       0.914   2.369  18.741  0.00  0.00    +0.000 C 
ENDBRANCH   7  11
BRANCH   8  13
ATOM     13  O   UNL     1       4.435   2.766  18.863  0.00  0.00    +0.000 OA
ATOM     14  C   UNL     1       4.429   2.099  20.113  0.00  0.00    +0.000 C 
ENDBRANCH   8  13
ENDBRANCH   1   5
BRANCH   2  15
ATOM     15  C   UNL     1       0.987   9.994  18.554  0.00  0.00    +0.000 C 
ATOM     16  O   UNL     1       0.048   9.970  17.758  0.00  0.00    +0.000 OA
BRANCH  15  17
ATOM     17  C   UNL     1       1.326  11.246  19.293  0.00  0.00    +0.000 A 
ATOM     18  C   UNL     1       2.004  12.216  18.648  0.00  0.00    +0.000 A 
ATOM     19  C   UNL     1       2.406  13.425  19.309  0.00  0.00    +0.000 A 
ATOM     20  C   UNL     1       2.071  13.618  20.588  0.00  0.00    +0.000 A 
ATOM     21  C   UNL     1       2.422  14.820  21.397  0.00  0.00    +0.000 C 
ATOM     22  O   UNL     1       1.322  12.652  21.290  0.00  0.00    +0.000 OA
ATOM     23  C   UNL     1       0.912  11.487  20.696  0.00  0.00    +0.000 A 
ATOM     24  O   UNL     1       0.222  10.689  21.320  0.00  0.00    +0.000 OA
BRANCH  18  25
ATOM     25  O   UNL     1       2.400  12.170  17.331  0.00  0.00    +0.000 OA
ATOM     26  H   UNL     1       3.241  12.670  17.231  0.00  0.00    +0.000 HD
ENDBRANCH  18  25
ENDBRANCH  15  17
ENDBRANCH   2  15
TORSDOF 7
ENDMDL
