MODEL 1
REMARK VINA RESULT:      -8.1      0.000      0.000
REMARK  Name = 
REMARK  7 active torsions:
REMARK  status: ('A' for Active; 'I' for Inactive)
REMARK    1  A    between atoms: C_1  and  C_2
REMARK    2  A    between atoms: C_3  and  C_4
REMARK    3  A    between atoms: C_5  and  C_6
REMARK    4  A    between atoms: C_10  and  C_11
REMARK    5  A    between atoms: N_13  and  C_14
REMARK    6  A    between atoms: C_14  and  C_15
REMARK    7  A    between atoms: C_15  and  O_17
REMARK                            x       y       z     vdW  Elec       q    Type
REMARK                         _______ _______ _______ _____ _____    ______ ____
ROOT
ATOM      1  C   UNL     1       3.571   7.416  17.686  0.00  0.00    +0.000 C 
ATOM      2  O   UNL     1       3.800   7.565  16.491  0.00  0.00    +0.000 OA
ATOM      3  N   UNL     1       4.320   6.518  18.438  0.00  0.00    +0.000 N 
ATOM      4  H   UNL     1       3.840   6.149  19.252  0.00  0.00    +0.000 HD
ENDROOT
BRANCH   3   5
ATOM      5  C   UNL     1       5.289   5.543  17.830  0.00  0.00    +0.000 C 
ATOM      6  C   UNL     1       5.599   4.370  18.834  0.00  0.00    +0.000 C 
ATOM      7  C   UNL     1       4.428   3.462  18.622  0.00  0.00    +0.000 A 
ATOM      8  C   UNL     1       3.977   2.454  19.452  0.00  0.00    +0.000 A 
ATOM      9  C   UNL     1       2.764   1.848  19.137  0.00  0.00    +0.000 A 
ATOM     10  C   UNL     1       2.039   2.256  18.005  0.00  0.00    +0.000 A 
ATOM     11  C   UNL     1       2.559   3.212  17.122  0.00  0.00    +0.000 A 
ATOM     12  C   UNL     1       3.780   3.785  17.425  0.00  0.00    +0.000 A 
ATOM     13  C   UNL     1       4.588   4.805  16.657  0.00  0.00    +0.000 C 
BRANCH   5  14
ATOM     14  C   UNL     1       6.668   6.174  17.487  0.00  0.00    +0.000 C 
ATOM     15  O   UNL     1       7.650   6.106  18.219  0.00  0.00    +0.000 OA
BRANCH  14  16
ATOM     16  O   UNL     1       6.764   6.803  16.298  0.00  0.00    +0.000 OA
ATOM     17  H   UNL     1       6.578   7.773  16.346  0.00  0.00    +0.000 HD
ENDBRANCH  14  16
ENDBRANCH   5  14
ENDBRANCH   3   5
BRANCH   1  24
ATOM     18  C   UNL     1       1.987   7.820  19.669  0.00  0.00    +0.000 A 
ATOM     19  C   UNL     1       0.959   8.603  20.257  0.00  0.00    +0.000 A 
ATOM     20  C   UNL     1       0.281   8.271  21.563  0.00  0.00    +0.000 C 
ATOM     21  C   UNL     1       0.481   9.740  19.581  0.00  0.00    +0.000 A 
ATOM     22  C   UNL     1       0.994  10.106  18.343  0.00  0.00    +0.000 A 
ATOM     23  C   UNL     1       2.002   9.349  17.764  0.00  0.00    +0.000 A 
ATOM     24  C   UNL     1       2.521   8.214  18.414  0.00  0.00    +0.000 A 
BRANCH  18  27
ATOM     25  C   UNL     1       2.109   4.297  21.270  0.00  0.00    +0.000 C 
ATOM     26  C   UNL     1       1.624   5.535  20.594  0.00  0.00    +0.000 C 
ATOM     27  C   UNL     1       2.422   6.584  20.344  0.00  0.00    +0.000 C 
ENDBRANCH  18  27
ENDBRANCH   1  24
TORSDOF 5
ENDMDL
MODEL 2
REMARK VINA RESULT:      -7.5      2.425      4.332
REMARK  Name = 
REMARK  7 active torsions:
REMARK  status: ('A' for Active; 'I' for Inactive)
REMARK    1  A    between atoms: C_1  and  C_2
REMARK    2  A    between atoms: C_3  and  C_4
REMARK    3  A    between atoms: C_5  and  C_6
REMARK    4  A    between atoms: C_10  and  C_11
REMARK    5  A    between atoms: N_13  and  C_14
REMARK    6  A    between atoms: C_14  and  C_15
REMARK    7  A    between atoms: C_15  and  O_17
REMARK                            x       y       z     vdW  Elec       q    Type
REMARK                         _______ _______ _______ _____ _____    ______ ____
ROOT
ATOM      1  C   UNL     1       2.217   5.532  20.017  0.00  0.00    +0.000 C 
ATOM      2  O   UNL     1       2.316   4.884  21.053  0.00  0.00    +0.000 OA
ATOM      3  N   UNL     1       2.455   4.930  18.787  0.00  0.00    +0.000 N 
ATOM      4  H   UNL     1       2.759   5.568  18.059  0.00  0.00    +0.000 HD
ENDROOT
BRANCH   3   5
ATOM      5  C   UNL     1       3.037   3.551  18.645  0.00  0.00    +0.000 C 
ATOM      6  C   UNL     1       3.702   3.373  17.229  0.00  0.00    +0.000 C 
ATOM      7  C   UNL     1       5.043   4.005  17.434  0.00  0.00    +0.000 A 
ATOM      8  C   UNL     1       5.929   4.447  16.469  0.00  0.00    +0.000 A 
ATOM      9  C   UNL     1       7.047   5.160  16.893  0.00  0.00    +0.000 A 
ATOM     10  C   UNL     1       7.256   5.406  18.261  0.00  0.00    +0.000 A 
ATOM     11  C   UNL     1       6.401   4.866  19.229  0.00  0.00    +0.000 A 
ATOM     12  C   UNL     1       5.310   4.132  18.802  0.00  0.00    +0.000 A 
ATOM     13  C   UNL     1       4.249   3.417  19.605  0.00  0.00    +0.000 C 
BRANCH   5  14
ATOM     14  C   UNL     1       1.977   2.418  18.753  0.00  0.00    +0.000 C 
ATOM     15  O   UNL     1       0.771   2.620  18.851  0.00  0.00    +0.000 OA
BRANCH  14  16
ATOM     16  O   UNL     1       2.440   1.153  18.707  0.00  0.00    +0.000 OA
ATOM     17  H   UNL     1       2.405   0.686  19.579  0.00  0.00    +0.000 HD
ENDBRANCH  14  16
ENDBRANCH   5  14
ENDBRANCH   3   5
BRANCH   1  24
ATOM     18  C   UNL     1       2.016   7.836  18.898  0.00  0.00    +0.000 A 
ATOM     19  C   UNL     1       1.631   9.199  18.994  0.00  0.00    +0.000 A 
ATOM     20  C   UNL     1       1.854  10.223  17.908  0.00  0.00    +0.000 C 
ATOM     21  C   UNL     1       1.049   9.673  20.183  0.00  0.00    +0.000 A 
ATOM     22  C   UNL     1       0.850   8.829  21.269  0.00  0.00    +0.000 A 
ATOM     23  C   UNL     1       1.220   7.495  21.181  0.00  0.00    +0.000 A 
ATOM     24  C   UNL     1       1.790   6.976  20.004  0.00  0.00    +0.000 A 
BRANCH  18  27
ATOM     25  C   UNL     1       4.620   7.197  16.104  0.00  0.00    +0.000 C 
ATOM     26  C   UNL     1       3.958   7.703  17.342  0.00  0.00    +0.000 C 
ATOM     27  C   UNL     1       2.703   7.369  17.680  0.00  0.00    +0.000 C 
ENDBRANCH  18  27
ENDBRANCH   1  24
TORSDOF 5
ENDMDL
MODEL 3
REMARK VINA RESULT:      -7.4      3.010      6.917
REMARK  Name = 
REMARK  7 active torsions:
REMARK  status: ('A' for Active; 'I' for Inactive)
REMARK    1  A    between atoms: C_1  and  C_2
REMARK    2  A    between atoms: C_3  and  C_4
REMARK    3  A    between atoms: C_5  and  C_6
REMARK    4  A    between atoms: C_10  and  C_11
REMARK    5  A    between atoms: N_13  and  C_14
REMARK    6  A    between atoms: C_14  and  C_15
REMARK    7  A    between atoms: C_15  and  O_17
REMARK                            x       y       z     vdW  Elec       q    Type
REMARK                         _______ _______ _______ _____ _____    ______ ____
ROOT
ATOM      1  C   UNL     1       1.729   7.585  20.299  0.00  0.00    +0.000 C 
ATOM      2  O   UNL     1       1.203   6.933  21.193  0.00  0.00    +0.000 OA
ATOM      3  N   UNL     1       1.640   8.972  20.296  0.00  0.00    +0.000 N 
ATOM      4  H   UNL     1       1.715   9.395  19.377  0.00  0.00    +0.000 HD
ENDROOT
BRANCH   3   5
ATOM      5  C   UNL     1       0.748   9.742  21.230  0.00  0.00    +0.000 C 
ATOM      6  C   UNL     1       0.865  11.288  20.959  0.00  0.00    +0.000 C 
ATOM      7  C   UNL     1      -0.061  11.471  19.797  0.00  0.00    +0.000 A 
ATOM      8  C   UNL     1      -0.114  12.535  18.915  0.00  0.00    +0.000 A 
ATOM      9  C   UNL     1      -0.943  12.414  17.804  0.00  0.00    +0.000 A 
ATOM     10  C   UNL     1      -1.698  11.246  17.603  0.00  0.00    +0.000 A 
ATOM     11  C   UNL     1      -1.705  10.221  18.557  0.00  0.00    +0.000 A 
ATOM     12  C   UNL     1      -0.904  10.362  19.675  0.00  0.00    +0.000 A 
ATOM     13  C   UNL     1      -0.732   9.447  20.865  0.00  0.00    +0.000 C 
BRANCH   5  14
ATOM     14  C   UNL     1       1.112   9.552  22.729  0.00  0.00    +0.000 C 
ATOM     15  O   UNL     1       0.305   9.662  23.647  0.00  0.00    +0.000 OA
BRANCH  14  16
ATOM     16  O   UNL     1       2.391   9.224  23.002  0.00  0.00    +0.000 OA
ATOM     17  H   UNL     1       2.622   8.293  22.762  0.00  0.00    +0.000 HD
ENDBRANCH  14  16
ENDBRANCH   5  14
ENDBRANCH   3   5
BRANCH   1  24
ATOM     18  C   UNL     1       2.934   5.584  19.228  0.00  0.00    +0.000 A 
ATOM     19  C   UNL     1       3.740   5.079  18.174  0.00  0.00    +0.000 A 
ATOM     20  C   UNL     1       4.266   3.666  18.110  0.00  0.00    +0.000 C 
ATOM     21  C   UNL     1       4.137   5.937  17.133  0.00  0.00    +0.000 A 
ATOM     22  C   UNL     1       3.758   7.273  17.122  0.00  0.00    +0.000 A 
ATOM     23  C   UNL     1       2.966   7.773  18.146  0.00  0.00    +0.000 A 
ATOM     24  C   UNL     1       2.533   6.946  19.198  0.00  0.00    +0.000 A 
BRANCH  18  27
ATOM     25  C   UNL     1       1.343   2.869  21.484  0.00  0.00    +0.000 C 
ATOM     26  C   UNL     1       1.647   3.751  20.320  0.00  0.00    +0.000 C 
ATOM     27  C   UNL     1       2.595   4.700  20.358  0.00  0.00    +0.000 C 
ENDBRANCH  18  27
ENDBRANCH   1  24
TORSDOF 5
ENDMDL
MODEL 4
REMARK VINA RESULT:      -7.3      2.432      4.094
REMARK  Name = 
REMARK  7 active torsions:
REMARK  status: ('A' for Active; 'I' for Inactive)
REMARK    1  A    between atoms: C_1  and  C_2
REMARK    2  A    between atoms: C_3  and  C_4
REMARK    3  A    between atoms: C_5  and  C_6
REMARK    4  A    between atoms: C_10  and  C_11
REMARK    5  A    between atoms: N_13  and  C_14
REMARK    6  A    between atoms: C_14  and  C_15
REMARK    7  A    between atoms: C_15  and  O_17
REMARK                            x       y       z     vdW  Elec       q    Type
REMARK                         _______ _______ _______ _____ _____    ______ ____
ROOT
ATOM      1  C   UNL     1       1.979   6.784  19.566  0.00  0.00    +0.000 C 
ATOM      2  O   UNL     1       1.854   6.411  20.727  0.00  0.00    +0.000 OA
ATOM      3  N   UNL     1       2.182   5.857  18.549  0.00  0.00    +0.000 N 
ATOM      4  H   UNL     1       2.672   6.224  17.740  0.00  0.00    +0.000 HD
ENDROOT
BRANCH   3   5
ATOM      5  C   UNL     1       2.467   4.403  18.805  0.00  0.00    +0.000 C 
ATOM      6  C   UNL     1       3.067   3.722  17.519  0.00  0.00    +0.000 C 
ATOM      7  C   UNL     1       4.512   4.103  17.611  0.00  0.00    +0.000 A 
ATOM      8  C   UNL     1       5.459   4.083  16.605  0.00  0.00    +0.000 A 
ATOM      9  C   UNL     1       6.704   4.644  16.875  0.00  0.00    +0.000 A 
ATOM     10  C   UNL     1       6.973   5.202  18.136  0.00  0.00    +0.000 A 
ATOM     11  C   UNL     1       6.035   5.126  19.173  0.00  0.00    +0.000 A 
ATOM     12  C   UNL     1       4.812   4.538  18.906  0.00  0.00    +0.000 A 
ATOM     13  C   UNL     1       3.635   4.293  19.821  0.00  0.00    +0.000 C 
BRANCH   5  14
ATOM     14  C   UNL     1       1.198   3.579  19.161  0.00  0.00    +0.000 C 
ATOM     15  O   UNL     1       0.692   2.748  18.413  0.00  0.00    +0.000 OA
BRANCH  14  16
ATOM     16  O   UNL     1       0.660   3.794  20.379  0.00  0.00    +0.000 OA
ATOM     17  H   UNL     1      -0.131   3.232  20.568  0.00  0.00    +0.000 HD
ENDBRANCH  14  16
ENDBRANCH   5  14
ENDBRANCH   3   5
BRANCH   1  24
ATOM     18  C   UNL     1       1.148   9.189  19.924  0.00  0.00    +0.000 A 
ATOM     19  C   UNL     1       1.052  10.521  19.442  0.00  0.00    +0.000 A 
ATOM     20  C   UNL     1       0.279  11.619  20.130  0.00  0.00    +0.000 C 
ATOM     21  C   UNL     1       1.658  10.861  18.220  0.00  0.00    +0.000 A 
ATOM     22  C   UNL     1       2.347   9.913  17.473  0.00  0.00    +0.000 A 
ATOM     23  C   UNL     1       2.449   8.610  17.940  0.00  0.00    +0.000 A 
ATOM     24  C   UNL     1       1.871   8.231  19.165  0.00  0.00    +0.000 A 
BRANCH  18  27
ATOM     25  C   UNL     1      -0.243   9.113  23.537  0.00  0.00    +0.000 C 
ATOM     26  C   UNL     1       0.503   9.515  22.309  0.00  0.00    +0.000 C 
ATOM     27  C   UNL     1       0.437   8.821  21.162  0.00  0.00    +0.000 C 
ENDBRANCH  18  27
ENDBRANCH   1  24
TORSDOF 5
ENDMDL
MODEL 5
REMARK VINA RESULT:      -7.2      1.961      3.568
REMARK  Name = 
REMARK  7 active torsions:
REMARK  status: ('A' for Active; 'I' for Inactive)
REMARK    1  A    between atoms: C_1  and  C_2
REMARK    2  A    between atoms: C_3  and  C_4
REMARK    3  A    between atoms: C_5  and  C_6
REMARK    4  A    between atoms: C_10  and  C_11
REMARK    5  A    between atoms: N_13  and  C_14
REMARK    6  A    between atoms: C_14  and  C_15
REMARK    7  A    between atoms: C_15  and  O_17
REMARK                            x       y       z     vdW  Elec       q    Type
REMARK                         _______ _______ _______ _____ _____    ______ ____
ROOT
ATOM      1  C   UNL     1       1.657   8.206  19.231  0.00  0.00    +0.000 C 
ATOM      2  O   UNL     1       1.449   8.420  18.042  0.00  0.00    +0.000 OA
ATOM      3  N   UNL     1       2.591   7.251  19.619  0.00  0.00    +0.000 N 
ATOM      4  H   UNL     1       2.420   6.844  20.532  0.00  0.00    +0.000 HD
ENDROOT
BRANCH   3   5
ATOM      5  C   UNL     1       3.239   6.295  18.657  0.00  0.00    +0.000 C 
ATOM      6  C   UNL     1       4.156   5.272  19.426  0.00  0.00    +0.000 C 
ATOM      7  C   UNL     1       3.163   4.254  19.893  0.00  0.00    +0.000 A 
ATOM      8  C   UNL     1       3.320   3.312  20.892  0.00  0.00    +0.000 A 
ATOM      9  C   UNL     1       2.201   2.579  21.274  0.00  0.00    +0.000 A 
ATOM     10  C   UNL     1       0.961   2.798  20.650  0.00  0.00    +0.000 A 
ATOM     11  C   UNL     1       0.843   3.686  19.574  0.00  0.00    +0.000 A 
ATOM     12  C   UNL     1       1.967   4.387  19.179  0.00  0.00    +0.000 A 
ATOM     13  C   UNL     1       2.144   5.376  18.050  0.00  0.00    +0.000 C 
BRANCH   5  14
ATOM     14  C   UNL     1       4.167   6.993  17.623  0.00  0.00    +0.000 C 
ATOM     15  O   UNL     1       5.392   6.978  17.688  0.00  0.00    +0.000 OA
BRANCH  14  16
ATOM     16  O   UNL     1       3.561   7.620  16.595  0.00  0.00    +0.000 OA
ATOM     17  H   UNL     1       3.071   7.009  15.991  0.00  0.00    +0.000 HD
ENDBRANCH  14  16
ENDBRANCH   5  14
ENDBRANCH   3   5
BRANCH   1  24
ATOM     18  C   UNL     1      -0.008   9.976  20.066  0.00  0.00    +0.000 A 
ATOM     19  C   UNL     1      -0.563  10.696  21.156  0.00  0.00    +0.000 A 
ATOM     20  C   UNL     1      -1.576  11.806  21.013  0.00  0.00    +0.000 C 
ATOM     21  C   UNL     1      -0.126  10.421  22.464  0.00  0.00    +0.000 A 
ATOM     22  C   UNL     1       0.846   9.458  22.707  0.00  0.00    +0.000 A 
ATOM     23  C   UNL     1       1.390   8.747  21.647  0.00  0.00    +0.000 A 
ATOM     24  C   UNL     1       0.970   8.979  20.325  0.00  0.00    +0.000 A 
BRANCH  18  27
ATOM     25  C   UNL     1      -1.982  10.454  16.771  0.00  0.00    +0.000 C 
ATOM     26  C   UNL     1      -1.613  10.066  18.163  0.00  0.00    +0.000 C 
ATOM     27  C   UNL     1      -0.409  10.331  18.693  0.00  0.00    +0.000 C 
ENDBRANCH  18  27
ENDBRANCH   1  24
TORSDOF 5
ENDMDL
MODEL 6
REMARK VINA RESULT:      -7.1      2.220      3.510
REMARK  Name = 
REMARK  7 active torsions:
REMARK  status: ('A' for Active; 'I' for Inactive)
REMARK    1  A    between atoms: C_1  and  C_2
REMARK    2  A    between atoms: C_3  and  C_4
REMARK    3  A    between atoms: C_5  and  C_6
REMARK    4  A    between atoms: C_10  and  C_11
REMARK    5  A    between atoms: N_13  and  C_14
REMARK    6  A    between atoms: C_14  and  C_15
REMARK    7  A    between atoms: C_15  and  O_17
REMARK                            x       y       z     vdW  Elec       q    Type
REMARK                         _______ _______ _______ _____ _____    ______ ____
ROOT
ATOM      1  C   UNL     1       2.924   5.454  18.141  0.00  0.00    +0.000 C 
ATOM      2  O   UNL     1       2.243   4.687  17.471  0.00  0.00    +0.000 OA
ATOM      3  N   UNL     1       4.241   5.135  18.453  0.00  0.00    +0.000 N 
ATOM      4  H   UNL     1       4.587   5.567  19.303  0.00  0.00    +0.000 HD
ENDROOT
BRANCH   3   5
ATOM      5  C   UNL     1       4.845   3.784  18.188  0.00  0.00    +0.000 C 
ATOM      6  C   UNL     1       4.437   3.265  16.758  0.00  0.00    +0.000 C 
ATOM      7  C   UNL     1       5.425   3.968  15.880  0.00  0.00    +0.000 A 
ATOM      8  C   UNL     1       5.350   4.171  14.515  0.00  0.00    +0.000 A 
ATOM      9  C   UNL     1       6.302   5.001  13.931  0.00  0.00    +0.000 A 
ATOM     10  C   UNL     1       7.302   5.600  14.716  0.00  0.00    +0.000 A 
ATOM     11  C   UNL     1       7.419   5.304  16.080  0.00  0.00    +0.000 A 
ATOM     12  C   UNL     1       6.490   4.453  16.647  0.00  0.00    +0.000 A 
ATOM     13  C   UNL     1       6.384   3.939  18.064  0.00  0.00    +0.000 C 
BRANCH   5  14
ATOM     14  C   UNL     1       4.366   2.687  19.182  0.00  0.00    +0.000 C 
ATOM     15  O   UNL     1       4.952   2.407  20.222  0.00  0.00    +0.000 OA
BRANCH  14  16
ATOM     16  O   UNL     1       3.225   2.042  18.864  0.00  0.00    +0.000 OA
ATOM     17  H   UNL     1       3.351   1.078  18.687  0.00  0.00    +0.000 HD
ENDBRANCH  14  16
ENDBRANCH   5  14
ENDBRANCH   3   5
BRANCH   1  24
ATOM     18  C   UNL     1       1.910   6.998  19.928  0.00  0.00    +0.000 A 
ATOM     19  C   UNL     1       1.392   8.274  20.272  0.00  0.00    +0.000 A 
ATOM     20  C   UNL     1       0.794   8.613  21.616  0.00  0.00    +0.000 C 
ATOM     21  C   UNL     1       1.369   9.296  19.307  0.00  0.00    +0.000 A 
ATOM     22  C   UNL     1       1.840   9.076  18.019  0.00  0.00    +0.000 A 
ATOM     23  C   UNL     1       2.353   7.833  17.676  0.00  0.00    +0.000 A 
ATOM     24  C   UNL     1       2.409   6.787  18.616  0.00  0.00    +0.000 A 
BRANCH  18  27
ATOM     25  C   UNL     1       1.507   3.560  21.663  0.00  0.00    +0.000 C 
ATOM     26  C   UNL     1       1.544   4.635  20.629  0.00  0.00    +0.000 C 
ATOM     27  C   UNL     1       1.851   5.909  20.919  0.00  0.00    +0.000 C 
ENDBRANCH  18  27
ENDBRANCH   1  24
TORSDOF 5
ENDMDL
MODEL 7
REMARK VINA RESULT:      -7.0      6.925      9.648
REMARK  Name = 
REMARK  7 active torsions:
REMARK  status: ('A' for Active; 'I' for Inactive)
REMARK    1  A    between atoms: C_1  and  C_2
REMARK    2  A    between atoms: C_3  and  C_4
REMARK    3  A    between atoms: C_5  and  C_6
REMARK    4  A    between atoms: C_10  and  C_11
REMARK    5  A    between atoms: N_13  and  C_14
REMARK    6  A    between atoms: C_14  and  C_15
REMARK    7  A    between atoms: C_15  and  O_17
REMARK                            x       y       z     vdW  Elec       q    Type
REMARK                         _______ _______ _______ _____ _____    ______ ____
ROOT
ATOM      1  C   UNL     1      -4.790  11.359  18.150  0.00  0.00    +0.000 C 
ATOM      2  O   UNL     1      -4.947  12.018  17.128  0.00  0.00    +0.000 OA
ATOM      3  N   UNL     1      -3.554  10.790  18.435  0.00  0.00    +0.000 N 
ATOM      4  H   UNL     1      -3.599   9.964  19.023  0.00  0.00    +0.000 HD
ENDROOT
BRANCH   3   5
ATOM      5  C   UNL     1      -2.417  10.756  17.452  0.00  0.00    +0.000 C 
ATOM      6  C   UNL     1      -1.635  12.122  17.463  0.00  0.00    +0.000 C 
ATOM      7  C   UNL     1      -0.727  11.951  18.640  0.00  0.00    +0.000 A 
ATOM      8  C   UNL     1      -0.055  12.935  19.341  0.00  0.00    +0.000 A 
ATOM      9  C   UNL     1       0.601  12.563  20.512  0.00  0.00    +0.000 A 
ATOM     10  C   UNL     1       0.575  11.228  20.948  0.00  0.00    +0.000 A 
ATOM     11  C   UNL     1      -0.029  10.229  20.173  0.00  0.00    +0.000 A 
ATOM     12  C   UNL     1      -0.650  10.601  18.995  0.00  0.00    +0.000 A 
ATOM     13  C   UNL     1      -1.347   9.751  17.959  0.00  0.00    +0.000 C 
BRANCH   5  14
ATOM     14  C   UNL     1      -2.877  10.549  15.981  0.00  0.00    +0.000 C 
ATOM     15  O   UNL     1      -3.123   9.452  15.491  0.00  0.00    +0.000 OA
BRANCH  14  16
ATOM     16  O   UNL     1      -3.029  11.662  15.235  0.00  0.00    +0.000 OA
ATOM     17  H   UNL     1      -3.547  11.516  14.406  0.00  0.00    +0.000 HD
ENDBRANCH  14  16
ENDBRANCH   5  14
ENDBRANCH   3   5
BRANCH   1  24
ATOM     18  C   UNL     1      -6.066  12.043  20.273  0.00  0.00    +0.000 A 
ATOM     19  C   UNL     1      -7.090  11.757  21.215  0.00  0.00    +0.000 A 
ATOM     20  C   UNL     1      -7.357  12.578  22.452  0.00  0.00    +0.000 C 
ATOM     21  C   UNL     1      -7.890  10.614  21.043  0.00  0.00    +0.000 A 
ATOM     22  C   UNL     1      -7.693   9.756  19.968  0.00  0.00    +0.000 A 
ATOM     23  C   UNL     1      -6.698  10.031  19.042  0.00  0.00    +0.000 A 
ATOM     24  C   UNL     1      -5.884  11.172  19.166  0.00  0.00    +0.000 A 
BRANCH  18  27
ATOM     25  C   UNL     1      -3.093  14.305  21.291  0.00  0.00    +0.000 C 
ATOM     26  C   UNL     1      -3.967  13.113  21.083  0.00  0.00    +0.000 C 
ATOM     27  C   UNL     1      -5.177  13.194  20.508  0.00  0.00    +0.000 C 
ENDBRANCH  18  27
ENDBRANCH   1  24
TORSDOF 5
ENDMDL
MODEL 8
REMARK VINA RESULT:      -7.0      0.873      1.214
REMARK  Name = 
REMARK  7 active torsions:
REMARK  status: ('A' for Active; 'I' for Inactive)
REMARK    1  A    between atoms: C_1  and  C_2
REMARK    2  A    between atoms: C_3  and  C_4
REMARK    3  A    between atoms: C_5  and  C_6
REMARK    4  A    between atoms: C_10  and  C_11
REMARK    5  A    between atoms: N_13  and  C_14
REMARK    6  A    between atoms: C_14  and  C_15
REMARK    7  A    between atoms: C_15  and  O_17
REMARK                            x       y       z     vdW  Elec       q    Type
REMARK                         _______ _______ _______ _____ _____    ______ ____
ROOT
ATOM      1  C   UNL     1       3.687   7.504  18.024  0.00  0.00    +0.000 C 
ATOM      2  O   UNL     1       4.832   7.940  18.023  0.00  0.00    +0.000 OA
ATOM      3  N   UNL     1       3.430   6.204  17.603  0.00  0.00    +0.000 N 
ATOM      4  H   UNL     1       2.493   6.056  17.244  0.00  0.00    +0.000 HD
ENDROOT
BRANCH   3   5
ATOM      5  C   UNL     1       4.462   5.336  16.938  0.00  0.00    +0.000 C 
ATOM      6  C   UNL     1       5.386   4.650  18.014  0.00  0.00    +0.000 C 
ATOM      7  C   UNL     1       4.555   3.478  18.435  0.00  0.00    +0.000 A 
ATOM      8  C   UNL     1       4.688   2.712  19.578  0.00  0.00    +0.000 A 
ATOM      9  C   UNL     1       3.695   1.776  19.849  0.00  0.00    +0.000 A 
ATOM     10  C   UNL     1       2.604   1.622  18.977  0.00  0.00    +0.000 A 
ATOM     11  C   UNL     1       2.538   2.339  17.775  0.00  0.00    +0.000 A 
ATOM     12  C   UNL     1       3.544   3.243  17.496  0.00  0.00    +0.000 A 
ATOM     13  C   UNL     1       3.749   4.122  16.284  0.00  0.00    +0.000 C 
BRANCH   5  14
ATOM     14  C   UNL     1       5.423   6.123  16.004  0.00  0.00    +0.000 C 
ATOM     15  O   UNL     1       5.078   6.631  14.942  0.00  0.00    +0.000 OA
BRANCH  14  16
ATOM     16  O   UNL     1       6.697   6.259  16.425  0.00  0.00    +0.000 OA
ATOM     17  H   UNL     1       7.088   5.424  16.783  0.00  0.00    +0.000 HD
ENDBRANCH  14  16
ENDBRANCH   5  14
ENDBRANCH   3   5
BRANCH   1  24
ATOM     18  C   UNL     1       1.828   8.008  19.726  0.00  0.00    +0.000 A 
ATOM     19  C   UNL     1       0.697   8.787  20.088  0.00  0.00    +0.000 A 
ATOM     20  C   UNL     1      -0.142   8.543  21.318  0.00  0.00    +0.000 C 
ATOM     21  C   UNL     1       0.272   9.826  19.242  0.00  0.00    +0.000 A 
ATOM     22  C   UNL     1       0.937  10.101  18.054  0.00  0.00    +0.000 A 
ATOM     23  C   UNL     1       2.046   9.348  17.696  0.00  0.00    +0.000 A 
ATOM     24  C   UNL     1       2.515   8.309  18.520  0.00  0.00    +0.000 A 
BRANCH  18  27
ATOM     25  C   UNL     1       2.137   4.499  21.332  0.00  0.00    +0.000 C 
ATOM     26  C   UNL     1       1.708   5.629  20.458  0.00  0.00    +0.000 C 
ATOM     27  C   UNL     1       2.214   6.867  20.574  0.00  0.00    +0.000 C 
ENDBRANCH  18  27
ENDBRANCH   1  24
TORSDOF 5
ENDMDL
MODEL 9
REMARK VINA RESULT:      -6.8      2.482      4.178
REMARK  Name = 
REMARK  7 active torsions:
REMARK  status: ('A' for Active; 'I' for Inactive)
REMARK    1  A    between atoms: C_1  and  C_2
REMARK    2  A    between atoms: C_3  and  C_4
REMARK    3  A    between atoms: C_5  and  C_6
REMARK    4  A    between atoms: C_10  and  C_11
REMARK    5  A    between atoms: N_13  and  C_14
REMARK    6  A    between atoms: C_14  and  C_15
REMARK    7  A    between atoms: C_15  and  O_17
REMARK                            x       y       z     vdW  Elec       q    Type
REMARK                         _______ _______ _______ _____ _____    ______ ____
ROOT
ATOM      1  C   UNL     1       1.923   5.473  19.778  0.00  0.00    +0.000 C 
ATOM      2  O   UNL     1       1.059   4.607  19.711  0.00  0.00    +0.000 OA
ATOM      3  N   UNL     1       3.262   5.144  19.597  0.00  0.00    +0.000 N 
ATOM      4  H   UNL     1       3.914   5.771  20.057  0.00  0.00    +0.000 HD
ENDROOT
BRANCH   3   5
ATOM      5  C   UNL     1       3.758   3.727  19.519  0.00  0.00    +0.000 C 
ATOM      6  C   UNL     1       3.621   3.172  18.052  0.00  0.00    +0.000 C 
ATOM      7  C   UNL     1       4.849   3.722  17.396  0.00  0.00    +0.000 A 
ATOM      8  C   UNL     1       5.099   3.855  16.043  0.00  0.00    +0.000 A 
ATOM      9  C   UNL     1       6.241   4.552  15.660  0.00  0.00    +0.000 A 
ATOM     10  C   UNL     1       7.103   5.092  16.630  0.00  0.00    +0.000 A 
ATOM     11  C   UNL     1       6.884   4.863  17.994  0.00  0.00    +0.000 A 
ATOM     12  C   UNL     1       5.765   4.142  18.365  0.00  0.00    +0.000 A 
ATOM     13  C   UNL     1       5.295   3.722  19.739  0.00  0.00    +0.000 C 
BRANCH   5  14
ATOM     14  C   UNL     1       2.956   2.742  20.415  0.00  0.00    +0.000 C 
ATOM     15  O   UNL     1       3.114   2.639  21.627  0.00  0.00    +0.000 OA
BRANCH  14  16
ATOM     16  O   UNL     1       2.024   1.988  19.798  0.00  0.00    +0.000 OA
ATOM     17  H   UNL     1       1.606   1.313  20.387  0.00  0.00    +0.000 HD
ENDBRANCH  14  16
ENDBRANCH   5  14
ENDBRANCH   3   5
BRANCH   1  24
ATOM     18  C   UNL     1       1.848   7.932  19.035  0.00  0.00    +0.000 A 
ATOM     19  C   UNL     1       1.561   9.285  19.355  0.00  0.00    +0.000 A 
ATOM     20  C   UNL     1       1.820  10.449  18.431  0.00  0.00    +0.000 C 
ATOM     21  C   UNL     1       1.050   9.603  20.626  0.00  0.00    +0.000 A 
ATOM     22  C   UNL     1       0.827   8.615  21.577  0.00  0.00    +0.000 A 
ATOM     23  C   UNL     1       1.101   7.290  21.269  0.00  0.00    +0.000 A 
ATOM     24  C   UNL     1       1.597   6.925  20.004  0.00  0.00    +0.000 A 
BRANCH  18  27
ATOM     25  C   UNL     1       4.364   7.272  16.167  0.00  0.00    +0.000 C 
ATOM     26  C   UNL     1       3.784   7.608  17.500  0.00  0.00    +0.000 C 
ATOM     27  C   UNL     1       2.462   7.618  17.732  0.00  0.00    +0.000 C 
ENDBRANCH  18  27
ENDBRANCH   1  24
TORSDOF 5
ENDMDL
