MODEL 1
REMARK VINA RESULT:      -8.7      0.000      0.000
REMARK  Name = 
REMARK  6 active torsions:
REMARK  status: ('A' for Active; 'I' for Inactive)
REMARK    1  A    between atoms: C_1  and  C_2
REMARK    2  A    between atoms: C_2  and  O_3
REMARK    3  A    between atoms: O_3  and  C_4
REMARK    4  A    between atoms: C_7  and  C_8
REMARK    5  A    between atoms: N_10  and  C_11
REMARK    6  A    between atoms: C_15  and  C_16
REMARK                            x       y       z     vdW  Elec       q    Type
REMARK                         _______ _______ _______ _____ _____    ______ ____
ROOT
ATOM      1  C   UNL     1       6.535   6.392  16.847  0.00  0.00    +0.000 A 
ATOM      2  C   UNL     1       6.967   5.585  15.787  0.00  0.00    +0.000 A 
ATOM      3  C   UNL     1       6.369   4.355  15.520  0.00  0.00    +0.000 A 
ATOM      4  C   UNL     1       5.335   3.901  16.328  0.00  0.00    +0.000 A 
ATOM      5  C   UNL     1       4.919   4.661  17.429  0.00  0.00    +0.000 A 
ATOM      6  C   UNL     1       5.518   5.911  17.684  0.00  0.00    +0.000 A 
ENDROOT
BRANCH   5   7
ATOM      7  C   UNL     1       3.797   4.174  18.292  0.00  0.00    +0.000 A 
ATOM      8  C   UNL     1       2.413   4.319  17.720  0.00  0.00    +0.000 A 
ATOM      9  C   UNL     1       1.373   3.969  18.487  0.00  0.00    +0.000 A 
ATOM     10  C   UNL     1       1.620   3.459  19.775  0.00  0.00    +0.000 A 
ATOM     11  N   UNL     1       0.826   3.040  20.737  0.00  0.00    +0.000 NA
ATOM     12  N   UNL     1       1.623   2.634  21.788  0.00  0.00    +0.000 NA
ATOM     13  C   UNL     1       2.874   2.817  21.430  0.00  0.00    +0.000 A 
ATOM     14  N   UNL     1       2.934   3.331  20.167  0.00  0.00    +0.000 N 
ATOM     15  N   UNL     1       4.061   3.664  19.463  0.00  0.00    +0.000 NA
ENDBRANCH   5   7
BRANCH   1  18
ATOM     16  C   UNL     1       7.994   7.947  18.120  0.00  0.00    +0.000 C 
ATOM     17  O   UNL     1       8.483   7.125  18.889  0.00  0.00    +0.000 OA
ATOM     18  N   UNL     1       7.097   7.671  17.097  0.00  0.00    +0.000 N 
ATOM     19  H   UNL     1       6.953   8.383  16.391  0.00  0.00    +0.000 HD
BRANCH  16  23
ATOM     20  C   UNL     1       9.273  11.981  18.791  0.00  0.00    +0.000 A 
ATOM     21  C   UNL     1       9.697  10.942  19.615  0.00  0.00    +0.000 A 
ATOM     22  C   UNL     1       9.297   9.633  19.355  0.00  0.00    +0.000 A 
ATOM     23  C   UNL     1       8.458   9.351  18.268  0.00  0.00    +0.000 A 
ATOM     24  C   UNL     1       8.010  10.394  17.451  0.00  0.00    +0.000 A 
ATOM     25  C   UNL     1       8.415  11.711  17.721  0.00  0.00    +0.000 A 
BRANCH  20  26
ATOM     26  O   UNL     1       9.730  13.215  19.154  0.00  0.00    +0.000 OA
BRANCH  26  28
ATOM     27  C   UNL     1      11.578  14.649  19.561  0.00  0.00    +0.000 C 
ATOM     28  C   UNL     1      10.994  13.606  18.625  0.00  0.00    +0.000 C 
ENDBRANCH  26  28
ENDBRANCH  20  26
ENDBRANCH  16  23
ENDBRANCH   1  18
TORSDOF 5
ENDMDL
MODEL 2
REMARK VINA RESULT:      -8.7      0.425      1.093
REMARK  Name = 
REMARK  6 active torsions:
REMARK  status: ('A' for Active; 'I' for Inactive)
REMARK    1  A    between atoms: C_1  and  C_2
REMARK    2  A    between atoms: C_2  and  O_3
REMARK    3  A    between atoms: O_3  and  C_4
REMARK    4  A    between atoms: C_7  and  C_8
REMARK    5  A    between atoms: N_10  and  C_11
REMARK    6  A    between atoms: C_15  and  C_16
REMARK                            x       y       z     vdW  Elec       q    Type
REMARK                         _______ _______ _______ _____ _____    ______ ____
ROOT
ATOM      1  C   UNL     1       6.591   6.443  16.886  0.00  0.00    +0.000 A 
ATOM      2  C   UNL     1       7.086   5.654  15.840  0.00  0.00    +0.000 A 
ATOM      3  C   UNL     1       6.512   4.426  15.522  0.00  0.00    +0.000 A 
ATOM      4  C   UNL     1       5.439   3.953  16.266  0.00  0.00    +0.000 A 
ATOM      5  C   UNL     1       4.958   4.694  17.354  0.00  0.00    +0.000 A 
ATOM      6  C   UNL     1       5.533   5.943  17.660  0.00  0.00    +0.000 A 
ENDROOT
BRANCH   5   7
ATOM      7  C   UNL     1       3.794   4.186  18.148  0.00  0.00    +0.000 A 
ATOM      8  C   UNL     1       2.452   4.257  17.470  0.00  0.00    +0.000 A 
ATOM      9  C   UNL     1       1.373   3.886  18.169  0.00  0.00    +0.000 A 
ATOM     10  C   UNL     1       1.541   3.426  19.488  0.00  0.00    +0.000 A 
ATOM     11  N   UNL     1       0.694   3.004  20.402  0.00  0.00    +0.000 NA
ATOM     12  N   UNL     1       1.424   2.665  21.522  0.00  0.00    +0.000 NA
ATOM     13  C   UNL     1       2.691   2.888  21.252  0.00  0.00    +0.000 A 
ATOM     14  N   UNL     1       2.826   3.366  19.980  0.00  0.00    +0.000 N 
ATOM     15  N   UNL     1       3.989   3.724  19.351  0.00  0.00    +0.000 NA
ENDBRANCH   5   7
BRANCH   1  18
ATOM     16  C   UNL     1       8.039   7.970  18.205  0.00  0.00    +0.000 C 
ATOM     17  O   UNL     1       8.558   7.125  18.928  0.00  0.00    +0.000 OA
ATOM     18  N   UNL     1       7.130   7.722  17.185  0.00  0.00    +0.000 N 
ATOM     19  H   UNL     1       6.958   8.461  16.515  0.00  0.00    +0.000 HD
BRANCH  16  23
ATOM     20  C   UNL     1       9.353  12.034  18.547  0.00  0.00    +0.000 A 
ATOM     21  C   UNL     1       8.472  11.642  17.542  0.00  0.00    +0.000 A 
ATOM     22  C   UNL     1       8.031  10.322  17.474  0.00  0.00    +0.000 A 
ATOM     23  C   UNL     1       8.475   9.377  18.409  0.00  0.00    +0.000 A 
ATOM     24  C   UNL     1       9.378   9.760  19.406  0.00  0.00    +0.000 A 
ATOM     25  C   UNL     1       9.821  11.091  19.467  0.00  0.00    +0.000 A 
BRANCH  20  26
ATOM     26  O   UNL     1       9.714  13.351  18.502  0.00  0.00    +0.000 OA
BRANCH  26  28
ATOM     27  C   UNL     1      11.279  14.132  16.898  0.00  0.00    +0.000 C 
ATOM     28  C   UNL     1      11.101  13.623  18.317  0.00  0.00    +0.000 C 
ENDBRANCH  26  28
ENDBRANCH  20  26
ENDBRANCH  16  23
ENDBRANCH   1  18
TORSDOF 5
ENDMDL
MODEL 3
REMARK VINA RESULT:      -8.5      5.435      8.131
REMARK  Name = 
REMARK  6 active torsions:
REMARK  status: ('A' for Active; 'I' for Inactive)
REMARK    1  A    between atoms: C_1  and  C_2
REMARK    2  A    between atoms: C_2  and  O_3
REMARK    3  A    between atoms: O_3  and  C_4
REMARK    4  A    between atoms: C_7  and  C_8
REMARK    5  A    between atoms: N_10  and  C_11
REMARK    6  A    between atoms: C_15  and  C_16
REMARK                            x       y       z     vdW  Elec       q    Type
REMARK                         _______ _______ _______ _____ _____    ______ ____
ROOT
ATOM      1  C   UNL     1       2.194   5.452  20.598  0.00  0.00    +0.000 A 
ATOM      2  C   UNL     1       1.959   4.149  21.053  0.00  0.00    +0.000 A 
ATOM      3  C   UNL     1       2.688   3.067  20.565  0.00  0.00    +0.000 A 
ATOM      4  C   UNL     1       3.658   3.271  19.593  0.00  0.00    +0.000 A 
ATOM      5  C   UNL     1       3.878   4.556  19.079  0.00  0.00    +0.000 A 
ATOM      6  C   UNL     1       3.147   5.648  19.587  0.00  0.00    +0.000 A 
ENDROOT
BRANCH   5   7
ATOM      7  C   UNL     1       4.931   4.775  18.037  0.00  0.00    +0.000 A 
ATOM      8  C   UNL     1       6.213   5.401  18.516  0.00  0.00    +0.000 A 
ATOM      9  C   UNL     1       7.153   5.686  17.608  0.00  0.00    +0.000 A 
ATOM     10  C   UNL     1       6.915   5.367  16.259  0.00  0.00    +0.000 A 
ATOM     11  N   UNL     1       7.629   5.522  15.165  0.00  0.00    +0.000 NA
ATOM     12  N   UNL     1       6.896   5.011  14.113  0.00  0.00    +0.000 NA
ATOM     13  C   UNL     1       5.762   4.561  14.602  0.00  0.00    +0.000 A 
ATOM     14  N   UNL     1       5.720   4.754  15.953  0.00  0.00    +0.000 N 
ATOM     15  N   UNL     1       4.697   4.427  16.803  0.00  0.00    +0.000 NA
ENDBRANCH   5   7
BRANCH   1  18
ATOM     16  C   UNL     1       1.460   7.824  20.528  0.00  0.00    +0.000 C 
ATOM     17  O   UNL     1       1.945   8.117  19.439  0.00  0.00    +0.000 OA
ATOM     18  N   UNL     1       1.498   6.571  21.126  0.00  0.00    +0.000 N 
ATOM     19  H   UNL     1       0.868   6.398  21.899  0.00  0.00    +0.000 HD
BRANCH  16  23
ATOM     20  C   UNL     1      -0.479  11.068  22.547  0.00  0.00    +0.000 A 
ATOM     21  C   UNL     1       0.225  11.271  21.362  0.00  0.00    +0.000 A 
ATOM     22  C   UNL     1       0.815  10.195  20.705  0.00  0.00    +0.000 A 
ATOM     23  C   UNL     1       0.715   8.900  21.233  0.00  0.00    +0.000 A 
ATOM     24  C   UNL     1       0.030   8.694  22.435  0.00  0.00    +0.000 A 
ATOM     25  C   UNL     1      -0.561   9.784  23.094  0.00  0.00    +0.000 A 
BRANCH  20  26
ATOM     26  O   UNL     1      -1.006  12.203  23.095  0.00  0.00    +0.000 OA
BRANCH  26  28
ATOM     27  C   UNL     1      -3.312  12.313  23.649  0.00  0.00    +0.000 C 
ATOM     28  C   UNL     1      -2.271  12.624  22.589  0.00  0.00    +0.000 C 
ENDBRANCH  26  28
ENDBRANCH  20  26
ENDBRANCH  16  23
ENDBRANCH   1  18
TORSDOF 5
ENDMDL
MODEL 4
REMARK VINA RESULT:      -8.1      1.047      1.640
REMARK  Name = 
REMARK  6 active torsions:
REMARK  status: ('A' for Active; 'I' for Inactive)
REMARK    1  A    between atoms: C_1  and  C_2
REMARK    2  A    between atoms: C_2  and  O_3
REMARK    3  A    between atoms: O_3  and  C_4
REMARK    4  A    between atoms: C_7  and  C_8
REMARK    5  A    between atoms: N_10  and  C_11
REMARK    6  A    between atoms: C_15  and  C_16
REMARK                            x       y       z     vdW  Elec       q    Type
REMARK                         _______ _______ _______ _____ _____    ______ ____
ROOT
ATOM      1  C   UNL     1       6.682   6.840  16.932  0.00  0.00    +0.000 A 
ATOM      2  C   UNL     1       7.198   5.988  15.948  0.00  0.00    +0.000 A 
ATOM      3  C   UNL     1       6.587   4.773  15.646  0.00  0.00    +0.000 A 
ATOM      4  C   UNL     1       5.454   4.379  16.345  0.00  0.00    +0.000 A 
ATOM      5  C   UNL     1       4.946   5.185  17.372  0.00  0.00    +0.000 A 
ATOM      6  C   UNL     1       5.560   6.420  17.661  0.00  0.00    +0.000 A 
ENDROOT
BRANCH   5   7
ATOM      7  C   UNL     1       3.718   4.763  18.116  0.00  0.00    +0.000 A 
ATOM      8  C   UNL     1       3.282   5.666  19.238  0.00  0.00    +0.000 A 
ATOM      9  C   UNL     1       2.235   5.290  19.981  0.00  0.00    +0.000 A 
ATOM     10  C   UNL     1       1.575   4.087  19.667  0.00  0.00    +0.000 A 
ATOM     11  N   UNL     1       0.543   3.469  20.199  0.00  0.00    +0.000 NA
ATOM     12  N   UNL     1       0.324   2.319  19.468  0.00  0.00    +0.000 NA
ATOM     13  C   UNL     1       1.226   2.278  18.514  0.00  0.00    +0.000 A 
ATOM     14  N   UNL     1       2.042   3.371  18.587  0.00  0.00    +0.000 N 
ATOM     15  N   UNL     1       3.102   3.667  17.772  0.00  0.00    +0.000 NA
ENDBRANCH   5   7
BRANCH   1  18
ATOM     16  C   UNL     1       8.158   8.347  18.243  0.00  0.00    +0.000 C 
ATOM     17  O   UNL     1       8.631   7.503  18.997  0.00  0.00    +0.000 OA
ATOM     18  N   UNL     1       7.261   8.106  17.211  0.00  0.00    +0.000 N 
ATOM     19  H   UNL     1       7.130   8.835  16.519  0.00  0.00    +0.000 HD
BRANCH  16  23
ATOM     20  C   UNL     1       9.577  12.382  18.508  0.00  0.00    +0.000 A 
ATOM     21  C   UNL     1       8.570  12.027  17.613  0.00  0.00    +0.000 A 
ATOM     22  C   UNL     1       8.100  10.716  17.572  0.00  0.00    +0.000 A 
ATOM     23  C   UNL     1       8.641   9.742  18.422  0.00  0.00    +0.000 A 
ATOM     24  C   UNL     1       9.668  10.088  19.305  0.00  0.00    +0.000 A 
ATOM     25  C   UNL     1      10.140  11.410  19.340  0.00  0.00    +0.000 A 
BRANCH  20  26
ATOM     26  O   UNL     1       9.952  13.693  18.447  0.00  0.00    +0.000 OA
BRANCH  26  28
ATOM     27  C   UNL     1      11.731  13.761  16.878  0.00  0.00    +0.000 C 
ATOM     28  C   UNL     1      11.350  13.949  18.335  0.00  0.00    +0.000 C 
ENDBRANCH  26  28
ENDBRANCH  20  26
ENDBRANCH  16  23
ENDBRANCH   1  18
TORSDOF 5
ENDMDL
MODEL 5
REMARK VINA RESULT:      -8.1      1.020      1.253
REMARK  Name = 
REMARK  6 active torsions:
REMARK  status: ('A' for Active; 'I' for Inactive)
REMARK    1  A    between atoms: C_1  and  C_2
REMARK    2  A    between atoms: C_2  and  O_3
REMARK    3  A    between atoms: O_3  and  C_4
REMARK    4  A    between atoms: C_7  and  C_8
REMARK    5  A    between atoms: N_10  and  C_11
REMARK    6  A    between atoms: C_15  and  C_16
REMARK                            x       y       z     vdW  Elec       q    Type
REMARK                         _______ _______ _______ _____ _____    ______ ____
ROOT
ATOM      1  C   UNL     1       6.734   6.793  16.924  0.00  0.00    +0.000 A 
ATOM      2  C   UNL     1       7.268   5.911  15.976  0.00  0.00    +0.000 A 
ATOM      3  C   UNL     1       6.668   4.683  15.708  0.00  0.00    +0.000 A 
ATOM      4  C   UNL     1       5.527   4.307  16.403  0.00  0.00    +0.000 A 
ATOM      5  C   UNL     1       5.001   5.144  17.396  0.00  0.00    +0.000 A 
ATOM      6  C   UNL     1       5.604   6.392  17.652  0.00  0.00    +0.000 A 
ENDROOT
BRANCH   5   7
ATOM      7  C   UNL     1       3.765   4.740  18.137  0.00  0.00    +0.000 A 
ATOM      8  C   UNL     1       3.351   5.639  19.270  0.00  0.00    +0.000 A 
ATOM      9  C   UNL     1       2.296   5.277  20.011  0.00  0.00    +0.000 A 
ATOM     10  C   UNL     1       1.610   4.093  19.683  0.00  0.00    +0.000 A 
ATOM     11  N   UNL     1       0.566   3.491  20.210  0.00  0.00    +0.000 NA
ATOM     12  N   UNL     1       0.320   2.356  19.466  0.00  0.00    +0.000 NA
ATOM     13  C   UNL     1       1.220   2.306  18.509  0.00  0.00    +0.000 A 
ATOM     14  N   UNL     1       2.060   3.380  18.594  0.00  0.00    +0.000 N 
ATOM     15  N   UNL     1       3.125   3.662  17.781  0.00  0.00    +0.000 NA
ENDBRANCH   5   7
BRANCH   1  18
ATOM     16  C   UNL     1       8.178   8.354  18.208  0.00  0.00    +0.000 C 
ATOM     17  O   UNL     1       8.641   7.539  19.000  0.00  0.00    +0.000 OA
ATOM     18  N   UNL     1       7.302   8.071  17.168  0.00  0.00    +0.000 N 
ATOM     19  H   UNL     1       7.182   8.774  16.449  0.00  0.00    +0.000 HD
BRANCH  16  23
ATOM     20  C   UNL     1       9.481  12.385  18.848  0.00  0.00    +0.000 A 
ATOM     21  C   UNL     1       9.878  11.354  19.696  0.00  0.00    +0.000 A 
ATOM     22  C   UNL     1       9.471  10.046  19.446  0.00  0.00    +0.000 A 
ATOM     23  C   UNL     1       8.652   9.756  18.345  0.00  0.00    +0.000 A 
ATOM     24  C   UNL     1       8.232  10.791  17.505  0.00  0.00    +0.000 A 
ATOM     25  C   UNL     1       8.643  12.108  17.765  0.00  0.00    +0.000 A 
BRANCH  20  26
ATOM     26  O   UNL     1       9.941  13.621  19.204  0.00  0.00    +0.000 OA
BRANCH  26  28
ATOM     27  C   UNL     1      11.677  15.079  19.909  0.00  0.00    +0.000 C 
ATOM     28  C   UNL     1      11.154  13.655  19.953  0.00  0.00    +0.000 C 
ENDBRANCH  26  28
ENDBRANCH  20  26
ENDBRANCH  16  23
ENDBRANCH   1  18
TORSDOF 5
ENDMDL
MODEL 6
REMARK VINA RESULT:      -8.0      5.688      8.156
REMARK  Name = 
REMARK  6 active torsions:
REMARK  status: ('A' for Active; 'I' for Inactive)
REMARK    1  A    between atoms: C_1  and  C_2
REMARK    2  A    between atoms: C_2  and  O_3
REMARK    3  A    between atoms: O_3  and  C_4
REMARK    4  A    between atoms: C_7  and  C_8
REMARK    5  A    between atoms: N_10  and  C_11
REMARK    6  A    between atoms: C_15  and  C_16
REMARK                            x       y       z     vdW  Elec       q    Type
REMARK                         _______ _______ _______ _____ _____    ______ ____
ROOT
ATOM      1  C   UNL     1       1.935   5.980  20.446  0.00  0.00    +0.000 A 
ATOM      2  C   UNL     1       1.625   4.691  20.898  0.00  0.00    +0.000 A 
ATOM      3  C   UNL     1       2.233   3.564  20.350  0.00  0.00    +0.000 A 
ATOM      4  C   UNL     1       3.152   3.709  19.320  0.00  0.00    +0.000 A 
ATOM      5  C   UNL     1       3.442   4.982  18.810  0.00  0.00    +0.000 A 
ATOM      6  C   UNL     1       2.835   6.119  19.380  0.00  0.00    +0.000 A 
ENDROOT
BRANCH   5   7
ATOM      7  C   UNL     1       4.442   5.136  17.707  0.00  0.00    +0.000 A 
ATOM      8  C   UNL     1       5.089   6.489  17.586  0.00  0.00    +0.000 A 
ATOM      9  C   UNL     1       5.931   6.697  16.567  0.00  0.00    +0.000 A 
ATOM     10  C   UNL     1       6.193   5.641  15.675  0.00  0.00    +0.000 A 
ATOM     11  N   UNL     1       6.954   5.543  14.607  0.00  0.00    +0.000 NA
ATOM     12  N   UNL     1       6.834   4.255  14.126  0.00  0.00    +0.000 NA
ATOM     13  C   UNL     1       6.007   3.611  14.919  0.00  0.00    +0.000 A 
ATOM     14  N   UNL     1       5.573   4.435  15.919  0.00  0.00    +0.000 N 
ATOM     15  N   UNL     1       4.696   4.125  16.924  0.00  0.00    +0.000 NA
ENDBRANCH   5   7
BRANCH   1  18
ATOM     16  C   UNL     1       1.252   8.368  20.393  0.00  0.00    +0.000 C 
ATOM     17  O   UNL     1       1.548   8.600  19.225  0.00  0.00    +0.000 OA
ATOM     18  N   UNL     1       1.365   7.141  21.033  0.00  0.00    +0.000 N 
ATOM     19  H   UNL     1       0.875   7.019  21.911  0.00  0.00    +0.000 HD
BRANCH  16  23
ATOM     20  C   UNL     1      -0.659  11.487  22.624  0.00  0.00    +0.000 A 
ATOM     21  C   UNL     1      -0.751  10.155  23.019  0.00  0.00    +0.000 A 
ATOM     22  C   UNL     1      -0.091   9.163  22.298  0.00  0.00    +0.000 A 
ATOM     23  C   UNL     1       0.665   9.494  21.165  0.00  0.00    +0.000 A 
ATOM     24  C   UNL     1       0.741  10.828  20.750  0.00  0.00    +0.000 A 
ATOM     25  C   UNL     1       0.070  11.822  21.479  0.00  0.00    +0.000 A 
BRANCH  20  26
ATOM     26  O   UNL     1      -1.355  12.361  23.409  0.00  0.00    +0.000 OA
BRANCH  26  28
ATOM     27  C   UNL     1      -3.448  12.702  22.342  0.00  0.00    +0.000 C 
ATOM     28  C   UNL     1      -2.751  12.111  23.554  0.00  0.00    +0.000 C 
ENDBRANCH  26  28
ENDBRANCH  20  26
ENDBRANCH  16  23
ENDBRANCH   1  18
TORSDOF 5
ENDMDL
MODEL 7
REMARK VINA RESULT:      -8.0      7.499      8.959
REMARK  Name = 
REMARK  6 active torsions:
REMARK  status: ('A' for Active; 'I' for Inactive)
REMARK    1  A    between atoms: C_1  and  C_2
REMARK    2  A    between atoms: C_2  and  O_3
REMARK    3  A    between atoms: O_3  and  C_4
REMARK    4  A    between atoms: C_7  and  C_8
REMARK    5  A    between atoms: N_10  and  C_11
REMARK    6  A    between atoms: C_15  and  C_16
REMARK                            x       y       z     vdW  Elec       q    Type
REMARK                         _______ _______ _______ _____ _____    ______ ____
ROOT
ATOM      1  C   UNL     1       0.936   9.640  19.729  0.00  0.00    +0.000 A 
ATOM      2  C   UNL     1       1.424  10.171  18.529  0.00  0.00    +0.000 A 
ATOM      3  C   UNL     1       2.226   9.418  17.674  0.00  0.00    +0.000 A 
ATOM      4  C   UNL     1       2.572   8.119  18.020  0.00  0.00    +0.000 A 
ATOM      5  C   UNL     1       2.144   7.579  19.240  0.00  0.00    +0.000 A 
ATOM      6  C   UNL     1       1.321   8.341  20.092  0.00  0.00    +0.000 A 
ENDROOT
BRANCH   5   7
ATOM      7  C   UNL     1       2.510   6.174  19.605  0.00  0.00    +0.000 A 
ATOM      8  C   UNL     1       1.585   5.480  20.568  0.00  0.00    +0.000 A 
ATOM      9  C   UNL     1       1.914   4.251  20.983  0.00  0.00    +0.000 A 
ATOM     10  C   UNL     1       3.087   3.655  20.485  0.00  0.00    +0.000 A 
ATOM     11  N   UNL     1       3.658   2.490  20.701  0.00  0.00    +0.000 NA
ATOM     12  N   UNL     1       4.800   2.436  19.927  0.00  0.00    +0.000 NA
ATOM     13  C   UNL     1       4.883   3.568  19.264  0.00  0.00    +0.000 A 
ATOM     14  N   UNL     1       3.827   4.376  19.573  0.00  0.00    +0.000 N 
ATOM     15  N   UNL     1       3.580   5.634  19.092  0.00  0.00    +0.000 NA
ENDBRANCH   5   7
BRANCH   1  18
ATOM     16  C   UNL     1       0.448  11.514  21.285  0.00  0.00    +0.000 C 
ATOM     17  O   UNL     1       1.533  12.081  21.207  0.00  0.00    +0.000 OA
ATOM     18  N   UNL     1       0.073  10.376  20.582  0.00  0.00    +0.000 N 
ATOM     19  H   UNL     1      -0.913  10.144  20.551  0.00  0.00    +0.000 HD
BRANCH  16  23
ATOM     20  C   UNL     1      -2.661  13.195  23.706  0.00  0.00    +0.000 A 
ATOM     21  C   UNL     1      -2.564  11.820  23.506  0.00  0.00    +0.000 A 
ATOM     22  C   UNL     1      -1.523  11.295  22.745  0.00  0.00    +0.000 A 
ATOM     23  C   UNL     1      -0.569  12.144  22.166  0.00  0.00    +0.000 A 
ATOM     24  C   UNL     1      -0.676  13.527  22.344  0.00  0.00    +0.000 A 
ATOM     25  C   UNL     1      -1.730  14.050  23.110  0.00  0.00    +0.000 A 
BRANCH  20  26
ATOM     26  O   UNL     1      -3.728  13.584  24.465  0.00  0.00    +0.000 OA
BRANCH  26  28
ATOM     27  C   UNL     1      -5.983  13.043  23.961  0.00  0.00    +0.000 C 
ATOM     28  C   UNL     1      -4.733  12.600  24.699  0.00  0.00    +0.000 C 
ENDBRANCH  26  28
ENDBRANCH  20  26
ENDBRANCH  16  23
ENDBRANCH   1  18
TORSDOF 5
ENDMDL
MODEL 8
REMARK VINA RESULT:      -8.0      7.569     10.068
REMARK  Name = 
REMARK  6 active torsions:
REMARK  status: ('A' for Active; 'I' for Inactive)
REMARK    1  A    between atoms: C_1  and  C_2
REMARK    2  A    between atoms: C_2  and  O_3
REMARK    3  A    between atoms: O_3  and  C_4
REMARK    4  A    between atoms: C_7  and  C_8
REMARK    5  A    between atoms: N_10  and  C_11
REMARK    6  A    between atoms: C_15  and  C_16
REMARK                            x       y       z     vdW  Elec       q    Type
REMARK                         _______ _______ _______ _____ _____    ______ ____
ROOT
ATOM      1  C   UNL     1       0.590  10.502  19.022  0.00  0.00    +0.000 A 
ATOM      2  C   UNL     1       1.257  11.733  19.035  0.00  0.00    +0.000 A 
ATOM      3  C   UNL     1       0.572  12.932  18.858  0.00  0.00    +0.000 A 
ATOM      4  C   UNL     1      -0.800  12.918  18.645  0.00  0.00    +0.000 A 
ATOM      5  C   UNL     1      -1.487  11.698  18.573  0.00  0.00    +0.000 A 
ATOM      6  C   UNL     1      -0.789  10.489  18.767  0.00  0.00    +0.000 A 
ENDROOT
BRANCH   5   7
ATOM      7  C   UNL     1      -2.968  11.686  18.352  0.00  0.00    +0.000 A 
ATOM      8  C   UNL     1      -3.428  11.245  16.990  0.00  0.00    +0.000 A 
ATOM      9  C   UNL     1      -4.739  11.291  16.721  0.00  0.00    +0.000 A 
ATOM     10  C   UNL     1      -5.624  11.723  17.726  0.00  0.00    +0.000 A 
ATOM     11  N   UNL     1      -6.930  11.873  17.761  0.00  0.00    +0.000 NA
ATOM     12  N   UNL     1      -7.265  12.321  19.023  0.00  0.00    +0.000 NA
ATOM     13  C   UNL     1      -6.152  12.426  19.714  0.00  0.00    +0.000 A 
ATOM     14  N   UNL     1      -5.083  12.058  18.948  0.00  0.00    +0.000 N 
ATOM     15  N   UNL     1      -3.764  12.049  19.318  0.00  0.00    +0.000 NA
ENDBRANCH   5   7
BRANCH   1  18
ATOM     16  C   UNL     1       2.019   8.602  18.303  0.00  0.00    +0.000 C 
ATOM     17  O   UNL     1       2.269   9.002  17.170  0.00  0.00    +0.000 OA
ATOM     18  N   UNL     1       1.267   9.276  19.256  0.00  0.00    +0.000 N 
ATOM     19  H   UNL     1       1.329   8.961  20.216  0.00  0.00    +0.000 HD
BRANCH  16  23
ATOM     20  C   UNL     1       3.752   4.791  19.214  0.00  0.00    +0.000 A 
ATOM     21  C   UNL     1       4.154   5.519  18.097  0.00  0.00    +0.000 A 
ATOM     22  C   UNL     1       3.602   6.772  17.842  0.00  0.00    +0.000 A 
ATOM     23  C   UNL     1       2.632   7.308  18.701  0.00  0.00    +0.000 A 
ATOM     24  C   UNL     1       2.208   6.570  19.811  0.00  0.00    +0.000 A 
ATOM     25  C   UNL     1       2.766   5.306  20.060  0.00  0.00    +0.000 A 
BRANCH  20  26
ATOM     26  O   UNL     1       4.364   3.577  19.349  0.00  0.00    +0.000 OA
BRANCH  26  28
ATOM     27  C   UNL     1       3.444   1.612  18.387  0.00  0.00    +0.000 C 
ATOM     28  C   UNL     1       3.516   2.468  19.638  0.00  0.00    +0.000 C 
ENDBRANCH  26  28
ENDBRANCH  20  26
ENDBRANCH  16  23
ENDBRANCH   1  18
TORSDOF 5
ENDMDL
MODEL 9
REMARK VINA RESULT:      -7.9      5.783      7.810
REMARK  Name = 
REMARK  6 active torsions:
REMARK  status: ('A' for Active; 'I' for Inactive)
REMARK    1  A    between atoms: C_1  and  C_2
REMARK    2  A    between atoms: C_2  and  O_3
REMARK    3  A    between atoms: O_3  and  C_4
REMARK    4  A    between atoms: C_7  and  C_8
REMARK    5  A    between atoms: N_10  and  C_11
REMARK    6  A    between atoms: C_15  and  C_16
REMARK                            x       y       z     vdW  Elec       q    Type
REMARK                         _______ _______ _______ _____ _____    ______ ____
ROOT
ATOM      1  C   UNL     1       2.008   6.243  20.314  0.00  0.00    +0.000 A 
ATOM      2  C   UNL     1       1.508   4.992  20.695  0.00  0.00    +0.000 A 
ATOM      3  C   UNL     1       2.052   3.810  20.196  0.00  0.00    +0.000 A 
ATOM      4  C   UNL     1       3.098   3.864  19.285  0.00  0.00    +0.000 A 
ATOM      5  C   UNL     1       3.583   5.102  18.843  0.00  0.00    +0.000 A 
ATOM      6  C   UNL     1       3.038   6.293  19.364  0.00  0.00    +0.000 A 
ENDROOT
BRANCH   5   7
ATOM      7  C   UNL     1       4.718   5.157  17.869  0.00  0.00    +0.000 A 
ATOM      8  C   UNL     1       6.018   5.695  18.400  0.00  0.00    +0.000 A 
ATOM      9  C   UNL     1       7.039   5.835  17.546  0.00  0.00    +0.000 A 
ATOM     10  C   UNL     1       6.861   5.451  16.204  0.00  0.00    +0.000 A 
ATOM     11  N   UNL     1       7.657   5.469  15.157  0.00  0.00    +0.000 NA
ATOM     12  N   UNL     1       6.950   4.958  14.088  0.00  0.00    +0.000 NA
ATOM     13  C   UNL     1       5.749   4.644  14.520  0.00  0.00    +0.000 A 
ATOM     14  N   UNL     1       5.636   4.929  15.851  0.00  0.00    +0.000 N 
ATOM     15  N   UNL     1       4.534   4.751  16.644  0.00  0.00    +0.000 NA
ENDBRANCH   5   7
BRANCH   1  18
ATOM     16  C   UNL     1       1.278   8.609  20.122  0.00  0.00    +0.000 C 
ATOM     17  O   UNL     1       1.406   8.725  18.907  0.00  0.00    +0.000 OA
ATOM     18  N   UNL     1       1.501   7.453  20.858  0.00  0.00    +0.000 N 
ATOM     19  H   UNL     1       1.138   7.417  21.802  0.00  0.00    +0.000 HD
BRANCH  16  23
ATOM     20  C   UNL     1      -0.385  11.939  22.245  0.00  0.00    +0.000 A 
ATOM     21  C   UNL     1      -0.556  10.634  22.700  0.00  0.00    +0.000 A 
ATOM     22  C   UNL     1       0.026   9.571  22.012  0.00  0.00    +0.000 A 
ATOM     23  C   UNL     1       0.779   9.804  20.853  0.00  0.00    +0.000 A 
ATOM     24  C   UNL     1       0.934  11.110  20.379  0.00  0.00    +0.000 A 
ATOM     25  C   UNL     1       0.343  12.177  21.075  0.00  0.00    +0.000 A 
BRANCH  20  26
ATOM     26  O   UNL     1      -1.007  12.889  23.003  0.00  0.00    +0.000 OA
BRANCH  26  28
ATOM     27  C   UNL     1      -0.630  15.230  23.120  0.00  0.00    +0.000 C 
ATOM     28  C   UNL     1      -1.320  14.118  22.350  0.00  0.00    +0.000 C 
ENDBRANCH  26  28
ENDBRANCH  20  26
ENDBRANCH  16  23
ENDBRANCH   1  18
TORSDOF 5
ENDMDL
