MODEL 1
REMARK VINA RESULT:      -8.3      0.000      0.000
REMARK  Name = 
REMARK  6 active torsions:
REMARK  status: ('A' for Active; 'I' for Inactive)
REMARK    1  A    between atoms: C_1  and  C_2
REMARK    2  A    between atoms: C_6  and  N_7
REMARK    3  A    between atoms: N_7  and  S_8
REMARK    4  A    between atoms: S_8  and  C_11
REMARK    5  A    between atoms: C_14  and  C_15
REMARK    6  A    between atoms: N_23  and  C_24
REMARK                            x       y       z     vdW  Elec       q    Type
REMARK                         _______ _______ _______ _____ _____    ______ ____
ROOT
ATOM      1  C   UNL     1      -0.215   9.821  23.020  0.00  0.00    +0.000 C 
ATOM      2  C   UNL     1       0.441   9.320  21.770  0.00  0.00    +0.000 A 
ATOM      3  C   UNL     1       0.960   8.092  21.651  0.00  0.00    +0.000 A 
ATOM      4  C   UNL     1       1.595   7.664  20.407  0.00  0.00    +0.000 A 
ATOM      5  C   UNL     1       2.132   6.371  20.344  0.00  0.00    +0.000 A 
ATOM      6  C   UNL     1       2.765   5.922  19.189  0.00  0.00    +0.000 A 
ATOM      7  C   UNL     1       2.843   6.755  18.084  0.00  0.00    +0.000 A 
ATOM      8  C   UNL     1       2.299   8.044  18.145  0.00  0.00    +0.000 A 
ATOM      9  F   UNL     1       2.421   8.777  17.029  0.00  0.00    +0.000 F 
ATOM     10  C   UNL     1       1.666   8.539  19.303  0.00  0.00    +0.000 A 
ATOM     11  N   UNL     1       1.099   9.847  19.443  0.00  0.00    +0.000 N 
ATOM     12  C   UNL     1       1.110  10.840  18.383  0.00  0.00    +0.000 C 
ATOM     13  C   UNL     1       0.494  10.275  20.627  0.00  0.00    +0.000 A 
ATOM     14  O   UNL     1       0.007  11.399  20.764  0.00  0.00    +0.000 OA
ENDROOT
BRANCH   6  15
ATOM     15  N   UNL     1       3.315   4.612  19.191  0.00  0.00    +0.000 N 
ATOM     16  H   UNL     1       2.840   3.874  18.672  0.00  0.00    +0.000 HD
BRANCH  15  17
ATOM     17  S   UNL     1       4.990   4.414  19.210  0.00  0.00    +0.000 S 
ATOM     18  O   UNL     1       5.533   5.645  19.743  0.00  0.00    +0.000 OA
ATOM     19  O   UNL     1       5.308   3.136  19.809  0.00  0.00    +0.000 OA
BRANCH  17  20
ATOM     20  C   UNL     1       5.415   4.343  17.482  0.00  0.00    +0.000 A 
ATOM     21  C   UNL     1       6.692   4.706  17.044  0.00  0.00    +0.000 A 
ATOM     22  C   UNL     1       7.015   4.576  15.686  0.00  0.00    +0.000 A 
ATOM     23  C   UNL     1       6.066   4.090  14.776  0.00  0.00    +0.000 A 
ATOM     24  C   UNL     1       4.791   3.728  15.227  0.00  0.00    +0.000 A 
ATOM     25  C   UNL     1       4.470   3.841  16.581  0.00  0.00    +0.000 A 
BRANCH  23  26
ATOM     26  C   UNL     1       6.396   3.957  13.387  0.00  0.00    +0.000 C 
ATOM     27  N   UNL     1       6.653   3.848  12.260  0.00  0.00    +0.000 NA
ENDBRANCH  23  26
ENDBRANCH  17  20
ENDBRANCH  15  17
ENDBRANCH   6  15
TORSDOF 4
ENDMDL
MODEL 2
REMARK VINA RESULT:      -8.3      3.257      7.028
REMARK  Name = 
REMARK  6 active torsions:
REMARK  status: ('A' for Active; 'I' for Inactive)
REMARK    1  A    between atoms: C_1  and  C_2
REMARK    2  A    between atoms: C_6  and  N_7
REMARK    3  A    between atoms: N_7  and  S_8
REMARK    4  A    between atoms: S_8  and  C_11
REMARK    5  A    between atoms: C_14  and  C_15
REMARK    6  A    between atoms: N_23  and  C_24
REMARK                            x       y       z     vdW  Elec       q    Type
REMARK                         _______ _______ _______ _____ _____    ______ ____
ROOT
ATOM      1  C   UNL     1       6.298   3.894  13.324  0.00  0.00    +0.000 C 
ATOM      2  C   UNL     1       6.113   4.067  14.799  0.00  0.00    +0.000 A 
ATOM      3  C   UNL     1       5.234   3.362  15.521  0.00  0.00    +0.000 A 
ATOM      4  C   UNL     1       5.093   3.583  16.957  0.00  0.00    +0.000 A 
ATOM      5  C   UNL     1       4.148   2.822  17.659  0.00  0.00    +0.000 A 
ATOM      6  C   UNL     1       3.962   3.008  19.026  0.00  0.00    +0.000 A 
ATOM      7  C   UNL     1       4.735   3.940  19.701  0.00  0.00    +0.000 A 
ATOM      8  C   UNL     1       5.685   4.694  19.000  0.00  0.00    +0.000 A 
ATOM      9  F   UNL     1       6.387   5.568  19.735  0.00  0.00    +0.000 F 
ATOM     10  C   UNL     1       5.889   4.544  17.614  0.00  0.00    +0.000 A 
ATOM     11  N   UNL     1       6.832   5.287  16.830  0.00  0.00    +0.000 N 
ATOM     12  C   UNL     1       7.706   6.305  17.385  0.00  0.00    +0.000 C 
ATOM     13  C   UNL     1       6.975   5.093  15.454  0.00  0.00    +0.000 A 
ATOM     14  O   UNL     1       7.776   5.727  14.766  0.00  0.00    +0.000 OA
ENDROOT
BRANCH   6  15
ATOM     15  N   UNL     1       2.970   2.230  19.680  0.00  0.00    +0.000 N 
ATOM     16  H   UNL     1       3.252   1.594  20.427  0.00  0.00    +0.000 HD
BRANCH  15  17
ATOM     17  S   UNL     1       1.434   2.878  19.928  0.00  0.00    +0.000 S 
ATOM     18  O   UNL     1       0.565   2.227  18.971  0.00  0.00    +0.000 OA
ATOM     19  O   UNL     1       1.134   2.858  21.343  0.00  0.00    +0.000 OA
BRANCH  17  20
ATOM     20  C   UNL     1       1.616   4.575  19.420  0.00  0.00    +0.000 A 
ATOM     21  C   UNL     1       1.864   5.580  20.358  0.00  0.00    +0.000 A 
ATOM     22  C   UNL     1       2.068   6.896  19.920  0.00  0.00    +0.000 A 
ATOM     23  C   UNL     1       2.021   7.201  18.552  0.00  0.00    +0.000 A 
ATOM     24  C   UNL     1       1.775   6.185  17.621  0.00  0.00    +0.000 A 
ATOM     25  C   UNL     1       1.587   4.871  18.052  0.00  0.00    +0.000 A 
BRANCH  23  26
ATOM     26  C   UNL     1       2.230   8.546  18.101  0.00  0.00    +0.000 C 
ATOM     27  N   UNL     1       2.408   9.634  17.739  0.00  0.00    +0.000 NA
ENDBRANCH  23  26
ENDBRANCH  17  20
ENDBRANCH  15  17
ENDBRANCH   6  15
TORSDOF 4
ENDMDL
MODEL 3
REMARK VINA RESULT:      -8.0      0.823      1.205
REMARK  Name = 
REMARK  6 active torsions:
REMARK  status: ('A' for Active; 'I' for Inactive)
REMARK    1  A    between atoms: C_1  and  C_2
REMARK    2  A    between atoms: C_6  and  N_7
REMARK    3  A    between atoms: N_7  and  S_8
REMARK    4  A    between atoms: S_8  and  C_11
REMARK    5  A    between atoms: C_14  and  C_15
REMARK    6  A    between atoms: N_23  and  C_24
REMARK                            x       y       z     vdW  Elec       q    Type
REMARK                         _______ _______ _______ _____ _____    ______ ____
ROOT
ATOM      1  C   UNL     1       0.060   9.571  23.501  0.00  0.00    +0.000 C 
ATOM      2  C   UNL     1       0.593   9.245  22.141  0.00  0.00    +0.000 A 
ATOM      3  C   UNL     1       0.994   8.020  21.779  0.00  0.00    +0.000 A 
ATOM      4  C   UNL     1       1.513   7.766  20.438  0.00  0.00    +0.000 A 
ATOM      5  C   UNL     1       1.930   6.467  20.119  0.00  0.00    +0.000 A 
ATOM      6  C   UNL     1       2.449   6.177  18.861  0.00  0.00    +0.000 A 
ATOM      7  C   UNL     1       2.535   7.180  17.909  0.00  0.00    +0.000 A 
ATOM      8  C   UNL     1       2.110   8.477  18.225  0.00  0.00    +0.000 A 
ATOM      9  F   UNL     1       2.229   9.381  17.242  0.00  0.00    +0.000 F 
ATOM     10  C   UNL     1       1.595   8.811  19.494  0.00  0.00    +0.000 A 
ATOM     11  N   UNL     1       1.154  10.115  19.892  0.00  0.00    +0.000 N 
ATOM     12  C   UNL     1       1.189  11.273  19.016  0.00  0.00    +0.000 C 
ATOM     13  C   UNL     1       0.661  10.377  21.172  0.00  0.00    +0.000 A 
ATOM     14  O   UNL     1       0.283  11.493  21.532  0.00  0.00    +0.000 OA
ENDROOT
BRANCH   6  15
ATOM     15  N   UNL     1       2.882   4.849  18.603  0.00  0.00    +0.000 N 
ATOM     16  H   UNL     1       2.537   4.368  17.772  0.00  0.00    +0.000 HD
BRANCH  15  17
ATOM     17  S   UNL     1       4.453   4.392  19.010  0.00  0.00    +0.000 S 
ATOM     18  O   UNL     1       4.941   5.403  19.924  0.00  0.00    +0.000 OA
ATOM     19  O   UNL     1       4.460   2.992  19.373  0.00  0.00    +0.000 OA
BRANCH  17  20
ATOM     20  C   UNL     1       5.344   4.576  17.479  0.00  0.00    +0.000 A 
ATOM     21  C   UNL     1       5.073   3.745  16.389  0.00  0.00    +0.000 A 
ATOM     22  C   UNL     1       5.746   3.958  15.178  0.00  0.00    +0.000 A 
ATOM     23  C   UNL     1       6.684   4.993  15.062  0.00  0.00    +0.000 A 
ATOM     24  C   UNL     1       6.946   5.821  16.160  0.00  0.00    +0.000 A 
ATOM     25  C   UNL     1       6.267   5.622  17.363  0.00  0.00    +0.000 A 
BRANCH  23  26
ATOM     26  C   UNL     1       7.372   5.212  13.823  0.00  0.00    +0.000 C 
ATOM     27  N   UNL     1       7.926   5.399  12.820  0.00  0.00    +0.000 NA
ENDBRANCH  23  26
ENDBRANCH  17  20
ENDBRANCH  15  17
ENDBRANCH   6  15
TORSDOF 4
ENDMDL
MODEL 4
REMARK VINA RESULT:      -7.9      1.632      2.115
REMARK  Name = 
REMARK  6 active torsions:
REMARK  status: ('A' for Active; 'I' for Inactive)
REMARK    1  A    between atoms: C_1  and  C_2
REMARK    2  A    between atoms: C_6  and  N_7
REMARK    3  A    between atoms: N_7  and  S_8
REMARK    4  A    between atoms: S_8  and  C_11
REMARK    5  A    between atoms: C_14  and  C_15
REMARK    6  A    between atoms: N_23  and  C_24
REMARK                            x       y       z     vdW  Elec       q    Type
REMARK                         _______ _______ _______ _____ _____    ______ ____
ROOT
ATOM      1  C   UNL     1      -1.332  11.354  22.871  0.00  0.00    +0.000 C 
ATOM      2  C   UNL     1      -0.567  10.688  21.769  0.00  0.00    +0.000 A 
ATOM      3  C   UNL     1       0.131   9.558  21.934  0.00  0.00    +0.000 A 
ATOM      4  C   UNL     1       0.864   8.960  20.821  0.00  0.00    +0.000 A 
ATOM      5  C   UNL     1       1.587   7.783  21.056  0.00  0.00    +0.000 A 
ATOM      6  C   UNL     1       2.318   7.184  20.034  0.00  0.00    +0.000 A 
ATOM      7  C   UNL     1       2.311   7.748  18.768  0.00  0.00    +0.000 A 
ATOM      8  C   UNL     1       1.582   8.920  18.533  0.00  0.00    +0.000 A 
ATOM      9  F   UNL     1       1.633   9.392  17.278  0.00  0.00    +0.000 F 
ATOM     10  C   UNL     1       0.844   9.563  19.547  0.00  0.00    +0.000 A 
ATOM     11  N   UNL     1       0.086  10.768  19.383  0.00  0.00    +0.000 N 
ATOM     12  C   UNL     1      -0.012  11.486  18.124  0.00  0.00    +0.000 C 
ATOM     13  C   UNL     1      -0.616  11.357  20.438  0.00  0.00    +0.000 A 
ATOM     14  O   UNL     1      -1.267  12.395  20.314  0.00  0.00    +0.000 OA
ENDROOT
BRANCH   6  15
ATOM     15  N   UNL     1       3.055   6.008  20.336  0.00  0.00    +0.000 N 
ATOM     16  H   UNL     1       3.299   5.812  21.307  0.00  0.00    +0.000 HD
BRANCH  15  17
ATOM     17  S   UNL     1       2.785   4.605  19.440  0.00  0.00    +0.000 S 
ATOM     18  O   UNL     1       3.127   3.501  20.311  0.00  0.00    +0.000 OA
ATOM     19  O   UNL     1       1.484   4.687  18.813  0.00  0.00    +0.000 OA
BRANCH  17  20
ATOM     20  C   UNL     1       4.025   4.687  18.165  0.00  0.00    +0.000 A 
ATOM     21  C   UNL     1       3.802   4.111  16.911  0.00  0.00    +0.000 A 
ATOM     22  C   UNL     1       4.771   4.250  15.908  0.00  0.00    +0.000 A 
ATOM     23  C   UNL     1       5.955   4.957  16.161  0.00  0.00    +0.000 A 
ATOM     24  C   UNL     1       6.167   5.531  17.420  0.00  0.00    +0.000 A 
ATOM     25  C   UNL     1       5.197   5.409  18.417  0.00  0.00    +0.000 A 
BRANCH  23  26
ATOM     26  C   UNL     1       6.947   5.100  15.136  0.00  0.00    +0.000 C 
ATOM     27  N   UNL     1       7.747   5.207  14.302  0.00  0.00    +0.000 NA
ENDBRANCH  23  26
ENDBRANCH  17  20
ENDBRANCH  15  17
ENDBRANCH   6  15
TORSDOF 4
ENDMDL
MODEL 5
REMARK VINA RESULT:      -7.8      1.160      1.590
REMARK  Name = 
REMARK  6 active torsions:
REMARK  status: ('A' for Active; 'I' for Inactive)
REMARK    1  A    between atoms: C_1  and  C_2
REMARK    2  A    between atoms: C_6  and  N_7
REMARK    3  A    between atoms: N_7  and  S_8
REMARK    4  A    between atoms: S_8  and  C_11
REMARK    5  A    between atoms: C_14  and  C_15
REMARK    6  A    between atoms: N_23  and  C_24
REMARK                            x       y       z     vdW  Elec       q    Type
REMARK                         _______ _______ _______ _____ _____    ______ ____
ROOT
ATOM      1  C   UNL     1      -0.540   9.762  22.730  0.00  0.00    +0.000 C 
ATOM      2  C   UNL     1       0.258   9.224  21.584  0.00  0.00    +0.000 A 
ATOM      3  C   UNL     1       0.942   8.074  21.636  0.00  0.00    +0.000 A 
ATOM      4  C   UNL     1       1.710   7.605  20.485  0.00  0.00    +0.000 A 
ATOM      5  C   UNL     1       2.416   6.400  20.602  0.00  0.00    +0.000 A 
ATOM      6  C   UNL     1       3.178   5.919  19.542  0.00  0.00    +0.000 A 
ATOM      7  C   UNL     1       3.220   6.630  18.353  0.00  0.00    +0.000 A 
ATOM      8  C   UNL     1       2.507   7.830  18.234  0.00  0.00    +0.000 A 
ATOM      9  F   UNL     1       2.605   8.447  17.047  0.00  0.00    +0.000 F 
ATOM     10  C   UNL     1       1.739   8.355  19.292  0.00  0.00    +0.000 A 
ATOM     11  N   UNL     1       0.996   9.580  19.247  0.00  0.00    +0.000 N 
ATOM     12  C   UNL     1       0.947  10.443  18.081  0.00  0.00    +0.000 C 
ATOM     13  C   UNL     1       0.261  10.047  20.340  0.00  0.00    +0.000 A 
ATOM     14  O   UNL     1      -0.378  11.100  20.319  0.00  0.00    +0.000 OA
ENDROOT
BRANCH   6  15
ATOM     15  N   UNL     1       3.895   4.707  19.726  0.00  0.00    +0.000 N 
ATOM     16  H   UNL     1       4.044   4.359  20.673  0.00  0.00    +0.000 HD
BRANCH  15  17
ATOM     17  S   UNL     1       3.733   3.465  18.597  0.00  0.00    +0.000 S 
ATOM     18  O   UNL     1       4.285   2.281  19.221  0.00  0.00    +0.000 OA
ATOM     19  O   UNL     1       2.385   3.474  18.074  0.00  0.00    +0.000 OA
BRANCH  17  20
ATOM     20  C   UNL     1       4.842   3.950  17.290  0.00  0.00    +0.000 A 
ATOM     21  C   UNL     1       4.421   3.950  15.957  0.00  0.00    +0.000 A 
ATOM     22  C   UNL     1       5.297   4.399  14.960  0.00  0.00    +0.000 A 
ATOM     23  C   UNL     1       6.584   4.843  15.295  0.00  0.00    +0.000 A 
ATOM     24  C   UNL     1       6.994   4.841  16.634  0.00  0.00    +0.000 A 
ATOM     25  C   UNL     1       6.119   4.409  17.632  0.00  0.00    +0.000 A 
BRANCH  23  26
ATOM     26  C   UNL     1       7.481   5.303  14.275  0.00  0.00    +0.000 C 
ATOM     27  N   UNL     1       8.203   5.669  13.443  0.00  0.00    +0.000 NA
ENDBRANCH  23  26
ENDBRANCH  17  20
ENDBRANCH  15  17
ENDBRANCH   6  15
TORSDOF 4
ENDMDL
MODEL 6
REMARK VINA RESULT:      -7.7      1.366      1.501
REMARK  Name = 
REMARK  6 active torsions:
REMARK  status: ('A' for Active; 'I' for Inactive)
REMARK    1  A    between atoms: C_1  and  C_2
REMARK    2  A    between atoms: C_6  and  N_7
REMARK    3  A    between atoms: N_7  and  S_8
REMARK    4  A    between atoms: S_8  and  C_11
REMARK    5  A    between atoms: C_14  and  C_15
REMARK    6  A    between atoms: N_23  and  C_24
REMARK                            x       y       z     vdW  Elec       q    Type
REMARK                         _______ _______ _______ _____ _____    ______ ____
ROOT
ATOM      1  C   UNL     1      -0.781   9.897  23.252  0.00  0.00    +0.000 C 
ATOM      2  C   UNL     1      -0.040   9.534  22.003  0.00  0.00    +0.000 A 
ATOM      3  C   UNL     1       0.678   8.412  21.871  0.00  0.00    +0.000 A 
ATOM      4  C   UNL     1       1.386   8.117  20.628  0.00  0.00    +0.000 A 
ATOM      5  C   UNL     1       2.132   6.933  20.551  0.00  0.00    +0.000 A 
ATOM      6  C   UNL     1       2.840   6.615  19.396  0.00  0.00    +0.000 A 
ATOM      7  C   UNL     1       2.788   7.467  18.306  0.00  0.00    +0.000 A 
ATOM      8  C   UNL     1       2.035   8.646  18.380  0.00  0.00    +0.000 A 
ATOM      9  F   UNL     1       2.042   9.408  17.276  0.00  0.00    +0.000 F 
ATOM     10  C   UNL     1       1.319   9.009  19.538  0.00  0.00    +0.000 A 
ATOM     11  N   UNL     1       0.540  10.202  19.691  0.00  0.00    +0.000 N 
ATOM     12  C   UNL     1       0.394  11.201  18.647  0.00  0.00    +0.000 C 
ATOM     13  C   UNL     1      -0.138  10.504  20.875  0.00  0.00    +0.000 A 
ATOM     14  O   UNL     1      -0.807  11.527  21.023  0.00  0.00    +0.000 OA
ENDROOT
BRANCH   6  15
ATOM     15  N   UNL     1       3.602   5.416  19.385  0.00  0.00    +0.000 N 
ATOM     16  H   UNL     1       3.878   4.996  20.273  0.00  0.00    +0.000 HD
BRANCH  15  17
ATOM     17  S   UNL     1       3.325   4.266  18.184  0.00  0.00    +0.000 S 
ATOM     18  O   UNL     1       3.670   2.986  18.765  0.00  0.00    +0.000 OA
ATOM     19  O   UNL     1       2.021   4.494  17.601  0.00  0.00    +0.000 OA
BRANCH  17  20
ATOM     20  C   UNL     1       4.558   4.648  16.957  0.00  0.00    +0.000 A 
ATOM     21  C   UNL     1       5.610   5.521  17.247  0.00  0.00    +0.000 A 
ATOM     22  C   UNL     1       6.600   5.750  16.282  0.00  0.00    +0.000 A 
ATOM     23  C   UNL     1       6.535   5.111  15.035  0.00  0.00    +0.000 A 
ATOM     24  C   UNL     1       5.478   4.236  14.757  0.00  0.00    +0.000 A 
ATOM     25  C   UNL     1       4.498   3.994  15.721  0.00  0.00    +0.000 A 
BRANCH  23  26
ATOM     26  C   UNL     1       7.547   5.344  14.047  0.00  0.00    +0.000 C 
ATOM     27  N   UNL     1       8.361   5.527  13.241  0.00  0.00    +0.000 NA
ENDBRANCH  23  26
ENDBRANCH  17  20
ENDBRANCH  15  17
ENDBRANCH   6  15
TORSDOF 4
ENDMDL
MODEL 7
REMARK VINA RESULT:      -7.4      3.966      6.316
REMARK  Name = 
REMARK  6 active torsions:
REMARK  status: ('A' for Active; 'I' for Inactive)
REMARK    1  A    between atoms: C_1  and  C_2
REMARK    2  A    between atoms: C_6  and  N_7
REMARK    3  A    between atoms: N_7  and  S_8
REMARK    4  A    between atoms: S_8  and  C_11
REMARK    5  A    between atoms: C_14  and  C_15
REMARK    6  A    between atoms: N_23  and  C_24
REMARK                            x       y       z     vdW  Elec       q    Type
REMARK                         _______ _______ _______ _____ _____    ______ ____
ROOT
ATOM      1  C   UNL     1      -3.610  10.052  14.727  0.00  0.00    +0.000 C 
ATOM      2  C   UNL     1      -3.261  10.520  16.106  0.00  0.00    +0.000 A 
ATOM      3  C   UNL     1      -2.112  10.213  16.721  0.00  0.00    +0.000 A 
ATOM      4  C   UNL     1      -1.833  10.694  18.072  0.00  0.00    +0.000 A 
ATOM      5  C   UNL     1      -0.619  10.331  18.670  0.00  0.00    +0.000 A 
ATOM      6  C   UNL     1      -0.313  10.746  19.963  0.00  0.00    +0.000 A 
ATOM      7  C   UNL     1      -1.210  11.544  20.654  0.00  0.00    +0.000 A 
ATOM      8  C   UNL     1      -2.420  11.913  20.053  0.00  0.00    +0.000 A 
ATOM      9  F   UNL     1      -3.224  12.687  20.796  0.00  0.00    +0.000 F 
ATOM     10  C   UNL     1      -2.771  11.497  18.752  0.00  0.00    +0.000 A 
ATOM     11  N   UNL     1      -3.993  11.824  18.079  0.00  0.00    +0.000 N 
ATOM     12  C   UNL     1      -5.038  12.640  18.671  0.00  0.00    +0.000 C 
ATOM     13  C   UNL     1      -4.279  11.369  16.790  0.00  0.00    +0.000 A 
ATOM     14  O   UNL     1      -5.327  11.636  16.200  0.00  0.00    +0.000 OA
ENDROOT
BRANCH   6  15
ATOM     15  N   UNL     1       0.920  10.325  20.529  0.00  0.00    +0.000 N 
ATOM     16  H   UNL     1       1.599  11.030  20.816  0.00  0.00    +0.000 HD
BRANCH  15  17
ATOM     17  S   UNL     1       0.960   8.951  21.506  0.00  0.00    +0.000 S 
ATOM     18  O   UNL     1       1.918   9.232  22.554  0.00  0.00    +0.000 OA
ATOM     19  O   UNL     1      -0.395   8.554  21.820  0.00  0.00    +0.000 OA
BRANCH  17  20
ATOM     20  C   UNL     1       1.673   7.713  20.443  0.00  0.00    +0.000 A 
ATOM     21  C   UNL     1       1.681   6.366  20.818  0.00  0.00    +0.000 A 
ATOM     22  C   UNL     1       2.191   5.408  19.931  0.00  0.00    +0.000 A 
ATOM     23  C   UNL     1       2.690   5.797  18.680  0.00  0.00    +0.000 A 
ATOM     24  C   UNL     1       2.675   7.148  18.314  0.00  0.00    +0.000 A 
ATOM     25  C   UNL     1       2.154   8.104  19.188  0.00  0.00    +0.000 A 
BRANCH  23  26
ATOM     26  C   UNL     1       3.211   4.818  17.771  0.00  0.00    +0.000 C 
ATOM     27  N   UNL     1       3.630   4.018  17.041  0.00  0.00    +0.000 NA
ENDBRANCH  23  26
ENDBRANCH  17  20
ENDBRANCH  15  17
ENDBRANCH   6  15
TORSDOF 4
ENDMDL
MODEL 8
REMARK VINA RESULT:      -7.4      3.249      8.127
REMARK  Name = 
REMARK  6 active torsions:
REMARK  status: ('A' for Active; 'I' for Inactive)
REMARK    1  A    between atoms: C_1  and  C_2
REMARK    2  A    between atoms: C_6  and  N_7
REMARK    3  A    between atoms: N_7  and  S_8
REMARK    4  A    between atoms: S_8  and  C_11
REMARK    5  A    between atoms: C_14  and  C_15
REMARK    6  A    between atoms: N_23  and  C_24
REMARK                            x       y       z     vdW  Elec       q    Type
REMARK                         _______ _______ _______ _____ _____    ______ ____
ROOT
ATOM      1  C   UNL     1       1.729   3.096  21.397  0.00  0.00    +0.000 C 
ATOM      2  C   UNL     1       2.327   4.084  20.442  0.00  0.00    +0.000 A 
ATOM      3  C   UNL     1       1.748   5.248  20.126  0.00  0.00    +0.000 A 
ATOM      4  C   UNL     1       2.378   6.167  19.182  0.00  0.00    +0.000 A 
ATOM      5  C   UNL     1       1.719   7.367  18.880  0.00  0.00    +0.000 A 
ATOM      6  C   UNL     1       2.267   8.267  17.971  0.00  0.00    +0.000 A 
ATOM      7  C   UNL     1       3.486   7.982  17.377  0.00  0.00    +0.000 A 
ATOM      8  C   UNL     1       4.148   6.786  17.685  0.00  0.00    +0.000 A 
ATOM      9  F   UNL     1       5.321   6.597  17.064  0.00  0.00    +0.000 F 
ATOM     10  C   UNL     1       3.615   5.844  18.588  0.00  0.00    +0.000 A 
ATOM     11  N   UNL     1       4.228   4.597  18.941  0.00  0.00    +0.000 N 
ATOM     12  C   UNL     1       5.497   4.148  18.398  0.00  0.00    +0.000 C 
ATOM     13  C   UNL     1       3.637   3.704  19.838  0.00  0.00    +0.000 A 
ATOM     14  O   UNL     1       4.148   2.627  20.148  0.00  0.00    +0.000 OA
ENDROOT
BRANCH   6  15
ATOM     15  N   UNL     1       1.543   9.454  17.682  0.00  0.00    +0.000 N 
ATOM     16  H   UNL     1       0.874   9.451  16.912  0.00  0.00    +0.000 HD
BRANCH  15  17
ATOM     17  S   UNL     1       1.073  10.470  18.943  0.00  0.00    +0.000 S 
ATOM     18  O   UNL     1       1.208   9.693  20.156  0.00  0.00    +0.000 OA
ATOM     19  O   UNL     1       1.738  11.746  18.796  0.00  0.00    +0.000 OA
BRANCH  17  20
ATOM     20  C   UNL     1      -0.667  10.711  18.651  0.00  0.00    +0.000 A 
ATOM     21  C   UNL     1      -1.375  11.710  19.324  0.00  0.00    +0.000 A 
ATOM     22  C   UNL     1      -2.728  11.917  19.023  0.00  0.00    +0.000 A 
ATOM     23  C   UNL     1      -3.367  11.126  18.057  0.00  0.00    +0.000 A 
ATOM     24  C   UNL     1      -2.647  10.129  17.388  0.00  0.00    +0.000 A 
ATOM     25  C   UNL     1      -1.296   9.931  17.673  0.00  0.00    +0.000 A 
BRANCH  23  26
ATOM     26  C   UNL     1      -4.751  11.336  17.749  0.00  0.00    +0.000 C 
ATOM     27  N   UNL     1      -5.874  11.505  17.508  0.00  0.00    +0.000 NA
ENDBRANCH  23  26
ENDBRANCH  17  20
ENDBRANCH  15  17
ENDBRANCH   6  15
TORSDOF 4
ENDMDL
MODEL 9
REMARK VINA RESULT:      -7.4      1.714      2.148
REMARK  Name = 
REMARK  6 active torsions:
REMARK  status: ('A' for Active; 'I' for Inactive)
REMARK    1  A    between atoms: C_1  and  C_2
REMARK    2  A    between atoms: C_6  and  N_7
REMARK    3  A    between atoms: N_7  and  S_8
REMARK    4  A    between atoms: S_8  and  C_11
REMARK    5  A    between atoms: C_14  and  C_15
REMARK    6  A    between atoms: N_23  and  C_24
REMARK                            x       y       z     vdW  Elec       q    Type
REMARK                         _______ _______ _______ _____ _____    ______ ____
ROOT
ATOM      1  C   UNL     1      -0.824  11.867  22.454  0.00  0.00    +0.000 C 
ATOM      2  C   UNL     1      -0.102  10.946  21.521  0.00  0.00    +0.000 A 
ATOM      3  C   UNL     1       0.281   9.707  21.855  0.00  0.00    +0.000 A 
ATOM      4  C   UNL     1       0.989   8.858  20.902  0.00  0.00    +0.000 A 
ATOM      5  C   UNL     1       1.376   7.575  21.311  0.00  0.00    +0.000 A 
ATOM      6  C   UNL     1       2.070   6.734  20.447  0.00  0.00    +0.000 A 
ATOM      7  C   UNL     1       2.363   7.164  19.163  0.00  0.00    +0.000 A 
ATOM      8  C   UNL     1       1.969   8.443  18.751  0.00  0.00    +0.000 A 
ATOM      9  F   UNL     1       2.293   8.772  17.492  0.00  0.00    +0.000 F 
ATOM     10  C   UNL     1       1.279   9.328  19.604  0.00  0.00    +0.000 A 
ATOM     11  N   UNL     1       0.857  10.653  19.257  0.00  0.00    +0.000 N 
ATOM     12  C   UNL     1       1.096  11.254  17.957  0.00  0.00    +0.000 C 
ATOM     13  C   UNL     1       0.183  11.481  20.158  0.00  0.00    +0.000 A 
ATOM     14  O   UNL     1      -0.182  12.624  19.877  0.00  0.00    +0.000 OA
ENDROOT
BRANCH   6  15
ATOM     15  N   UNL     1       2.462   5.455  20.925  0.00  0.00    +0.000 N 
ATOM     16  H   UNL     1       2.255   5.203  21.892  0.00  0.00    +0.000 HD
BRANCH  15  17
ATOM     17  S   UNL     1       2.414   4.128  19.886  0.00  0.00    +0.000 S 
ATOM     18  O   UNL     1       2.824   2.986  20.674  0.00  0.00    +0.000 OA
ATOM     19  O   UNL     1       1.156   4.131  19.172  0.00  0.00    +0.000 OA
BRANCH  17  20
ATOM     20  C   UNL     1       3.717   4.472  18.721  0.00  0.00    +0.000 A 
ATOM     21  C   UNL     1       4.990   4.846  19.161  0.00  0.00    +0.000 A 
ATOM     22  C   UNL     1       6.011   5.046  18.221  0.00  0.00    +0.000 A 
ATOM     23  C   UNL     1       5.757   4.874  16.853  0.00  0.00    +0.000 A 
ATOM     24  C   UNL     1       4.479   4.497  16.425  0.00  0.00    +0.000 A 
ATOM     25  C   UNL     1       3.463   4.282  17.358  0.00  0.00    +0.000 A 
BRANCH  23  26
ATOM     26  C   UNL     1       6.800   5.078  15.891  0.00  0.00    +0.000 C 
ATOM     27  N   UNL     1       7.651   5.247  15.119  0.00  0.00    +0.000 NA
ENDBRANCH  23  26
ENDBRANCH  17  20
ENDBRANCH  15  17
ENDBRANCH   6  15
TORSDOF 4
ENDMDL
