MODEL 1
REMARK VINA RESULT:      -9.3      0.000      0.000
REMARK  Name = 
REMARK  7 active torsions:
REMARK  status: ('A' for Active; 'I' for Inactive)
REMARK    1  A    between atoms: C_2  and  C_5
REMARK    2  A    between atoms: C_7  and  O_8
REMARK    3  A    between atoms: O_8  and  C_9
REMARK    4  A    between atoms: C_12  and  C_13
REMARK    5  A    between atoms: C_13  and  O_14
REMARK    6  A    between atoms: O_14  and  C_15
REMARK    7  A    between atoms: C_19  and  C_20
REMARK                            x       y       z     vdW  Elec       q    Type
REMARK                         _______ _______ _______ _____ _____    ______ ____
ROOT
ATOM      1  C   UNL     1       6.491   5.070  18.336  0.00  0.00    +0.000 A 
ATOM      2  C   UNL     1       7.589   5.505  19.080  0.00  0.00    +0.000 A 
ATOM      3  C   UNL     1       8.108   6.789  18.887  0.00  0.00    +0.000 A 
ATOM      4  C   UNL     1       7.525   7.655  17.954  0.00  0.00    +0.000 A 
ATOM      5  C   UNL     1       6.439   7.205  17.194  0.00  0.00    +0.000 A 
ATOM      6  C   UNL     1       5.939   5.911  17.367  0.00  0.00    +0.000 A 
ENDROOT
BRANCH   1   7
ATOM      7  O   UNL     1       6.076   3.779  18.582  0.00  0.00    +0.000 OA
BRANCH   7  10
ATOM      8  C   UNL     1       2.603   3.574  19.718  0.00  0.00    +0.000 A 
ATOM      9  C   UNL     1       3.985   3.835  19.657  0.00  0.00    +0.000 A 
ATOM     10  C   UNL     1       4.739   3.463  18.541  0.00  0.00    +0.000 A 
ATOM     11  C   UNL     1       4.109   2.876  17.444  0.00  0.00    +0.000 A 
ATOM     12  C   UNL     1       2.742   2.598  17.496  0.00  0.00    +0.000 A 
ATOM     13  C   UNL     1       1.992   2.947  18.624  0.00  0.00    +0.000 A 
ATOM     14 CL   UNL     1       0.305   2.586  18.597  0.00  0.00    +0.000 Cl
BRANCH   8  16
ATOM     15  F   UNL     1       2.570   4.616  21.874  0.00  0.00    +0.000 F 
ATOM     16  C   UNL     1       1.816   3.966  20.939  0.00  0.00    +0.000 C 
ATOM     17  F   UNL     1       1.281   2.899  21.593  0.00  0.00    +0.000 F 
ATOM     18  F   UNL     1       0.784   4.808  20.662  0.00  0.00    +0.000 F 
ENDBRANCH   8  16
ENDBRANCH   7  10
ENDBRANCH   1   7
BRANCH   4  19
ATOM     19  C   UNL     1       8.088   9.035  17.732  0.00  0.00    +0.000 C 
BRANCH  19  20
ATOM     20  O   UNL     1       8.969   9.341  18.820  0.00  0.00    +0.000 OA
BRANCH  20  21
ATOM     21  C   UNL     1       9.194  10.661  19.018  0.00  0.00    +0.000 A 
ATOM     22  C   UNL     1       9.833  10.853  20.338  0.00  0.00    +0.000 A 
ATOM     23  C   UNL     1      10.114  12.125  20.640  0.00  0.00    +0.000 A 
ATOM     24  N   UNL     1       9.770  13.148  19.750  0.00  0.00    +0.000 N 
ATOM     25  C   UNL     1       9.905  14.529  19.830  0.00  0.00    +0.000 A 
ATOM     26  C   UNL     1       9.444  14.972  18.599  0.00  0.00    +0.000 A 
ATOM     27  N   UNL     1       9.001  13.949  17.813  0.00  0.00    +0.000 NA
ATOM     28  C   UNL     1       9.182  12.853  18.514  0.00  0.00    +0.000 A 
ATOM     29  N   UNL     1       8.886  11.572  18.153  0.00  0.00    +0.000 NA
BRANCH  25  30
ATOM     30  C   UNL     1      10.432  15.310  20.954  0.00  0.00    +0.000 A 
ATOM     31  C   UNL     1      11.504  16.192  20.773  0.00  0.00    +0.000 A 
ATOM     32  C   UNL     1      11.998  16.932  21.846  0.00  0.00    +0.000 A 
ATOM     33  C   UNL     1      11.407  16.765  23.085  0.00  0.00    +0.000 A 
ATOM     34  N   UNL     1      10.356  15.951  23.305  0.00  0.00    +0.000 NA
ATOM     35  C   UNL     1       9.884  15.266  22.234  0.00  0.00    +0.000 A 
ENDBRANCH  25  30
ENDBRANCH  20  21
ENDBRANCH  19  20
ENDBRANCH   4  19
TORSDOF 7
ENDMDL
MODEL 2
REMARK VINA RESULT:      -9.2      1.460      2.318
REMARK  Name = 
REMARK  7 active torsions:
REMARK  status: ('A' for Active; 'I' for Inactive)
REMARK    1  A    between atoms: C_2  and  C_5
REMARK    2  A    between atoms: C_7  and  O_8
REMARK    3  A    between atoms: O_8  and  C_9
REMARK    4  A    between atoms: C_12  and  C_13
REMARK    5  A    between atoms: C_13  and  O_14
REMARK    6  A    between atoms: O_14  and  C_15
REMARK    7  A    between atoms: C_19  and  C_20
REMARK                            x       y       z     vdW  Elec       q    Type
REMARK                         _______ _______ _______ _____ _____    ______ ____
ROOT
ATOM      1  C   UNL     1       6.413   5.138  17.763  0.00  0.00    +0.000 A 
ATOM      2  C   UNL     1       7.434   5.429  18.670  0.00  0.00    +0.000 A 
ATOM      3  C   UNL     1       8.031   6.693  18.679  0.00  0.00    +0.000 A 
ATOM      4  C   UNL     1       7.603   7.684  17.787  0.00  0.00    +0.000 A 
ATOM      5  C   UNL     1       6.596   7.380  16.865  0.00  0.00    +0.000 A 
ATOM      6  C   UNL     1       6.020   6.107  16.837  0.00  0.00    +0.000 A 
ENDROOT
BRANCH   1   7
ATOM      7  O   UNL     1       5.914   3.856  17.817  0.00  0.00    +0.000 OA
BRANCH   7  10
ATOM      8  C   UNL     1       2.898   3.187  19.781  0.00  0.00    +0.000 A 
ATOM      9  C   UNL     1       4.237   3.403  19.403  0.00  0.00    +0.000 A 
ATOM     10  C   UNL     1       4.579   3.644  18.070  0.00  0.00    +0.000 A 
ATOM     11  C   UNL     1       3.578   3.728  17.103  0.00  0.00    +0.000 A 
ATOM     12  C   UNL     1       2.248   3.501  17.460  0.00  0.00    +0.000 A 
ATOM     13  C   UNL     1       1.908   3.235  18.790  0.00  0.00    +0.000 A 
ATOM     14 CL   UNL     1       0.238   2.987  19.148  0.00  0.00    +0.000 Cl
BRANCH   8  16
ATOM     15  F   UNL     1       1.373   2.245  21.369  0.00  0.00    +0.000 F 
ATOM     16  C   UNL     1       2.557   2.910  21.220  0.00  0.00    +0.000 C 
ATOM     17  F   UNL     1       2.426   4.042  21.964  0.00  0.00    +0.000 F 
ATOM     18  F   UNL     1       3.484   2.137  21.849  0.00  0.00    +0.000 F 
ENDBRANCH   8  16
ENDBRANCH   7  10
ENDBRANCH   1   7
BRANCH   4  19
ATOM     19  C   UNL     1       8.251   9.045  17.784  0.00  0.00    +0.000 C 
BRANCH  19  20
ATOM     20  O   UNL     1       8.890   9.242  19.051  0.00  0.00    +0.000 OA
BRANCH  20  21
ATOM     21  C   UNL     1       9.232  10.522  19.325  0.00  0.00    +0.000 A 
ATOM     22  C   UNL     1       9.417  11.259  18.056  0.00  0.00    +0.000 A 
ATOM     23  C   UNL     1       9.749  12.546  18.204  0.00  0.00    +0.000 A 
ATOM     24  N   UNL     1       9.929  13.080  19.484  0.00  0.00    +0.000 N 
ATOM     25  C   UNL     1      10.307  14.346  19.915  0.00  0.00    +0.000 A 
ATOM     26  C   UNL     1      10.228  14.257  21.297  0.00  0.00    +0.000 A 
ATOM     27  N   UNL     1       9.874  13.007  21.715  0.00  0.00    +0.000 NA
ATOM     28  C   UNL     1       9.711  12.295  20.623  0.00  0.00    +0.000 A 
ATOM     29  N   UNL     1       9.359  10.982  20.527  0.00  0.00    +0.000 NA
BRANCH  25  30
ATOM     30  C   UNL     1      10.678  15.496  19.084  0.00  0.00    +0.000 A 
ATOM     31  C   UNL     1      10.614  15.422  17.688  0.00  0.00    +0.000 A 
ATOM     32  C   UNL     1      10.966  16.521  16.906  0.00  0.00    +0.000 A 
ATOM     33  C   UNL     1      11.385  17.673  17.544  0.00  0.00    +0.000 A 
ATOM     34  N   UNL     1      11.439  17.805  18.884  0.00  0.00    +0.000 NA
ATOM     35  C   UNL     1      11.063  16.726  19.616  0.00  0.00    +0.000 A 
ENDBRANCH  25  30
ENDBRANCH  20  21
ENDBRANCH  19  20
ENDBRANCH   4  19
TORSDOF 7
ENDMDL
MODEL 3
REMARK VINA RESULT:      -9.1      8.700     11.082
REMARK  Name = 
REMARK  7 active torsions:
REMARK  status: ('A' for Active; 'I' for Inactive)
REMARK    1  A    between atoms: C_2  and  C_5
REMARK    2  A    between atoms: C_7  and  O_8
REMARK    3  A    between atoms: O_8  and  C_9
REMARK    4  A    between atoms: C_12  and  C_13
REMARK    5  A    between atoms: C_13  and  O_14
REMARK    6  A    between atoms: O_14  and  C_15
REMARK    7  A    between atoms: C_19  and  C_20
REMARK                            x       y       z     vdW  Elec       q    Type
REMARK                         _______ _______ _______ _____ _____    ______ ____
ROOT
ATOM      1  C   UNL     1       2.325   6.975  19.837  0.00  0.00    +0.000 A 
ATOM      2  C   UNL     1       2.419   7.609  18.597  0.00  0.00    +0.000 A 
ATOM      3  C   UNL     1       1.814   8.853  18.393  0.00  0.00    +0.000 A 
ATOM      4  C   UNL     1       1.117   9.480  19.433  0.00  0.00    +0.000 A 
ATOM      5  C   UNL     1       1.006   8.828  20.666  0.00  0.00    +0.000 A 
ATOM      6  C   UNL     1       1.587   7.572  20.860  0.00  0.00    +0.000 A 
ENDROOT
BRANCH   1   7
ATOM      7  O   UNL     1       2.931   5.740  19.924  0.00  0.00    +0.000 OA
BRANCH   7  10
ATOM      8  C   UNL     1       5.829   5.044  17.800  0.00  0.00    +0.000 A 
ATOM      9  C   UNL     1       5.006   5.519  18.838  0.00  0.00    +0.000 A 
ATOM     10  C   UNL     1       3.636   5.240  18.855  0.00  0.00    +0.000 A 
ATOM     11  C   UNL     1       3.082   4.433  17.863  0.00  0.00    +0.000 A 
ATOM     12  C   UNL     1       3.883   3.968  16.818  0.00  0.00    +0.000 A 
ATOM     13  C   UNL     1       5.249   4.269  16.788  0.00  0.00    +0.000 A 
ATOM     14 CL   UNL     1       6.171   3.636  15.472  0.00  0.00    +0.000 Cl
BRANCH   8  16
ATOM     15  F   UNL     1       7.700   6.038  18.916  0.00  0.00    +0.000 F 
ATOM     16  C   UNL     1       7.297   5.375  17.792  0.00  0.00    +0.000 C 
ATOM     17  F   UNL     1       7.657   6.179  16.755  0.00  0.00    +0.000 F 
ATOM     18  F   UNL     1       8.092   4.273  17.721  0.00  0.00    +0.000 F 
ENDBRANCH   8  16
ENDBRANCH   7  10
ENDBRANCH   1   7
BRANCH   4  19
ATOM     19  C   UNL     1       0.452  10.814  19.215  0.00  0.00    +0.000 C 
BRANCH  19  20
ATOM     20  O   UNL     1      -0.313  10.744  18.006  0.00  0.00    +0.000 OA
BRANCH  20  21
ATOM     21  C   UNL     1      -1.606  11.128  18.124  0.00  0.00    +0.000 A 
ATOM     22  C   UNL     1      -1.818  11.713  19.466  0.00  0.00    +0.000 A 
ATOM     23  C   UNL     1      -3.064  12.140  19.695  0.00  0.00    +0.000 A 
ATOM     24  N   UNL     1      -4.049  11.981  18.715  0.00  0.00    +0.000 N 
ATOM     25  C   UNL     1      -5.405  12.290  18.705  0.00  0.00    +0.000 A 
ATOM     26  C   UNL     1      -5.805  11.958  17.419  0.00  0.00    +0.000 A 
ATOM     27  N   UNL     1      -4.787  11.428  16.681  0.00  0.00    +0.000 NA
ATOM     28  C   UNL     1      -3.735  11.427  17.468  0.00  0.00    +0.000 A 
ATOM     29  N   UNL     1      -2.478  10.987  17.180  0.00  0.00    +0.000 NA
BRANCH  25  30
ATOM     30  C   UNL     1      -6.199  12.852  19.802  0.00  0.00    +0.000 A 
ATOM     31  C   UNL     1      -6.540  12.072  20.913  0.00  0.00    +0.000 A 
ATOM     32  C   UNL     1      -7.292  12.615  21.954  0.00  0.00    +0.000 A 
ATOM     33  C   UNL     1      -7.696  13.934  21.852  0.00  0.00    +0.000 A 
ATOM     34  N   UNL     1      -7.371  14.734  20.818  0.00  0.00    +0.000 NA
ATOM     35  C   UNL     1      -6.615  14.182  19.836  0.00  0.00    +0.000 A 
ENDBRANCH  25  30
ENDBRANCH  20  21
ENDBRANCH  19  20
ENDBRANCH   4  19
TORSDOF 7
ENDMDL
MODEL 4
REMARK VINA RESULT:      -9.1      8.512     10.937
REMARK  Name = 
REMARK  7 active torsions:
REMARK  status: ('A' for Active; 'I' for Inactive)
REMARK    1  A    between atoms: C_2  and  C_5
REMARK    2  A    between atoms: C_7  and  O_8
REMARK    3  A    between atoms: O_8  and  C_9
REMARK    4  A    between atoms: C_12  and  C_13
REMARK    5  A    between atoms: C_13  and  O_14
REMARK    6  A    between atoms: O_14  and  C_15
REMARK    7  A    between atoms: C_19  and  C_20
REMARK                            x       y       z     vdW  Elec       q    Type
REMARK                         _______ _______ _______ _____ _____    ______ ____
ROOT
ATOM      1  C   UNL     1       2.252   6.636  19.552  0.00  0.00    +0.000 A 
ATOM      2  C   UNL     1       2.276   7.460  18.425  0.00  0.00    +0.000 A 
ATOM      3  C   UNL     1       1.795   8.770  18.498  0.00  0.00    +0.000 A 
ATOM      4  C   UNL     1       1.295   9.274  19.706  0.00  0.00    +0.000 A 
ATOM      5  C   UNL     1       1.251   8.436  20.826  0.00  0.00    +0.000 A 
ATOM      6  C   UNL     1       1.706   7.117  20.743  0.00  0.00    +0.000 A 
ENDROOT
BRANCH   1   7
ATOM      7  O   UNL     1       2.722   5.355  19.365  0.00  0.00    +0.000 OA
BRANCH   7  10
ATOM      8  C   UNL     1       6.174   5.185  18.159  0.00  0.00    +0.000 A 
ATOM      9  C   UNL     1       5.039   5.402  18.964  0.00  0.00    +0.000 A 
ATOM     10  C   UNL     1       3.756   5.118  18.490  0.00  0.00    +0.000 A 
ATOM     11  C   UNL     1       3.594   4.558  17.224  0.00  0.00    +0.000 A 
ATOM     12  C   UNL     1       4.708   4.351  16.409  0.00  0.00    +0.000 A 
ATOM     13  C   UNL     1       5.991   4.659  16.874  0.00  0.00    +0.000 A 
ATOM     14 CL   UNL     1       7.315   4.353  15.810  0.00  0.00    +0.000 Cl
BRANCH   8  16
ATOM     15  F   UNL     1       8.081   6.632  18.105  0.00  0.00    +0.000 F 
ATOM     16  C   UNL     1       7.544   5.518  18.684  0.00  0.00    +0.000 C 
ATOM     17  F   UNL     1       8.453   4.529  18.466  0.00  0.00    +0.000 F 
ATOM     18  F   UNL     1       7.557   5.767  20.022  0.00  0.00    +0.000 F 
ENDBRANCH   8  16
ENDBRANCH   7  10
ENDBRANCH   1   7
BRANCH   4  19
ATOM     19  C   UNL     1       0.763  10.681  19.788  0.00  0.00    +0.000 C 
BRANCH  19  20
ATOM     20  O   UNL     1       0.284  11.057  18.491  0.00  0.00    +0.000 OA
BRANCH  20  21
ATOM     21  C   UNL     1      -1.047  11.296  18.421  0.00  0.00    +0.000 A 
ATOM     22  C   UNL     1      -1.515  11.828  19.720  0.00  0.00    +0.000 A 
ATOM     23  C   UNL     1      -2.821  12.112  19.766  0.00  0.00    +0.000 A 
ATOM     24  N   UNL     1      -3.630  11.865  18.652  0.00  0.00    +0.000 N 
ATOM     25  C   UNL     1      -4.996  12.024  18.445  0.00  0.00    +0.000 A 
ATOM     26  C   UNL     1      -5.167  11.676  17.114  0.00  0.00    +0.000 A 
ATOM     27  N   UNL     1      -4.000  11.275  16.530  0.00  0.00    +0.000 NA
ATOM     28  C   UNL     1      -3.080  11.374  17.462  0.00  0.00    +0.000 A 
ATOM     29  N   UNL     1      -1.752  11.080  17.359  0.00  0.00    +0.000 NA
BRANCH  25  30
ATOM     30  C   UNL     1      -5.998  12.475  19.417  0.00  0.00    +0.000 A 
ATOM     31  C   UNL     1      -6.551  13.757  19.332  0.00  0.00    +0.000 A 
ATOM     32  C   UNL     1      -7.505  14.177  20.258  0.00  0.00    +0.000 A 
ATOM     33  C   UNL     1      -7.878  13.299  21.259  0.00  0.00    +0.000 A 
ATOM     34  N   UNL     1      -7.396  12.046  21.368  0.00  0.00    +0.000 NA
ATOM     35  C   UNL     1      -6.491  11.660  20.434  0.00  0.00    +0.000 A 
ENDBRANCH  25  30
ENDBRANCH  20  21
ENDBRANCH  19  20
ENDBRANCH   4  19
TORSDOF 7
ENDMDL
MODEL 5
REMARK VINA RESULT:      -9.0      1.676      2.491
REMARK  Name = 
REMARK  7 active torsions:
REMARK  status: ('A' for Active; 'I' for Inactive)
REMARK    1  A    between atoms: C_2  and  C_5
REMARK    2  A    between atoms: C_7  and  O_8
REMARK    3  A    between atoms: O_8  and  C_9
REMARK    4  A    between atoms: C_12  and  C_13
REMARK    5  A    between atoms: C_13  and  O_14
REMARK    6  A    between atoms: O_14  and  C_15
REMARK    7  A    between atoms: C_19  and  C_20
REMARK                            x       y       z     vdW  Elec       q    Type
REMARK                         _______ _______ _______ _____ _____    ______ ____
ROOT
ATOM      1  C   UNL     1       6.403   5.059  18.091  0.00  0.00    +0.000 A 
ATOM      2  C   UNL     1       7.491   5.385  18.902  0.00  0.00    +0.000 A 
ATOM      3  C   UNL     1       8.077   6.652  18.822  0.00  0.00    +0.000 A 
ATOM      4  C   UNL     1       7.571   7.610  17.934  0.00  0.00    +0.000 A 
ATOM      5  C   UNL     1       6.495   7.269  17.106  0.00  0.00    +0.000 A 
ATOM      6  C   UNL     1       5.929   5.993  17.167  0.00  0.00    +0.000 A 
ENDROOT
BRANCH   1   7
ATOM      7  O   UNL     1       5.920   3.776  18.227  0.00  0.00    +0.000 OA
BRANCH   7  10
ATOM      8  C   UNL     1       2.808   4.318  20.076  0.00  0.00    +0.000 A 
ATOM      9  C   UNL     1       3.907   4.489  19.212  0.00  0.00    +0.000 A 
ATOM     10  C   UNL     1       4.901   3.512  19.110  0.00  0.00    +0.000 A 
ATOM     11  C   UNL     1       4.778   2.323  19.829  0.00  0.00    +0.000 A 
ATOM     12  C   UNL     1       3.702   2.146  20.700  0.00  0.00    +0.000 A 
ATOM     13  C   UNL     1       2.721   3.135  20.821  0.00  0.00    +0.000 A 
ATOM     14 CL   UNL     1       1.413   2.826  21.905  0.00  0.00    +0.000 Cl
BRANCH   8  16
ATOM     15  F   UNL     1       1.834   6.312  19.176  0.00  0.00    +0.000 F 
ATOM     16  C   UNL     1       1.761   5.394  20.184  0.00  0.00    +0.000 C 
ATOM     17  F   UNL     1       1.857   6.117  21.333  0.00  0.00    +0.000 F 
ATOM     18  F   UNL     1       0.490   4.909  20.137  0.00  0.00    +0.000 F 
ENDBRANCH   8  16
ENDBRANCH   7  10
ENDBRANCH   1   7
BRANCH   4  19
ATOM     19  C   UNL     1       8.206   8.973  17.834  0.00  0.00    +0.000 C 
BRANCH  19  20
ATOM     20  O   UNL     1       9.019   9.177  18.995  0.00  0.00    +0.000 OA
BRANCH  20  21
ATOM     21  C   UNL     1       9.325  10.469  19.259  0.00  0.00    +0.000 A 
ATOM     22  C   UNL     1       9.526  11.191  17.984  0.00  0.00    +0.000 A 
ATOM     23  C   UNL     1       9.825  12.488  18.121  0.00  0.00    +0.000 A 
ATOM     24  N   UNL     1       9.958  13.044  19.397  0.00  0.00    +0.000 N 
ATOM     25  C   UNL     1      10.297  14.325  19.819  0.00  0.00    +0.000 A 
ATOM     26  C   UNL     1      10.183  14.254  21.199  0.00  0.00    +0.000 A 
ATOM     27  N   UNL     1       9.847  13.002  21.627  0.00  0.00    +0.000 NA
ATOM     28  C   UNL     1       9.729  12.271  20.542  0.00  0.00    +0.000 A 
ATOM     29  N   UNL     1       9.410  10.949  20.457  0.00  0.00    +0.000 NA
BRANCH  25  30
ATOM     30  C   UNL     1      10.663  15.471  18.981  0.00  0.00    +0.000 A 
ATOM     31  C   UNL     1      11.993  15.685  18.602  0.00  0.00    +0.000 A 
ATOM     32  C   UNL     1      12.333  16.775  17.802  0.00  0.00    +0.000 A 
ATOM     33  C   UNL     1      11.327  17.637  17.406  0.00  0.00    +0.000 A 
ATOM     34  N   UNL     1      10.029  17.461  17.722  0.00  0.00    +0.000 NA
ATOM     35  C   UNL     1       9.729  16.374  18.477  0.00  0.00    +0.000 A 
ENDBRANCH  25  30
ENDBRANCH  20  21
ENDBRANCH  19  20
ENDBRANCH   4  19
TORSDOF 7
ENDMDL
MODEL 6
REMARK VINA RESULT:      -9.0      1.699      2.423
REMARK  Name = 
REMARK  7 active torsions:
REMARK  status: ('A' for Active; 'I' for Inactive)
REMARK    1  A    between atoms: C_2  and  C_5
REMARK    2  A    between atoms: C_7  and  O_8
REMARK    3  A    between atoms: O_8  and  C_9
REMARK    4  A    between atoms: C_12  and  C_13
REMARK    5  A    between atoms: C_13  and  O_14
REMARK    6  A    between atoms: O_14  and  C_15
REMARK    7  A    between atoms: C_19  and  C_20
REMARK                            x       y       z     vdW  Elec       q    Type
REMARK                         _______ _______ _______ _____ _____    ______ ____
ROOT
ATOM      1  C   UNL     1       6.054   5.188  17.282  0.00  0.00    +0.000 A 
ATOM      2  C   UNL     1       5.865   6.482  16.796  0.00  0.00    +0.000 A 
ATOM      3  C   UNL     1       6.688   7.526  17.228  0.00  0.00    +0.000 A 
ATOM      4  C   UNL     1       7.718   7.282  18.145  0.00  0.00    +0.000 A 
ATOM      5  C   UNL     1       7.887   5.987  18.647  0.00  0.00    +0.000 A 
ATOM      6  C   UNL     1       7.046   4.950  18.236  0.00  0.00    +0.000 A 
ENDROOT
BRANCH   1   7
ATOM      7  O   UNL     1       5.171   4.239  16.815  0.00  0.00    +0.000 OA
BRANCH   7  10
ATOM      8  C   UNL     1       2.635   4.223  19.455  0.00  0.00    +0.000 A 
ATOM      9  C   UNL     1       3.649   4.628  18.565  0.00  0.00    +0.000 A 
ATOM     10  C   UNL     1       4.198   3.733  17.644  0.00  0.00    +0.000 A 
ATOM     11  C   UNL     1       3.700   2.433  17.560  0.00  0.00    +0.000 A 
ATOM     12  C   UNL     1       2.706   2.013  18.445  0.00  0.00    +0.000 A 
ATOM     13  C   UNL     1       2.174   2.902  19.385  0.00  0.00    +0.000 A 
ATOM     14 CL   UNL     1       0.933   2.307  20.427  0.00  0.00    +0.000 Cl
BRANCH   8  16
ATOM     15  F   UNL     1       2.457   4.932  21.735  0.00  0.00    +0.000 F 
ATOM     16  C   UNL     1       2.074   5.200  20.452  0.00  0.00    +0.000 C 
ATOM     17  F   UNL     1       0.713   5.210  20.480  0.00  0.00    +0.000 F 
ATOM     18  F   UNL     1       2.466   6.483  20.221  0.00  0.00    +0.000 F 
ENDBRANCH   8  16
ENDBRANCH   7  10
ENDBRANCH   1   7
BRANCH   4  19
ATOM     19  C   UNL     1       8.600   8.405  18.625  0.00  0.00    +0.000 C 
BRANCH  19  20
ATOM     20  O   UNL     1       8.261   9.588  17.891  0.00  0.00    +0.000 OA
BRANCH  20  21
ATOM     21  C   UNL     1       8.970  10.692  18.227  0.00  0.00    +0.000 A 
ATOM     22  C   UNL     1       8.316  11.884  17.645  0.00  0.00    +0.000 A 
ATOM     23  C   UNL     1       8.926  13.042  17.921  0.00  0.00    +0.000 A 
ATOM     24  N   UNL     1      10.105  13.050  18.674  0.00  0.00    +0.000 N 
ATOM     25  C   UNL     1      10.950  14.083  19.063  0.00  0.00    +0.000 A 
ATOM     26  C   UNL     1      11.899  13.449  19.851  0.00  0.00    +0.000 A 
ATOM     27  N   UNL     1      11.701  12.100  19.915  0.00  0.00    +0.000 NA
ATOM     28  C   UNL     1      10.631  11.860  19.193  0.00  0.00    +0.000 A 
ATOM     29  N   UNL     1      10.041  10.655  18.950  0.00  0.00    +0.000 NA
BRANCH  25  30
ATOM     30  C   UNL     1      10.832  15.505  18.725  0.00  0.00    +0.000 A 
ATOM     31  C   UNL     1      11.290  15.989  17.494  0.00  0.00    +0.000 A 
ATOM     32  C   UNL     1      11.172  17.342  17.179  0.00  0.00    +0.000 A 
ATOM     33  C   UNL     1      10.601  18.186  18.114  0.00  0.00    +0.000 A 
ATOM     34  N   UNL     1      10.121  17.766  19.301  0.00  0.00    +0.000 NA
ATOM     35  C   UNL     1      10.226  16.439  19.563  0.00  0.00    +0.000 A 
ENDBRANCH  25  30
ENDBRANCH  20  21
ENDBRANCH  19  20
ENDBRANCH   4  19
TORSDOF 7
ENDMDL
MODEL 7
REMARK VINA RESULT:      -8.9      1.774      2.536
REMARK  Name = 
REMARK  7 active torsions:
REMARK  status: ('A' for Active; 'I' for Inactive)
REMARK    1  A    between atoms: C_2  and  C_5
REMARK    2  A    between atoms: C_7  and  O_8
REMARK    3  A    between atoms: O_8  and  C_9
REMARK    4  A    between atoms: C_12  and  C_13
REMARK    5  A    between atoms: C_13  and  O_14
REMARK    6  A    between atoms: O_14  and  C_15
REMARK    7  A    between atoms: C_19  and  C_20
REMARK                            x       y       z     vdW  Elec       q    Type
REMARK                         _______ _______ _______ _____ _____    ______ ____
ROOT
ATOM      1  C   UNL     1       5.828   5.208  17.204  0.00  0.00    +0.000 A 
ATOM      2  C   UNL     1       6.895   4.896  18.049  0.00  0.00    +0.000 A 
ATOM      3  C   UNL     1       7.792   5.890  18.449  0.00  0.00    +0.000 A 
ATOM      4  C   UNL     1       7.625   7.211  18.016  0.00  0.00    +0.000 A 
ATOM      5  C   UNL     1       6.568   7.513  17.149  0.00  0.00    +0.000 A 
ATOM      6  C   UNL     1       5.688   6.513  16.727  0.00  0.00    +0.000 A 
ENDROOT
BRANCH   1   7
ATOM      7  O   UNL     1       5.020   4.151  16.847  0.00  0.00    +0.000 OA
BRANCH   7  10
ATOM      8  C   UNL     1       2.591   4.126  19.585  0.00  0.00    +0.000 A 
ATOM      9  C   UNL     1       3.536   4.545  18.628  0.00  0.00    +0.000 A 
ATOM     10  C   UNL     1       4.123   3.631  17.749  0.00  0.00    +0.000 A 
ATOM     11  C   UNL     1       3.730   2.294  17.777  0.00  0.00    +0.000 A 
ATOM     12  C   UNL     1       2.807   1.861  18.730  0.00  0.00    +0.000 A 
ATOM     13  C   UNL     1       2.238   2.772  19.627  0.00  0.00    +0.000 A 
ATOM     14 CL   UNL     1       1.089   2.157  20.759  0.00  0.00    +0.000 Cl
BRANCH   8  16
ATOM     15  F   UNL     1       0.624   5.086  20.554  0.00  0.00    +0.000 F 
ATOM     16  C   UNL     1       1.988   5.126  20.534  0.00  0.00    +0.000 C 
ATOM     17  F   UNL     1       2.303   6.413  20.223  0.00  0.00    +0.000 F 
ATOM     18  F   UNL     1       2.372   4.935  21.826  0.00  0.00    +0.000 F 
ENDBRANCH   8  16
ENDBRANCH   7  10
ENDBRANCH   1   7
BRANCH   4  19
ATOM     19  C   UNL     1       8.596   8.284  18.433  0.00  0.00    +0.000 C 
BRANCH  19  20
ATOM     20  O   UNL     1       8.073   9.551  18.014  0.00  0.00    +0.000 OA
BRANCH  20  21
ATOM     21  C   UNL     1       8.848  10.618  18.320  0.00  0.00    +0.000 A 
ATOM     22  C   UNL     1       8.303  11.821  17.654  0.00  0.00    +0.000 A 
ATOM     23  C   UNL     1       8.986  12.946  17.893  0.00  0.00    +0.000 A 
ATOM     24  N   UNL     1      10.136  12.911  18.688  0.00  0.00    +0.000 N 
ATOM     25  C   UNL     1      11.040  13.902  19.056  0.00  0.00    +0.000 A 
ATOM     26  C   UNL     1      11.912  13.245  19.911  0.00  0.00    +0.000 A 
ATOM     27  N   UNL     1      11.615  11.919  20.036  0.00  0.00    +0.000 NA
ATOM     28  C   UNL     1      10.556  11.716  19.287  0.00  0.00    +0.000 A 
ATOM     29  N   UNL     1       9.889  10.545  19.084  0.00  0.00    +0.000 NA
BRANCH  25  30
ATOM     30  C   UNL     1      11.037  15.308  18.641  0.00  0.00    +0.000 A 
ATOM     31  C   UNL     1      10.659  16.318  19.534  0.00  0.00    +0.000 A 
ATOM     32  C   UNL     1      10.662  17.653  19.133  0.00  0.00    +0.000 A 
ATOM     33  C   UNL     1      11.038  17.946  17.835  0.00  0.00    +0.000 A 
ATOM     34  N   UNL     1      11.436  17.015  16.946  0.00  0.00    +0.000 NA
ATOM     35  C   UNL     1      11.448  15.729  17.378  0.00  0.00    +0.000 A 
ENDBRANCH  25  30
ENDBRANCH  20  21
ENDBRANCH  19  20
ENDBRANCH   4  19
TORSDOF 7
ENDMDL
MODEL 8
REMARK VINA RESULT:      -8.9      8.368     10.057
REMARK  Name = 
REMARK  7 active torsions:
REMARK  status: ('A' for Active; 'I' for Inactive)
REMARK    1  A    between atoms: C_2  and  C_5
REMARK    2  A    between atoms: C_7  and  O_8
REMARK    3  A    between atoms: O_8  and  C_9
REMARK    4  A    between atoms: C_12  and  C_13
REMARK    5  A    between atoms: C_13  and  O_14
REMARK    6  A    between atoms: O_14  and  C_15
REMARK    7  A    between atoms: C_19  and  C_20
REMARK                            x       y       z     vdW  Elec       q    Type
REMARK                         _______ _______ _______ _____ _____    ______ ____
ROOT
ATOM      1  C   UNL     1       2.317   7.061  19.773  0.00  0.00    +0.000 A 
ATOM      2  C   UNL     1       2.400   7.666  18.518  0.00  0.00    +0.000 A 
ATOM      3  C   UNL     1       1.787   8.901  18.288  0.00  0.00    +0.000 A 
ATOM      4  C   UNL     1       1.092   9.550  19.316  0.00  0.00    +0.000 A 
ATOM      5  C   UNL     1       0.992   8.927  20.566  0.00  0.00    +0.000 A 
ATOM      6  C   UNL     1       1.581   7.679  20.787  0.00  0.00    +0.000 A 
ENDROOT
BRANCH   1   7
ATOM      7  O   UNL     1       2.930   5.833  19.886  0.00  0.00    +0.000 OA
BRANCH   7  10
ATOM      8  C   UNL     1       5.820   5.092  17.765  0.00  0.00    +0.000 A 
ATOM      9  C   UNL     1       5.000   5.589  18.798  0.00  0.00    +0.000 A 
ATOM     10  C   UNL     1       3.631   5.310  18.826  0.00  0.00    +0.000 A 
ATOM     11  C   UNL     1       3.073   4.483  17.853  0.00  0.00    +0.000 A 
ATOM     12  C   UNL     1       3.869   3.996  16.815  0.00  0.00    +0.000 A 
ATOM     13  C   UNL     1       5.235   4.296  16.773  0.00  0.00    +0.000 A 
ATOM     14 CL   UNL     1       6.151   3.636  15.467  0.00  0.00    +0.000 Cl
BRANCH   8  16
ATOM     15  F   UNL     1       7.641   6.219  16.694  0.00  0.00    +0.000 F 
ATOM     16  C   UNL     1       7.287   5.423  17.745  0.00  0.00    +0.000 C 
ATOM     17  F   UNL     1       8.080   4.321  17.640  0.00  0.00    +0.000 F 
ATOM     18  F   UNL     1       7.699   6.092  18.856  0.00  0.00    +0.000 F 
ENDBRANCH   8  16
ENDBRANCH   7  10
ENDBRANCH   1   7
BRANCH   4  19
ATOM     19  C   UNL     1       0.419  10.875  19.071  0.00  0.00    +0.000 C 
BRANCH  19  20
ATOM     20  O   UNL     1       0.977  11.837  19.974  0.00  0.00    +0.000 OA
BRANCH  20  21
ATOM     21  C   UNL     1       0.101  12.359  20.865  0.00  0.00    +0.000 A 
ATOM     22  C   UNL     1      -1.236  11.768  20.636  0.00  0.00    +0.000 A 
ATOM     23  C   UNL     1      -2.186  12.205  21.469  0.00  0.00    +0.000 A 
ATOM     24  N   UNL     1      -1.882  13.172  22.433  0.00  0.00    +0.000 N 
ATOM     25  C   UNL     1      -2.670  13.819  23.378  0.00  0.00    +0.000 A 
ATOM     26  C   UNL     1      -1.764  14.605  24.074  0.00  0.00    +0.000 A 
ATOM     27  N   UNL     1      -0.499  14.503  23.574  0.00  0.00    +0.000 NA
ATOM     28  C   UNL     1      -0.574  13.654  22.576  0.00  0.00    +0.000 A 
ATOM     29  N   UNL     1       0.433  13.232  21.759  0.00  0.00    +0.000 NA
BRANCH  25  30
ATOM     30  C   UNL     1      -4.115  13.673  23.584  0.00  0.00    +0.000 A 
ATOM     31  C   UNL     1      -5.002  14.672  23.169  0.00  0.00    +0.000 A 
ATOM     32  C   UNL     1      -6.374  14.524  23.367  0.00  0.00    +0.000 A 
ATOM     33  C   UNL     1      -6.827  13.374  23.986  0.00  0.00    +0.000 A 
ATOM     34  N   UNL     1      -6.018  12.372  24.379  0.00  0.00    +0.000 NA
ATOM     35  C   UNL     1      -4.691  12.536  24.147  0.00  0.00    +0.000 A 
ENDBRANCH  25  30
ENDBRANCH  20  21
ENDBRANCH  19  20
ENDBRANCH   4  19
TORSDOF 7
ENDMDL
MODEL 9
REMARK VINA RESULT:      -8.8      0.997      1.326
REMARK  Name = 
REMARK  7 active torsions:
REMARK  status: ('A' for Active; 'I' for Inactive)
REMARK    1  A    between atoms: C_2  and  C_5
REMARK    2  A    between atoms: C_7  and  O_8
REMARK    3  A    between atoms: O_8  and  C_9
REMARK    4  A    between atoms: C_12  and  C_13
REMARK    5  A    between atoms: C_13  and  O_14
REMARK    6  A    between atoms: O_14  and  C_15
REMARK    7  A    between atoms: C_19  and  C_20
REMARK                            x       y       z     vdW  Elec       q    Type
REMARK                         _______ _______ _______ _____ _____    ______ ____
ROOT
ATOM      1  C   UNL     1       6.746   5.066  18.323  0.00  0.00    +0.000 A 
ATOM      2  C   UNL     1       6.199   5.856  17.310  0.00  0.00    +0.000 A 
ATOM      3  C   UNL     1       6.649   7.165  17.115  0.00  0.00    +0.000 A 
ATOM      4  C   UNL     1       7.661   7.694  17.927  0.00  0.00    +0.000 A 
ATOM      5  C   UNL     1       8.188   6.905  18.956  0.00  0.00    +0.000 A 
ATOM      6  C   UNL     1       7.718   5.606  19.167  0.00  0.00    +0.000 A 
ENDROOT
BRANCH   1   7
ATOM      7  O   UNL     1       6.211   3.802  18.449  0.00  0.00    +0.000 OA
BRANCH   7  10
ATOM      8  C   UNL     1       2.787   3.347  19.659  0.00  0.00    +0.000 A 
ATOM      9  C   UNL     1       4.183   3.523  19.606  0.00  0.00    +0.000 A 
ATOM     10  C   UNL     1       4.851   3.617  18.382  0.00  0.00    +0.000 A 
ATOM     11  C   UNL     1       4.123   3.595  17.193  0.00  0.00    +0.000 A 
ATOM     12  C   UNL     1       2.741   3.406  17.229  0.00  0.00    +0.000 A 
ATOM     13  C   UNL     1       2.075   3.286  18.454  0.00  0.00    +0.000 A 
ATOM     14 CL   UNL     1       0.363   3.076  18.409  0.00  0.00    +0.000 Cl
BRANCH   8  16
ATOM     15  F   UNL     1       2.962   3.094  22.033  0.00  0.00    +0.000 F 
ATOM     16  C   UNL     1       2.093   3.227  20.988  0.00  0.00    +0.000 C 
ATOM     17  F   UNL     1       1.274   2.143  21.066  0.00  0.00    +0.000 F 
ATOM     18  F   UNL     1       1.330   4.312  21.292  0.00  0.00    +0.000 F 
ENDBRANCH   8  16
ENDBRANCH   7  10
ENDBRANCH   1   7
BRANCH   4  19
ATOM     19  C   UNL     1       8.142   9.108  17.731  0.00  0.00    +0.000 C 
BRANCH  19  20
ATOM     20  O   UNL     1       8.947   9.469  18.859  0.00  0.00    +0.000 OA
BRANCH  20  21
ATOM     21  C   UNL     1       9.453  10.725  18.821  0.00  0.00    +0.000 A 
ATOM     22  C   UNL     1       9.371  11.323  20.172  0.00  0.00    +0.000 A 
ATOM     23  C   UNL     1       9.854  12.567  20.259  0.00  0.00    +0.000 A 
ATOM     24  N   UNL     1      10.348  13.207  19.118  0.00  0.00    +0.000 N 
ATOM     25  C   UNL     1      10.860  14.484  18.920  0.00  0.00    +0.000 A 
ATOM     26  C   UNL     1      11.243  14.479  17.587  0.00  0.00    +0.000 A 
ATOM     27  N   UNL     1      10.949  13.298  16.968  0.00  0.00    +0.000 NA
ATOM     28  C   UNL     1      10.396  12.540  17.887  0.00  0.00    +0.000 A 
ATOM     29  N   UNL     1       9.927  11.268  17.748  0.00  0.00    +0.000 NA
BRANCH  25  30
ATOM     30  C   UNL     1      10.975  15.561  19.909  0.00  0.00    +0.000 A 
ATOM     31  C   UNL     1      12.229  15.996  20.351  0.00  0.00    +0.000 A 
ATOM     32  C   UNL     1      12.331  17.022  21.289  0.00  0.00    +0.000 A 
ATOM     33  C   UNL     1      11.164  17.587  21.772  0.00  0.00    +0.000 A 
ATOM     34  N   UNL     1       9.934  17.223  21.359  0.00  0.00    +0.000 NA
ATOM     35  C   UNL     1       9.873  16.241  20.425  0.00  0.00    +0.000 A 
ENDBRANCH  25  30
ENDBRANCH  20  21
ENDBRANCH  19  20
ENDBRANCH   4  19
TORSDOF 7
ENDMDL
