MODEL 1
REMARK VINA RESULT:      -7.5      0.000      0.000
REMARK  Name = 
REMARK  5 active torsions:
REMARK  status: ('A' for Active; 'I' for Inactive)
REMARK    1  A    between atoms: C_1  and  C_2
REMARK    2  A    between atoms: C_5  and  N_6
REMARK    3  A    between atoms: N_9  and  C_10
REMARK    4  A    between atoms: C_18  and  O_19
REMARK    5  A    between atoms: O_19  and  C_20
REMARK                            x       y       z     vdW  Elec       q    Type
REMARK                         _______ _______ _______ _____ _____    ______ ____
ROOT
ATOM      1  N   UNL     1       1.867   8.084  19.681  0.00  0.00    +0.000 N 
ATOM      2  C   UNL     1       1.962   6.694  19.770  0.00  0.00    +0.000 C 
ATOM      3  O   UNL     1       1.288   6.001  20.507  0.00  0.00    +0.000 OA
ATOM      4  N   UNL     1       2.931   6.178  18.898  0.00  0.00    +0.000 N 
ATOM      5  H   UNL     1       2.584   8.570  19.172  0.00  0.00    +0.000 HD
ATOM      6  H   UNL     1       3.795   6.708  18.888  0.00  0.00    +0.000 HD
ENDROOT
BRANCH   4   7
ATOM      7  C   UNL     1       3.114   4.768  18.866  0.00  0.00    +0.000 A 
ATOM      8  C   UNL     1       4.156   4.163  19.579  0.00  0.00    +0.000 A 
ATOM      9  C   UNL     1       4.401   2.795  19.441  0.00  0.00    +0.000 A 
ATOM     10  C   UNL     1       3.608   2.036  18.585  0.00  0.00    +0.000 A 
ATOM     11  F   UNL     1       3.874   0.736  18.424  0.00  0.00    +0.000 F 
ATOM     12  C   UNL     1       2.550   2.614  17.887  0.00  0.00    +0.000 A 
ATOM     13  C   UNL     1       2.295   3.971  18.053  0.00  0.00    +0.000 A 
ATOM     14  F   UNL     1       1.300   4.537  17.354  0.00  0.00    +0.000 F 
ENDBRANCH   4   7
BRANCH   1  19
ATOM     15  C   UNL     1      -1.299  11.324  23.244  0.00  0.00    +0.000 C 
ATOM     16  C   UNL     1      -0.490  10.443  22.336  0.00  0.00    +0.000 A 
ATOM     17  C   UNL     1       0.474   9.554  22.822  0.00  0.00    +0.000 A 
ATOM     18  C   UNL     1       1.234   8.767  21.939  0.00  0.00    +0.000 A 
ATOM     19  C   UNL     1       1.049   8.858  20.553  0.00  0.00    +0.000 A 
ATOM     20  C   UNL     1       0.125   9.804  20.055  0.00  0.00    +0.000 A 
ATOM     21  C   UNL     1      -0.660  10.555  20.947  0.00  0.00    +0.000 A 
BRANCH  20  22
ATOM     22  O   UNL     1       0.133  10.042  18.705  0.00  0.00    +0.000 OA
BRANCH  22  23
ATOM     23  C   UNL     1      -1.131  10.296  18.108  0.00  0.00    +0.000 C 
ATOM     24  F   UNL     1      -1.191  11.584  17.691  0.00  0.00    +0.000 F 
ATOM     25  F   UNL     1      -1.198   9.530  16.988  0.00  0.00    +0.000 F 
ENDBRANCH  22  23
ENDBRANCH  20  22
ENDBRANCH   1  19
TORSDOF 4
ENDMDL
MODEL 2
REMARK VINA RESULT:      -7.4      2.675      8.080
REMARK  Name = 
REMARK  5 active torsions:
REMARK  status: ('A' for Active; 'I' for Inactive)
REMARK    1  A    between atoms: C_1  and  C_2
REMARK    2  A    between atoms: C_5  and  N_6
REMARK    3  A    between atoms: N_9  and  C_10
REMARK    4  A    between atoms: C_18  and  O_19
REMARK    5  A    between atoms: O_19  and  C_20
REMARK                            x       y       z     vdW  Elec       q    Type
REMARK                         _______ _______ _______ _____ _____    ______ ____
ROOT
ATOM      1  N   UNL     1       2.233   7.515  18.901  0.00  0.00    +0.000 N 
ATOM      2  C   UNL     1       1.871   8.766  18.398  0.00  0.00    +0.000 C 
ATOM      3  O   UNL     1       2.071   9.135  17.256  0.00  0.00    +0.000 OA
ATOM      4  N   UNL     1       1.239   9.558  19.365  0.00  0.00    +0.000 N 
ATOM      5  H   UNL     1       2.179   7.378  19.895  0.00  0.00    +0.000 HD
ATOM      6  H   UNL     1       1.688   9.530  20.274  0.00  0.00    +0.000 HD
ENDROOT
BRANCH   4   7
ATOM      7  C   UNL     1       0.791  10.851  18.977  0.00  0.00    +0.000 A 
ATOM      8  C   UNL     1       1.669  11.943  18.974  0.00  0.00    +0.000 A 
ATOM      9  C   UNL     1       1.190  13.229  18.712  0.00  0.00    +0.000 A 
ATOM     10  C   UNL     1      -0.165  13.421  18.462  0.00  0.00    +0.000 A 
ATOM     11  F   UNL     1      -0.625  14.660  18.255  0.00  0.00    +0.000 F 
ATOM     12  C   UNL     1      -1.049  12.346  18.435  0.00  0.00    +0.000 A 
ATOM     13  C   UNL     1      -0.560  11.065  18.667  0.00  0.00    +0.000 A 
ATOM     14  F   UNL     1      -1.415  10.032  18.679  0.00  0.00    +0.000 F 
ENDBRANCH   4   7
BRANCH   1  19
ATOM     15  C   UNL     1       5.471   3.717  16.021  0.00  0.00    +0.000 C 
ATOM     16  C   UNL     1       4.623   4.730  16.733  0.00  0.00    +0.000 A 
ATOM     17  C   UNL     1       4.998   6.074  16.841  0.00  0.00    +0.000 A 
ATOM     18  C   UNL     1       4.194   6.988  17.544  0.00  0.00    +0.000 A 
ATOM     19  C   UNL     1       3.003   6.577  18.157  0.00  0.00    +0.000 A 
ATOM     20  C   UNL     1       2.656   5.208  18.108  0.00  0.00    +0.000 A 
ATOM     21  C   UNL     1       3.444   4.310  17.368  0.00  0.00    +0.000 A 
BRANCH  20  22
ATOM     22  O   UNL     1       1.623   4.791  18.908  0.00  0.00    +0.000 OA
BRANCH  22  23
ATOM     23  C   UNL     1       1.988   4.049  20.064  0.00  0.00    +0.000 C 
ATOM     24  F   UNL     1       2.684   4.841  20.915  0.00  0.00    +0.000 F 
ATOM     25  F   UNL     1       0.835   3.723  20.702  0.00  0.00    +0.000 F 
ENDBRANCH  22  23
ENDBRANCH  20  22
ENDBRANCH   1  19
TORSDOF 4
ENDMDL
MODEL 3
REMARK VINA RESULT:      -7.4      5.065      8.353
REMARK  Name = 
REMARK  5 active torsions:
REMARK  status: ('A' for Active; 'I' for Inactive)
REMARK    1  A    between atoms: C_1  and  C_2
REMARK    2  A    between atoms: C_5  and  N_6
REMARK    3  A    between atoms: N_9  and  C_10
REMARK    4  A    between atoms: C_18  and  O_19
REMARK    5  A    between atoms: O_19  and  C_20
REMARK                            x       y       z     vdW  Elec       q    Type
REMARK                         _______ _______ _______ _____ _____    ______ ____
ROOT
ATOM      1  N   UNL     1       5.886   3.194  16.156  0.00  0.00    +0.000 N 
ATOM      2  C   UNL     1       4.769   3.673  16.842  0.00  0.00    +0.000 C 
ATOM      3  O   UNL     1       4.085   4.612  16.480  0.00  0.00    +0.000 OA
ATOM      4  N   UNL     1       4.515   2.938  18.008  0.00  0.00    +0.000 N 
ATOM      5  H   UNL     1       6.476   2.532  16.627  0.00  0.00    +0.000 HD
ATOM      6  H   UNL     1       5.346   2.732  18.551  0.00  0.00    +0.000 HD
ENDROOT
BRANCH   4   7
ATOM      7  C   UNL     1       3.385   3.302  18.792  0.00  0.00    +0.000 A 
ATOM      8  C   UNL     1       2.158   2.648  18.630  0.00  0.00    +0.000 A 
ATOM      9  C   UNL     1       1.026   3.096  19.314  0.00  0.00    +0.000 A 
ATOM     10  C   UNL     1       1.122   4.203  20.153  0.00  0.00    +0.000 A 
ATOM     11  F   UNL     1       0.026   4.654  20.772  0.00  0.00    +0.000 F 
ATOM     12  C   UNL     1       2.338   4.852  20.348  0.00  0.00    +0.000 A 
ATOM     13  C   UNL     1       3.467   4.380  19.686  0.00  0.00    +0.000 A 
ATOM     14  F   UNL     1       4.632   5.027  19.842  0.00  0.00    +0.000 F 
ENDBRANCH   4   7
BRANCH   1  19
ATOM     15  C   UNL     1       7.922   5.933  11.511  0.00  0.00    +0.000 C 
ATOM     16  C   UNL     1       7.407   5.180  12.704  0.00  0.00    +0.000 A 
ATOM     17  C   UNL     1       6.457   4.160  12.591  0.00  0.00    +0.000 A 
ATOM     18  C   UNL     1       5.974   3.499  13.734  0.00  0.00    +0.000 A 
ATOM     19  C   UNL     1       6.427   3.849  15.012  0.00  0.00    +0.000 A 
ATOM     20  C   UNL     1       7.335   4.924  15.137  0.00  0.00    +0.000 A 
ATOM     21  C   UNL     1       7.844   5.550  13.986  0.00  0.00    +0.000 A 
BRANCH  20  22
ATOM     22  O   UNL     1       7.580   5.400  16.400  0.00  0.00    +0.000 OA
BRANCH  22  23
ATOM     23  C   UNL     1       6.977   6.645  16.726  0.00  0.00    +0.000 C 
ATOM     24  F   UNL     1       6.193   6.501  17.822  0.00  0.00    +0.000 F 
ATOM     25  F   UNL     1       7.982   7.486  17.083  0.00  0.00    +0.000 F 
ENDBRANCH  22  23
ENDBRANCH  20  22
ENDBRANCH   1  19
TORSDOF 4
ENDMDL
MODEL 4
REMARK VINA RESULT:      -7.4      2.465      7.892
REMARK  Name = 
REMARK  5 active torsions:
REMARK  status: ('A' for Active; 'I' for Inactive)
REMARK    1  A    between atoms: C_1  and  C_2
REMARK    2  A    between atoms: C_5  and  N_6
REMARK    3  A    between atoms: N_9  and  C_10
REMARK    4  A    between atoms: C_18  and  O_19
REMARK    5  A    between atoms: O_19  and  C_20
REMARK                            x       y       z     vdW  Elec       q    Type
REMARK                         _______ _______ _______ _____ _____    ______ ____
ROOT
ATOM      1  N   UNL     1       3.104   6.751  18.875  0.00  0.00    +0.000 N 
ATOM      2  C   UNL     1       2.289   7.855  18.619  0.00  0.00    +0.000 C 
ATOM      3  O   UNL     1       1.999   8.256  17.508  0.00  0.00    +0.000 OA
ATOM      4  N   UNL     1       1.832   8.455  19.800  0.00  0.00    +0.000 N 
ATOM      5  H   UNL     1       3.419   6.612  19.819  0.00  0.00    +0.000 HD
ATOM      6  H   UNL     1       2.548   8.556  20.511  0.00  0.00    +0.000 HD
ENDROOT
BRANCH   4   7
ATOM      7  C   UNL     1       0.967   9.578  19.683  0.00  0.00    +0.000 A 
ATOM      8  C   UNL     1       1.305  10.664  18.865  0.00  0.00    +0.000 A 
ATOM      9  C   UNL     1       0.510  11.811  18.856  0.00  0.00    +0.000 A 
ATOM     10  C   UNL     1      -0.617  11.876  19.669  0.00  0.00    +0.000 A 
ATOM     11  F   UNL     1      -1.350  12.994  19.688  0.00  0.00    +0.000 F 
ATOM     12  C   UNL     1      -0.985  10.798  20.471  0.00  0.00    +0.000 A 
ATOM     13  C   UNL     1      -0.204   9.647  20.452  0.00  0.00    +0.000 A 
ATOM     14  F   UNL     1      -0.535   8.622  21.251  0.00  0.00    +0.000 F 
ENDBRANCH   4   7
BRANCH   1  19
ATOM     15  C   UNL     1       6.055   3.908  14.823  0.00  0.00    +0.000 C 
ATOM     16  C   UNL     1       5.271   4.677  15.847  0.00  0.00    +0.000 A 
ATOM     17  C   UNL     1       5.488   6.037  16.087  0.00  0.00    +0.000 A 
ATOM     18  C   UNL     1       4.756   6.717  17.077  0.00  0.00    +0.000 A 
ATOM     19  C   UNL     1       3.797   6.048  17.848  0.00  0.00    +0.000 A 
ATOM     20  C   UNL     1       3.622   4.660  17.655  0.00  0.00    +0.000 A 
ATOM     21  C   UNL     1       4.328   3.999  16.635  0.00  0.00    +0.000 A 
BRANCH  20  22
ATOM     22  O   UNL     1       2.858   3.986  18.574  0.00  0.00    +0.000 OA
BRANCH  22  23
ATOM     23  C   UNL     1       1.597   3.519  18.116  0.00  0.00    +0.000 C 
ATOM     24  F   UNL     1       0.767   3.332  19.171  0.00  0.00    +0.000 F 
ATOM     25  F   UNL     1       1.053   4.518  17.374  0.00  0.00    +0.000 F 
ENDBRANCH  22  23
ENDBRANCH  20  22
ENDBRANCH   1  19
TORSDOF 4
ENDMDL
MODEL 5
REMARK VINA RESULT:      -7.4      2.581      8.072
REMARK  Name = 
REMARK  5 active torsions:
REMARK  status: ('A' for Active; 'I' for Inactive)
REMARK    1  A    between atoms: C_1  and  C_2
REMARK    2  A    between atoms: C_5  and  N_6
REMARK    3  A    between atoms: N_9  and  C_10
REMARK    4  A    between atoms: C_18  and  O_19
REMARK    5  A    between atoms: O_19  and  C_20
REMARK                            x       y       z     vdW  Elec       q    Type
REMARK                         _______ _______ _______ _____ _____    ______ ____
ROOT
ATOM      1  N   UNL     1       2.518   7.464  18.741  0.00  0.00    +0.000 N 
ATOM      2  C   UNL     1       2.088   8.704  18.265  0.00  0.00    +0.000 C 
ATOM      3  O   UNL     1       2.241   9.096  17.124  0.00  0.00    +0.000 OA
ATOM      4  N   UNL     1       1.446   9.453  19.260  0.00  0.00    +0.000 N 
ATOM      5  H   UNL     1       2.496   7.312  19.734  0.00  0.00    +0.000 HD
ATOM      6  H   UNL     1       1.919   9.434  20.156  0.00  0.00    +0.000 HD
ENDROOT
BRANCH   4   7
ATOM      7  C   UNL     1       0.931  10.730  18.902  0.00  0.00    +0.000 A 
ATOM      8  C   UNL     1       1.769  11.851  18.840  0.00  0.00    +0.000 A 
ATOM      9  C   UNL     1       1.232  13.119  18.610  0.00  0.00    +0.000 A 
ATOM     10  C   UNL     1      -0.142  13.266  18.451  0.00  0.00    +0.000 A 
ATOM     11  F   UNL     1      -0.656  14.488  18.274  0.00  0.00    +0.000 F 
ATOM     12  C   UNL     1      -0.990  12.162  18.483  0.00  0.00    +0.000 A 
ATOM     13  C   UNL     1      -0.444  10.898  18.683  0.00  0.00    +0.000 A 
ATOM     14  F   UNL     1      -1.262   9.838  18.751  0.00  0.00    +0.000 F 
ENDBRANCH   4   7
BRANCH   1  19
ATOM     15  C   UNL     1       5.858   3.877  15.709  0.00  0.00    +0.000 C 
ATOM     16  C   UNL     1       4.975   4.832  16.460  0.00  0.00    +0.000 A 
ATOM     17  C   UNL     1       5.172   6.216  16.425  0.00  0.00    +0.000 A 
ATOM     18  C   UNL     1       4.345   7.077  17.168  0.00  0.00    +0.000 A 
ATOM     19  C   UNL     1       3.310   6.571  17.963  0.00  0.00    +0.000 A 
ATOM     20  C   UNL     1       3.150   5.171  18.055  0.00  0.00    +0.000 A 
ATOM     21  C   UNL     1       3.954   4.320  17.277  0.00  0.00    +0.000 A 
BRANCH  20  22
ATOM     22  O   UNL     1       2.294   4.695  19.015  0.00  0.00    +0.000 OA
BRANCH  22  23
ATOM     23  C   UNL     1       1.438   3.632  18.617  0.00  0.00    +0.000 C 
ATOM     24  F   UNL     1       0.536   3.380  19.597  0.00  0.00    +0.000 F 
ATOM     25  F   UNL     1       0.727   4.079  17.550  0.00  0.00    +0.000 F 
ENDBRANCH  22  23
ENDBRANCH  20  22
ENDBRANCH   1  19
TORSDOF 4
ENDMDL
MODEL 6
REMARK VINA RESULT:      -7.3      2.716      3.301
REMARK  Name = 
REMARK  5 active torsions:
REMARK  status: ('A' for Active; 'I' for Inactive)
REMARK    1  A    between atoms: C_1  and  C_2
REMARK    2  A    between atoms: C_5  and  N_6
REMARK    3  A    between atoms: N_9  and  C_10
REMARK    4  A    between atoms: C_18  and  O_19
REMARK    5  A    between atoms: O_19  and  C_20
REMARK                            x       y       z     vdW  Elec       q    Type
REMARK                         _______ _______ _______ _____ _____    ______ ____
ROOT
ATOM      1  N   UNL     1       1.496   8.199  20.340  0.00  0.00    +0.000 N 
ATOM      2  C   UNL     1       2.299   7.530  19.415  0.00  0.00    +0.000 C 
ATOM      3  O   UNL     1       2.691   8.007  18.367  0.00  0.00    +0.000 OA
ATOM      4  N   UNL     1       2.613   6.230  19.836  0.00  0.00    +0.000 N 
ATOM      5  H   UNL     1       1.089   7.659  21.083  0.00  0.00    +0.000 HD
ATOM      6  H   UNL     1       1.824   5.725  20.225  0.00  0.00    +0.000 HD
ENDROOT
BRANCH   4   7
ATOM      7  C   UNL     1       3.451   5.444  18.998  0.00  0.00    +0.000 A 
ATOM      8  C   UNL     1       4.837   5.409  19.198  0.00  0.00    +0.000 A 
ATOM      9  C   UNL     1       5.660   4.733  18.295  0.00  0.00    +0.000 A 
ATOM     10  C   UNL     1       5.099   4.102  17.190  0.00  0.00    +0.000 A 
ATOM     11  F   UNL     1       5.897   3.494  16.306  0.00  0.00    +0.000 F 
ATOM     12  C   UNL     1       3.721   4.103  16.987  0.00  0.00    +0.000 A 
ATOM     13  C   UNL     1       2.905   4.752  17.907  0.00  0.00    +0.000 A 
ATOM     14  F   UNL     1       1.581   4.787  17.693  0.00  0.00    +0.000 F 
ENDBRANCH   4   7
BRANCH   1  19
ATOM     15  C   UNL     1      -0.938  13.321  19.309  0.00  0.00    +0.000 C 
ATOM     16  C   UNL     1      -0.272  11.996  19.547  0.00  0.00    +0.000 A 
ATOM     17  C   UNL     1      -0.127  11.041  18.535  0.00  0.00    +0.000 A 
ATOM     18  C   UNL     1       0.473   9.798  18.803  0.00  0.00    +0.000 A 
ATOM     19  C   UNL     1       0.935   9.483  20.087  0.00  0.00    +0.000 A 
ATOM     20  C   UNL     1       0.729  10.418  21.127  0.00  0.00    +0.000 A 
ATOM     21  C   UNL     1       0.167  11.673  20.841  0.00  0.00    +0.000 A 
BRANCH  20  22
ATOM     22  O   UNL     1       0.971   9.997  22.410  0.00  0.00    +0.000 OA
BRANCH  22  23
ATOM     23  C   UNL     1      -0.175   9.695  23.195  0.00  0.00    +0.000 C 
ATOM     24  F   UNL     1      -0.880   8.696  22.609  0.00  0.00    +0.000 F 
ATOM     25  F   UNL     1       0.278   9.201  24.376  0.00  0.00    +0.000 F 
ENDBRANCH  22  23
ENDBRANCH  20  22
ENDBRANCH   1  19
TORSDOF 4
ENDMDL
MODEL 7
REMARK VINA RESULT:      -7.2      2.387      2.963
REMARK  Name = 
REMARK  5 active torsions:
REMARK  status: ('A' for Active; 'I' for Inactive)
REMARK    1  A    between atoms: C_1  and  C_2
REMARK    2  A    between atoms: C_5  and  N_6
REMARK    3  A    between atoms: N_9  and  C_10
REMARK    4  A    between atoms: C_18  and  O_19
REMARK    5  A    between atoms: O_19  and  C_20
REMARK                            x       y       z     vdW  Elec       q    Type
REMARK                         _______ _______ _______ _____ _____    ______ ____
ROOT
ATOM      1  N   UNL     1       1.791   7.740  20.998  0.00  0.00    +0.000 N 
ATOM      2  C   UNL     1       2.119   6.669  20.165  0.00  0.00    +0.000 C 
ATOM      3  O   UNL     1       2.165   6.727  18.951  0.00  0.00    +0.000 OA
ATOM      4  N   UNL     1       2.399   5.505  20.893  0.00  0.00    +0.000 N 
ATOM      5  H   UNL     1       1.614   7.541  21.967  0.00  0.00    +0.000 HD
ATOM      6  H   UNL     1       1.746   5.328  21.649  0.00  0.00    +0.000 HD
ENDROOT
BRANCH   4   7
ATOM      7  C   UNL     1       2.776   4.341  20.168  0.00  0.00    +0.000 A 
ATOM      8  C   UNL     1       4.080   4.192  19.678  0.00  0.00    +0.000 A 
ATOM      9  C   UNL     1       4.404   3.105  18.862  0.00  0.00    +0.000 A 
ATOM     10  C   UNL     1       3.424   2.175  18.532  0.00  0.00    +0.000 A 
ATOM     11  F   UNL     1       3.729   1.161  17.716  0.00  0.00    +0.000 F 
ATOM     12  C   UNL     1       2.128   2.291  19.030  0.00  0.00    +0.000 A 
ATOM     13  C   UNL     1       1.821   3.360  19.865  0.00  0.00    +0.000 A 
ATOM     14  F   UNL     1       0.565   3.495  20.316  0.00  0.00    +0.000 F 
ENDBRANCH   4   7
BRANCH   1  19
ATOM     15  C   UNL     1      -0.195  12.749  18.952  0.00  0.00    +0.000 C 
ATOM     16  C   UNL     1       0.359  11.448  19.459  0.00  0.00    +0.000 A 
ATOM     17  C   UNL     1       0.618  10.366  18.611  0.00  0.00    +0.000 A 
ATOM     18  C   UNL     1       1.107   9.153  19.127  0.00  0.00    +0.000 A 
ATOM     19  C   UNL     1       1.340   8.995  20.499  0.00  0.00    +0.000 A 
ATOM     20  C   UNL     1       1.016  10.062  21.366  0.00  0.00    +0.000 A 
ATOM     21  C   UNL     1       0.568  11.285  20.837  0.00  0.00    +0.000 A 
BRANCH  20  22
ATOM     22  O   UNL     1       1.027   9.806  22.713  0.00  0.00    +0.000 OA
BRANCH  22  23
ATOM     23  C   UNL     1      -0.233   9.526  23.307  0.00  0.00    +0.000 C 
ATOM     24  F   UNL     1      -0.945  10.672  23.433  0.00  0.00    +0.000 F 
ATOM     25  F   UNL     1      -0.917   8.747  22.429  0.00  0.00    +0.000 F 
ENDBRANCH  22  23
ENDBRANCH  20  22
ENDBRANCH   1  19
TORSDOF 4
ENDMDL
MODEL 8
REMARK VINA RESULT:      -7.2      2.457      7.821
REMARK  Name = 
REMARK  5 active torsions:
REMARK  status: ('A' for Active; 'I' for Inactive)
REMARK    1  A    between atoms: C_1  and  C_2
REMARK    2  A    between atoms: C_5  and  N_6
REMARK    3  A    between atoms: N_9  and  C_10
REMARK    4  A    between atoms: C_18  and  O_19
REMARK    5  A    between atoms: O_19  and  C_20
REMARK                            x       y       z     vdW  Elec       q    Type
REMARK                         _______ _______ _______ _____ _____    ______ ____
ROOT
ATOM      1  N   UNL     1       2.800   6.677  18.938  0.00  0.00    +0.000 N 
ATOM      2  C   UNL     1       1.979   7.201  19.938  0.00  0.00    +0.000 C 
ATOM      3  O   UNL     1       1.476   6.547  20.832  0.00  0.00    +0.000 OA
ATOM      4  N   UNL     1       1.801   8.584  19.799  0.00  0.00    +0.000 N 
ATOM      5  H   UNL     1       3.020   7.268  18.156  0.00  0.00    +0.000 HD
ATOM      6  H   UNL     1       1.626   8.880  18.846  0.00  0.00    +0.000 HD
ENDROOT
BRANCH   4   7
ATOM      7  C   UNL     1       1.007   9.253  20.771  0.00  0.00    +0.000 A 
ATOM      8  C   UNL     1       1.159   8.980  22.136  0.00  0.00    +0.000 A 
ATOM      9  C   UNL     1       0.290   9.550  23.068  0.00  0.00    +0.000 A 
ATOM     10  C   UNL     1      -0.734  10.385  22.635  0.00  0.00    +0.000 A 
ATOM     11  F   UNL     1      -1.590  10.893  23.528  0.00  0.00    +0.000 F 
ATOM     12  C   UNL     1      -0.888  10.690  21.285  0.00  0.00    +0.000 A 
ATOM     13  C   UNL     1       0.000  10.143  20.365  0.00  0.00    +0.000 A 
ATOM     14  F   UNL     1      -0.168  10.405  19.060  0.00  0.00    +0.000 F 
ENDBRANCH   4   7
BRANCH   1  19
ATOM     15  C   UNL     1       3.772   1.053  18.134  0.00  0.00    +0.000 C 
ATOM     16  C   UNL     1       3.480   2.508  18.365  0.00  0.00    +0.000 A 
ATOM     17  C   UNL     1       2.336   3.130  17.856  0.00  0.00    +0.000 A 
ATOM     18  C   UNL     1       2.112   4.502  18.065  0.00  0.00    +0.000 A 
ATOM     19  C   UNL     1       3.030   5.280  18.782  0.00  0.00    +0.000 A 
ATOM     20  C   UNL     1       4.220   4.671  19.239  0.00  0.00    +0.000 A 
ATOM     21  C   UNL     1       4.414   3.290  19.062  0.00  0.00    +0.000 A 
BRANCH  20  22
ATOM     22  O   UNL     1       5.204   5.494  19.725  0.00  0.00    +0.000 OA
BRANCH  22  23
ATOM     23  C   UNL     1       6.442   5.467  19.028  0.00  0.00    +0.000 C 
ATOM     24  F   UNL     1       6.455   6.437  18.082  0.00  0.00    +0.000 F 
ATOM     25  F   UNL     1       7.406   5.796  19.926  0.00  0.00    +0.000 F 
ENDBRANCH  22  23
ENDBRANCH  20  22
ENDBRANCH   1  19
TORSDOF 4
ENDMDL
MODEL 9
REMARK VINA RESULT:      -7.2      1.105      1.316
REMARK  Name = 
REMARK  5 active torsions:
REMARK  status: ('A' for Active; 'I' for Inactive)
REMARK    1  A    between atoms: C_1  and  C_2
REMARK    2  A    between atoms: C_5  and  N_6
REMARK    3  A    between atoms: N_9  and  C_10
REMARK    4  A    between atoms: C_18  and  O_19
REMARK    5  A    between atoms: O_19  and  C_20
REMARK                            x       y       z     vdW  Elec       q    Type
REMARK                         _______ _______ _______ _____ _____    ______ ____
ROOT
ATOM      1  N   UNL     1       1.967   8.119  19.704  0.00  0.00    +0.000 N 
ATOM      2  C   UNL     1       2.017   6.726  19.772  0.00  0.00    +0.000 C 
ATOM      3  O   UNL     1       1.282   6.041  20.457  0.00  0.00    +0.000 OA
ATOM      4  N   UNL     1       3.019   6.197  18.948  0.00  0.00    +0.000 N 
ATOM      5  H   UNL     1       2.726   8.592  19.246  0.00  0.00    +0.000 HD
ATOM      6  H   UNL     1       3.898   6.700  18.997  0.00  0.00    +0.000 HD
ENDROOT
BRANCH   4   7
ATOM      7  C   UNL     1       3.163   4.782  18.900  0.00  0.00    +0.000 A 
ATOM      8  C   UNL     1       4.176   4.138  19.622  0.00  0.00    +0.000 A 
ATOM      9  C   UNL     1       4.384   2.766  19.469  0.00  0.00    +0.000 A 
ATOM     10  C   UNL     1       3.586   2.041  18.590  0.00  0.00    +0.000 A 
ATOM     11  F   UNL     1       3.818   0.736  18.416  0.00  0.00    +0.000 F 
ATOM     12  C   UNL     1       2.557   2.658  17.882  0.00  0.00    +0.000 A 
ATOM     13  C   UNL     1       2.336   4.019  18.062  0.00  0.00    +0.000 A 
ATOM     14  F   UNL     1       1.370   4.622  17.353  0.00  0.00    +0.000 F 
ENDBRANCH   4   7
BRANCH   1  19
ATOM     15  C   UNL     1      -1.298  11.364  23.172  0.00  0.00    +0.000 C 
ATOM     16  C   UNL     1      -0.473  10.482  22.279  0.00  0.00    +0.000 A 
ATOM     17  C   UNL     1       0.233   9.377  22.766  0.00  0.00    +0.000 A 
ATOM     18  C   UNL     1       1.021   8.594  21.905  0.00  0.00    +0.000 A 
ATOM     19  C   UNL     1       1.124   8.903  20.543  0.00  0.00    +0.000 A 
ATOM     20  C   UNL     1       0.468  10.057  20.060  0.00  0.00    +0.000 A 
ATOM     21  C   UNL     1      -0.351  10.809  20.919  0.00  0.00    +0.000 A 
BRANCH  20  22
ATOM     22  O   UNL     1       0.772  10.471  18.788  0.00  0.00    +0.000 OA
BRANCH  22  23
ATOM     23  C   UNL     1       1.590  11.629  18.687  0.00  0.00    +0.000 C 
ATOM     24  F   UNL     1       2.543  11.435  17.743  0.00  0.00    +0.000 F 
ATOM     25  F   UNL     1       0.796  12.631  18.227  0.00  0.00    +0.000 F 
ENDBRANCH  22  23
ENDBRANCH  20  22
ENDBRANCH   1  19
TORSDOF 4
ENDMDL
