MODEL 1
REMARK VINA RESULT:      -8.3      0.000      0.000
REMARK  Name = 
REMARK  8 active torsions:
REMARK  status: ('A' for Active; 'I' for Inactive)
REMARK    1  A    between atoms: C_1  and  C_2
REMARK    2  A    between atoms: C_2  and  C_3
REMARK    3  A    between atoms: C_2  and  N_4
REMARK    4  A    between atoms: C_6  and  C_7
REMARK    5  A    between atoms: N_9  and  C_10
REMARK    6  A    between atoms: C_10  and  C_11
REMARK    7  A    between atoms: N_14  and  C_15
REMARK    8  A    between atoms: C_15  and  C_16
REMARK                            x       y       z     vdW  Elec       q    Type
REMARK                         _______ _______ _______ _____ _____    ______ ____
ROOT
ATOM      1  C   UNL     1       2.456   7.341  19.090  0.00  0.00    +0.000 C 
ATOM      2  O   UNL     1       2.211   8.285  18.353  0.00  0.00    +0.000 OA
ATOM      3  N   UNL     1       2.181   7.428  20.424  0.00  0.00    +0.000 N 
ATOM      4  H   UNL     1       2.375   6.619  21.034  0.00  0.00    +0.000 HD
ENDROOT
BRANCH   1   7
ATOM      5  N   UNL     1       4.402   4.815  17.378  0.00  0.00    +0.000 N 
ATOM      6  N   UNL     1       4.201   6.077  17.772  0.00  0.00    +0.000 NA
ATOM      7  C   UNL     1       3.060   6.120  18.507  0.00  0.00    +0.000 A 
ATOM      8  C   UNL     1       2.540   4.838  18.574  0.00  0.00    +0.000 A 
ATOM      9  C   UNL     1       1.391   4.325  19.180  0.00  0.00    +0.000 A 
ATOM     10  C   UNL     1       1.120   2.958  19.016  0.00  0.00    +0.000 A 
ATOM     11  C   UNL     1       1.985   2.143  18.263  0.00  0.00    +0.000 A 
ATOM     12  C   UNL     1       3.143   2.683  17.669  0.00  0.00    +0.000 A 
ATOM     13  C   UNL     1       3.392   4.053  17.848  0.00  0.00    +0.000 A 
BRANCH   5  15
ATOM     14  C   UNL     1       5.530   5.025  15.187  0.00  0.00    +0.000 C 
ATOM     15  C   UNL     1       5.555   4.377  16.574  0.00  0.00    +0.000 C 
ATOM     16  C   UNL     1       6.861   4.708  17.300  0.00  0.00    +0.000 C 
ENDBRANCH   5  15
ENDBRANCH   1   7
BRANCH   3  17
ATOM     17  C   UNL     1       1.592   8.618  21.024  0.00  0.00    +0.000 C 
BRANCH  17  18
ATOM     18  C   UNL     1       0.038   8.575  21.034  0.00  0.00    +0.000 C 
ATOM     19  C   UNL     1      -0.551   9.660  20.116  0.00  0.00    +0.000 C 
ATOM     20  C   UNL     1      -0.310  11.059  20.695  0.00  0.00    +0.000 C 
ATOM     21  N   UNL     1      -0.917  11.189  22.044  0.00  0.00    +0.000 NA
ATOM     22  C   UNL     1      -0.401  10.160  22.980  0.00  0.00    +0.000 C 
ATOM     23  C   UNL     1      -0.610   8.741  22.421  0.00  0.00    +0.000 C 
BRANCH  21  24
ATOM     24  C   UNL     1      -0.668  12.541  22.600  0.00  0.00    +0.000 C 
BRANCH  24  25
ATOM     25  C   UNL     1      -1.933  13.120  23.182  0.00  0.00    +0.000 A 
ATOM     26  C   UNL     1      -3.161  12.472  22.971  0.00  0.00    +0.000 A 
ATOM     27  C   UNL     1      -4.345  13.036  23.454  0.00  0.00    +0.000 A 
ATOM     28  C   UNL     1      -4.312  14.247  24.149  0.00  0.00    +0.000 A 
ATOM     29  C   UNL     1      -3.094  14.894  24.372  0.00  0.00    +0.000 A 
ATOM     30  C   UNL     1      -1.906  14.333  23.893  0.00  0.00    +0.000 A 
ENDBRANCH  24  25
ENDBRANCH  21  24
ENDBRANCH  17  18
ENDBRANCH   3  17
TORSDOF 6
ENDMDL
MODEL 2
REMARK VINA RESULT:      -8.0      0.734      1.163
REMARK  Name = 
REMARK  8 active torsions:
REMARK  status: ('A' for Active; 'I' for Inactive)
REMARK    1  A    between atoms: C_1  and  C_2
REMARK    2  A    between atoms: C_2  and  C_3
REMARK    3  A    between atoms: C_2  and  N_4
REMARK    4  A    between atoms: C_6  and  C_7
REMARK    5  A    between atoms: N_9  and  C_10
REMARK    6  A    between atoms: C_10  and  C_11
REMARK    7  A    between atoms: N_14  and  C_15
REMARK    8  A    between atoms: C_15  and  C_16
REMARK                            x       y       z     vdW  Elec       q    Type
REMARK                         _______ _______ _______ _____ _____    ______ ____
ROOT
ATOM      1  C   UNL     1       2.730   7.547  18.208  0.00  0.00    +0.000 C 
ATOM      2  O   UNL     1       2.571   8.369  17.317  0.00  0.00    +0.000 OA
ATOM      3  N   UNL     1       2.301   7.823  19.474  0.00  0.00    +0.000 N 
ATOM      4  H   UNL     1       2.425   7.116  20.215  0.00  0.00    +0.000 HD
ENDROOT
BRANCH   1   7
ATOM      5  N   UNL     1       4.895   4.840  17.167  0.00  0.00    +0.000 N 
ATOM      6  N   UNL     1       4.654   6.139  17.372  0.00  0.00    +0.000 NA
ATOM      7  C   UNL     1       3.403   6.267  17.885  0.00  0.00    +0.000 A 
ATOM      8  C   UNL     1       2.854   5.001  18.007  0.00  0.00    +0.000 A 
ATOM      9  C   UNL     1       1.606   4.562  18.458  0.00  0.00    +0.000 A 
ATOM     10  C   UNL     1       1.341   3.185  18.407  0.00  0.00    +0.000 A 
ATOM     11  C   UNL     1       2.308   2.288  17.917  0.00  0.00    +0.000 A 
ATOM     12  C   UNL     1       3.563   2.755  17.478  0.00  0.00    +0.000 A 
ATOM     13  C   UNL     1       3.803   4.137  17.538  0.00  0.00    +0.000 A 
BRANCH   5  15
ATOM     14  C   UNL     1       6.389   4.789  15.197  0.00  0.00    +0.000 C 
ATOM     15  C   UNL     1       6.161   4.311  16.635  0.00  0.00    +0.000 C 
ATOM     16  C   UNL     1       7.328   4.730  17.533  0.00  0.00    +0.000 C 
ENDBRANCH   5  15
ENDBRANCH   1   7
BRANCH   3  17
ATOM     17  C   UNL     1       1.642   9.076  19.820  0.00  0.00    +0.000 C 
BRANCH  17  18
ATOM     18  C   UNL     1       0.143   8.881  20.182  0.00  0.00    +0.000 C 
ATOM     19  C   UNL     1      -0.733   9.943  19.494  0.00  0.00    +0.000 C 
ATOM     20  C   UNL     1      -0.483  11.332  20.091  0.00  0.00    +0.000 C 
ATOM     21  N   UNL     1      -0.767  11.345  21.548  0.00  0.00    +0.000 NA
ATOM     22  C   UNL     1       0.037  10.332  22.274  0.00  0.00    +0.000 C 
ATOM     23  C   UNL     1      -0.176   8.925  21.688  0.00  0.00    +0.000 C 
BRANCH  21  24
ATOM     24  C   UNL     1      -0.511  12.690  22.118  0.00  0.00    +0.000 C 
BRANCH  24  25
ATOM     25  C   UNL     1      -1.655  13.123  23.001  0.00  0.00    +0.000 A 
ATOM     26  C   UNL     1      -1.491  14.208  23.876  0.00  0.00    +0.000 A 
ATOM     27  C   UNL     1      -2.526  14.575  24.742  0.00  0.00    +0.000 A 
ATOM     28  C   UNL     1      -3.728  13.863  24.739  0.00  0.00    +0.000 A 
ATOM     29  C   UNL     1      -3.903  12.788  23.864  0.00  0.00    +0.000 A 
ATOM     30  C   UNL     1      -2.872  12.418  22.994  0.00  0.00    +0.000 A 
ENDBRANCH  24  25
ENDBRANCH  21  24
ENDBRANCH  17  18
ENDBRANCH   3  17
TORSDOF 6
ENDMDL
MODEL 3
REMARK VINA RESULT:      -8.0      2.197      9.516
REMARK  Name = 
REMARK  8 active torsions:
REMARK  status: ('A' for Active; 'I' for Inactive)
REMARK    1  A    between atoms: C_1  and  C_2
REMARK    2  A    between atoms: C_2  and  C_3
REMARK    3  A    between atoms: C_2  and  N_4
REMARK    4  A    between atoms: C_6  and  C_7
REMARK    5  A    between atoms: N_9  and  C_10
REMARK    6  A    between atoms: C_10  and  C_11
REMARK    7  A    between atoms: N_14  and  C_15
REMARK    8  A    between atoms: C_15  and  C_16
REMARK                            x       y       z     vdW  Elec       q    Type
REMARK                         _______ _______ _______ _____ _____    ______ ____
ROOT
ATOM      1  C   UNL     1       1.881   8.176  19.475  0.00  0.00    +0.000 C 
ATOM      2  O   UNL     1       2.608   8.284  18.498  0.00  0.00    +0.000 OA
ATOM      3  N   UNL     1       2.003   7.095  20.299  0.00  0.00    +0.000 N 
ATOM      4  H   UNL     1       1.396   7.023  21.130  0.00  0.00    +0.000 HD
ENDROOT
BRANCH   1   7
ATOM      5  N   UNL     1      -0.491  10.909  19.408  0.00  0.00    +0.000 N 
ATOM      6  N   UNL     1       0.346  10.065  18.797  0.00  0.00    +0.000 NA
ATOM      7  C   UNL     1       0.870   9.229  19.731  0.00  0.00    +0.000 A 
ATOM      8  C   UNL     1       0.333   9.566  20.962  0.00  0.00    +0.000 A 
ATOM      9  C   UNL     1       0.536   9.048  22.243  0.00  0.00    +0.000 A 
ATOM     10  C   UNL     1      -0.142   9.659  23.309  0.00  0.00    +0.000 A 
ATOM     11  C   UNL     1      -0.994  10.756  23.081  0.00  0.00    +0.000 A 
ATOM     12  C   UNL     1      -1.189  11.253  21.777  0.00  0.00    +0.000 A 
ATOM     13  C   UNL     1      -0.500  10.624  20.728  0.00  0.00    +0.000 A 
BRANCH   5  15
ATOM     14  C   UNL     1      -0.360  13.122  18.313  0.00  0.00    +0.000 C 
ATOM     15  C   UNL     1      -1.263  11.952  18.712  0.00  0.00    +0.000 C 
ATOM     16  C   UNL     1      -1.957  11.362  17.481  0.00  0.00    +0.000 C 
ENDBRANCH   5  15
ENDBRANCH   1   7
BRANCH   3  17
ATOM     17  C   UNL     1       2.984   6.043  20.068  0.00  0.00    +0.000 C 
BRANCH  17  18
ATOM     18  C   UNL     1       2.362   4.785  19.399  0.00  0.00    +0.000 C 
ATOM     19  C   UNL     1       3.233   3.541  19.648  0.00  0.00    +0.000 C 
ATOM     20  C   UNL     1       4.557   3.635  18.882  0.00  0.00    +0.000 C 
ATOM     21  N   UNL     1       4.320   3.771  17.423  0.00  0.00    +0.000 NA
ATOM     22  C   UNL     1       3.473   4.948  17.112  0.00  0.00    +0.000 C 
ATOM     23  C   UNL     1       2.140   4.896  17.879  0.00  0.00    +0.000 C 
BRANCH  21  24
ATOM     24  C   UNL     1       5.607   3.873  16.693  0.00  0.00    +0.000 C 
BRANCH  24  25
ATOM     25  C   UNL     1       6.457   4.982  17.261  0.00  0.00    +0.000 A 
ATOM     26  C   UNL     1       7.279   4.733  18.373  0.00  0.00    +0.000 A 
ATOM     27  C   UNL     1       8.021   5.771  18.943  0.00  0.00    +0.000 A 
ATOM     28  C   UNL     1       7.948   7.061  18.411  0.00  0.00    +0.000 A 
ATOM     29  C   UNL     1       7.141   7.314  17.298  0.00  0.00    +0.000 A 
ATOM     30  C   UNL     1       6.398   6.279  16.722  0.00  0.00    +0.000 A 
ENDBRANCH  24  25
ENDBRANCH  21  24
ENDBRANCH  17  18
ENDBRANCH   3  17
TORSDOF 6
ENDMDL
MODEL 4
REMARK VINA RESULT:      -7.9      3.460      6.026
REMARK  Name = 
REMARK  8 active torsions:
REMARK  status: ('A' for Active; 'I' for Inactive)
REMARK    1  A    between atoms: C_1  and  C_2
REMARK    2  A    between atoms: C_2  and  C_3
REMARK    3  A    between atoms: C_2  and  N_4
REMARK    4  A    between atoms: C_6  and  C_7
REMARK    5  A    between atoms: N_9  and  C_10
REMARK    6  A    between atoms: C_10  and  C_11
REMARK    7  A    between atoms: N_14  and  C_15
REMARK    8  A    between atoms: C_15  and  C_16
REMARK                            x       y       z     vdW  Elec       q    Type
REMARK                         _______ _______ _______ _____ _____    ______ ____
ROOT
ATOM      1  C   UNL     1       3.760   3.247  17.460  0.00  0.00    +0.000 C 
ATOM      2  O   UNL     1       2.819   3.283  16.681  0.00  0.00    +0.000 OA
ATOM      3  N   UNL     1       3.657   2.537  18.621  0.00  0.00    +0.000 N 
ATOM      4  H   UNL     1       4.463   2.499  19.264  0.00  0.00    +0.000 HD
ENDROOT
BRANCH   1   7
ATOM      5  N   UNL     1       6.740   5.296  17.307  0.00  0.00    +0.000 N 
ATOM      6  N   UNL     1       5.732   4.737  17.985  0.00  0.00    +0.000 NA
ATOM      7  C   UNL     1       4.996   3.992  17.120  0.00  0.00    +0.000 A 
ATOM      8  C   UNL     1       5.573   4.089  15.865  0.00  0.00    +0.000 A 
ATOM      9  C   UNL     1       5.218   3.544  14.628  0.00  0.00    +0.000 A 
ATOM     10  C   UNL     1       6.004   3.884  13.516  0.00  0.00    +0.000 A 
ATOM     11  C   UNL     1       7.107   4.747  13.656  0.00  0.00    +0.000 A 
ATOM     12  C   UNL     1       7.448   5.275  14.917  0.00  0.00    +0.000 A 
ATOM     13  C   UNL     1       6.647   4.920  16.013  0.00  0.00    +0.000 A 
BRANCH   5  15
ATOM     14  C   UNL     1       7.462   7.638  17.640  0.00  0.00    +0.000 C 
ATOM     15  C   UNL     1       7.762   6.162  17.916  0.00  0.00    +0.000 C 
ATOM     16  C   UNL     1       7.844   5.902  19.423  0.00  0.00    +0.000 C 
ENDBRANCH   5  15
ENDBRANCH   1   7
BRANCH   3  17
ATOM     17  C   UNL     1       2.453   1.801  18.982  0.00  0.00    +0.000 C 
BRANCH  17  18
ATOM     18  C   UNL     1       1.732   2.406  20.220  0.00  0.00    +0.000 C 
ATOM     19  C   UNL     1       0.624   3.384  19.789  0.00  0.00    +0.000 C 
ATOM     20  C   UNL     1       1.221   4.652  19.169  0.00  0.00    +0.000 C 
ATOM     21  N   UNL     1       2.122   5.340  20.127  0.00  0.00    +0.000 NA
ATOM     22  C   UNL     1       3.210   4.447  20.595  0.00  0.00    +0.000 C 
ATOM     23  C   UNL     1       2.647   3.153  21.208  0.00  0.00    +0.000 C 
BRANCH  21  24
ATOM     24  C   UNL     1       2.704   6.559  19.514  0.00  0.00    +0.000 C 
BRANCH  24  25
ATOM     25  C   UNL     1       1.861   7.769  19.830  0.00  0.00    +0.000 A 
ATOM     26  C   UNL     1       1.727   8.796  18.881  0.00  0.00    +0.000 A 
ATOM     27  C   UNL     1       1.000   9.948  19.191  0.00  0.00    +0.000 A 
ATOM     28  C   UNL     1       0.402  10.084  20.446  0.00  0.00    +0.000 A 
ATOM     29  C   UNL     1       0.521   9.063  21.392  0.00  0.00    +0.000 A 
ATOM     30  C   UNL     1       1.246   7.907  21.087  0.00  0.00    +0.000 A 
ENDBRANCH  24  25
ENDBRANCH  21  24
ENDBRANCH  17  18
ENDBRANCH   3  17
TORSDOF 6
ENDMDL
MODEL 5
REMARK VINA RESULT:      -7.9      1.057      2.711
REMARK  Name = 
REMARK  8 active torsions:
REMARK  status: ('A' for Active; 'I' for Inactive)
REMARK    1  A    between atoms: C_1  and  C_2
REMARK    2  A    between atoms: C_2  and  C_3
REMARK    3  A    between atoms: C_2  and  N_4
REMARK    4  A    between atoms: C_6  and  C_7
REMARK    5  A    between atoms: N_9  and  C_10
REMARK    6  A    between atoms: C_10  and  C_11
REMARK    7  A    between atoms: N_14  and  C_15
REMARK    8  A    between atoms: C_15  and  C_16
REMARK                            x       y       z     vdW  Elec       q    Type
REMARK                         _______ _______ _______ _____ _____    ______ ____
ROOT
ATOM      1  C   UNL     1       2.285   7.358  19.337  0.00  0.00    +0.000 C 
ATOM      2  O   UNL     1       2.072   8.276  18.558  0.00  0.00    +0.000 OA
ATOM      3  N   UNL     1       2.024   7.518  20.666  0.00  0.00    +0.000 N 
ATOM      4  H   UNL     1       2.192   6.731  21.312  0.00  0.00    +0.000 HD
ENDROOT
BRANCH   1   7
ATOM      5  N   UNL     1       3.298   3.962  18.601  0.00  0.00    +0.000 N 
ATOM      6  N   UNL     1       2.585   4.850  19.302  0.00  0.00    +0.000 NA
ATOM      7  C   UNL     1       2.838   6.089  18.807  0.00  0.00    +0.000 A 
ATOM      8  C   UNL     1       3.734   5.961  17.759  0.00  0.00    +0.000 A 
ATOM      9  C   UNL     1       4.334   6.905  16.922  0.00  0.00    +0.000 A 
ATOM     10  C   UNL     1       5.254   6.441  15.969  0.00  0.00    +0.000 A 
ATOM     11  C   UNL     1       5.553   5.070  15.872  0.00  0.00    +0.000 A 
ATOM     12  C   UNL     1       4.927   4.137  16.722  0.00  0.00    +0.000 A 
ATOM     13  C   UNL     1       4.011   4.626  17.667  0.00  0.00    +0.000 A 
BRANCH   5  15
ATOM     14  C   UNL     1       4.301   2.108  19.895  0.00  0.00    +0.000 C 
ATOM     15  C   UNL     1       3.267   2.510  18.839  0.00  0.00    +0.000 C 
ATOM     16  C   UNL     1       1.863   2.074  19.266  0.00  0.00    +0.000 C 
ENDBRANCH   5  15
ENDBRANCH   1   7
BRANCH   3  17
ATOM     17  C   UNL     1       1.486   8.756  21.213  0.00  0.00    +0.000 C 
BRANCH  17  18
ATOM     18  C   UNL     1      -0.069   8.783  21.212  0.00  0.00    +0.000 C 
ATOM     19  C   UNL     1      -0.602   9.812  20.199  0.00  0.00    +0.000 C 
ATOM     20  C   UNL     1      -0.301  11.243  20.660  0.00  0.00    +0.000 C 
ATOM     21  N   UNL     1      -0.910  11.514  21.987  0.00  0.00    +0.000 NA
ATOM     22  C   UNL     1      -0.448  10.546  23.011  0.00  0.00    +0.000 C 
ATOM     23  C   UNL     1      -0.717   9.096  22.573  0.00  0.00    +0.000 C 
BRANCH  21  24
ATOM     24  C   UNL     1      -0.604  12.896  22.429  0.00  0.00    +0.000 C 
BRANCH  24  25
ATOM     25  C   UNL     1      -1.821  13.543  23.042  0.00  0.00    +0.000 A 
ATOM     26  C   UNL     1      -1.672  14.443  24.110  0.00  0.00    +0.000 A 
ATOM     27  C   UNL     1      -2.798  14.997  24.724  0.00  0.00    +0.000 A 
ATOM     28  C   UNL     1      -4.078  14.657  24.279  0.00  0.00    +0.000 A 
ATOM     29  C   UNL     1      -4.235  13.770  23.210  0.00  0.00    +0.000 A 
ATOM     30  C   UNL     1      -3.111  13.214  22.591  0.00  0.00    +0.000 A 
ENDBRANCH  24  25
ENDBRANCH  21  24
ENDBRANCH  17  18
ENDBRANCH   3  17
TORSDOF 6
ENDMDL
MODEL 6
REMARK VINA RESULT:      -7.8      2.200      9.389
REMARK  Name = 
REMARK  8 active torsions:
REMARK  status: ('A' for Active; 'I' for Inactive)
REMARK    1  A    between atoms: C_1  and  C_2
REMARK    2  A    between atoms: C_2  and  C_3
REMARK    3  A    between atoms: C_2  and  N_4
REMARK    4  A    between atoms: C_6  and  C_7
REMARK    5  A    between atoms: N_9  and  C_10
REMARK    6  A    between atoms: C_10  and  C_11
REMARK    7  A    between atoms: N_14  and  C_15
REMARK    8  A    between atoms: C_15  and  C_16
REMARK                            x       y       z     vdW  Elec       q    Type
REMARK                         _______ _______ _______ _____ _____    ______ ____
ROOT
ATOM      1  C   UNL     1       1.948   7.781  19.758  0.00  0.00    +0.000 C 
ATOM      2  O   UNL     1       2.828   7.795  18.910  0.00  0.00    +0.000 OA
ATOM      3  N   UNL     1       1.831   6.714  20.601  0.00  0.00    +0.000 N 
ATOM      4  H   UNL     1       1.095   6.720  21.324  0.00  0.00    +0.000 HD
ENDROOT
BRANCH   1   7
ATOM      5  N   UNL     1      -0.165  10.678  19.262  0.00  0.00    +0.000 N 
ATOM      6  N   UNL     1       0.638   9.716  18.796  0.00  0.00    +0.000 NA
ATOM      7  C   UNL     1       1.017   8.932  19.839  0.00  0.00    +0.000 A 
ATOM      8  C   UNL     1       0.422   9.424  20.988  0.00  0.00    +0.000 A 
ATOM      9  C   UNL     1       0.485   9.013  22.322  0.00  0.00    +0.000 A 
ATOM     10  C   UNL     1      -0.213   9.774  23.273  0.00  0.00    +0.000 A 
ATOM     11  C   UNL     1      -0.947  10.910  22.882  0.00  0.00    +0.000 A 
ATOM     12  C   UNL     1      -1.001  11.296  21.528  0.00  0.00    +0.000 A 
ATOM     13  C   UNL     1      -0.295  10.519  20.597  0.00  0.00    +0.000 A 
BRANCH   5  15
ATOM     14  C   UNL     1      -2.316  11.628  18.497  0.00  0.00    +0.000 C 
ATOM     15  C   UNL     1      -0.789  11.710  18.419  0.00  0.00    +0.000 C 
ATOM     16  C   UNL     1      -0.303  13.100  18.838  0.00  0.00    +0.000 C 
ENDBRANCH   5  15
ENDBRANCH   1   7
BRANCH   3  17
ATOM     17  C   UNL     1       2.728   5.568  20.539  0.00  0.00    +0.000 C 
BRANCH  17  18
ATOM     18  C   UNL     1       2.049   4.311  19.928  0.00  0.00    +0.000 C 
ATOM     19  C   UNL     1       2.990   3.094  19.982  0.00  0.00    +0.000 C 
ATOM     20  C   UNL     1       4.167   3.268  19.017  0.00  0.00    +0.000 C 
ATOM     21  N   UNL     1       3.692   3.446  17.622  0.00  0.00    +0.000 NA
ATOM     22  C   UNL     1       2.766   4.598  17.500  0.00  0.00    +0.000 C 
ATOM     23  C   UNL     1       1.578   4.466  18.470  0.00  0.00    +0.000 C 
BRANCH  21  24
ATOM     24  C   UNL     1       4.838   3.625  16.698  0.00  0.00    +0.000 C 
BRANCH  24  25
ATOM     25  C   UNL     1       5.703   4.779  17.138  0.00  0.00    +0.000 A 
ATOM     26  C   UNL     1       5.397   6.083  16.716  0.00  0.00    +0.000 A 
ATOM     27  C   UNL     1       6.231   7.149  17.068  0.00  0.00    +0.000 A 
ATOM     28  C   UNL     1       7.371   6.921  17.842  0.00  0.00    +0.000 A 
ATOM     29  C   UNL     1       7.677   5.628  18.275  0.00  0.00    +0.000 A 
ATOM     30  C   UNL     1       6.846   4.559  17.927  0.00  0.00    +0.000 A 
ENDBRANCH  24  25
ENDBRANCH  21  24
ENDBRANCH  17  18
ENDBRANCH   3  17
TORSDOF 6
ENDMDL
MODEL 7
REMARK VINA RESULT:      -7.7      1.488      2.975
REMARK  Name = 
REMARK  8 active torsions:
REMARK  status: ('A' for Active; 'I' for Inactive)
REMARK    1  A    between atoms: C_1  and  C_2
REMARK    2  A    between atoms: C_2  and  C_3
REMARK    3  A    between atoms: C_2  and  N_4
REMARK    4  A    between atoms: C_6  and  C_7
REMARK    5  A    between atoms: N_9  and  C_10
REMARK    6  A    between atoms: C_10  and  C_11
REMARK    7  A    between atoms: N_14  and  C_15
REMARK    8  A    between atoms: C_15  and  C_16
REMARK                            x       y       z     vdW  Elec       q    Type
REMARK                         _______ _______ _______ _____ _____    ______ ____
ROOT
ATOM      1  C   UNL     1       2.144   7.817  19.066  0.00  0.00    +0.000 C 
ATOM      2  O   UNL     1       2.116   8.113  20.252  0.00  0.00    +0.000 OA
ATOM      3  N   UNL     1       1.795   8.742  18.125  0.00  0.00    +0.000 N 
ATOM      4  H   UNL     1       1.839   8.487  17.126  0.00  0.00    +0.000 HD
ENDROOT
BRANCH   1   7
ATOM      5  N   UNL     1       2.715   4.264  18.676  0.00  0.00    +0.000 N 
ATOM      6  N   UNL     1       2.084   5.298  19.243  0.00  0.00    +0.000 NA
ATOM      7  C   UNL     1       2.550   6.444  18.683  0.00  0.00    +0.000 A 
ATOM      8  C   UNL     1       3.498   6.106  17.733  0.00  0.00    +0.000 A 
ATOM      9  C   UNL     1       4.291   6.885  16.886  0.00  0.00    +0.000 A 
ATOM     10  C   UNL     1       5.208   6.220  16.056  0.00  0.00    +0.000 A 
ATOM     11  C   UNL     1       5.315   4.817  16.088  0.00  0.00    +0.000 A 
ATOM     12  C   UNL     1       4.496   4.055  16.945  0.00  0.00    +0.000 A 
ATOM     13  C   UNL     1       3.587   4.743  17.764  0.00  0.00    +0.000 A 
BRANCH   5  15
ATOM     14  C   UNL     1       2.796   2.579  20.484  0.00  0.00    +0.000 C 
ATOM     15  C   UNL     1       2.458   2.856  19.016  0.00  0.00    +0.000 C 
ATOM     16  C   UNL     1       0.998   2.499  18.723  0.00  0.00    +0.000 C 
ENDBRANCH   5  15
ENDBRANCH   1   7
BRANCH   3  17
ATOM     17  C   UNL     1       1.388  10.096  18.474  0.00  0.00    +0.000 C 
BRANCH  17  18
ATOM     18  C   UNL     1      -0.156  10.244  18.588  0.00  0.00    +0.000 C 
ATOM     19  C   UNL     1      -0.584  11.712  18.410  0.00  0.00    +0.000 C 
ATOM     20  C   UNL     1      -0.136  12.563  19.603  0.00  0.00    +0.000 C 
ATOM     21  N   UNL     1      -0.709  12.046  20.871  0.00  0.00    +0.000 NA
ATOM     22  C   UNL     1      -0.344  10.626  21.100  0.00  0.00    +0.000 C 
ATOM     23  C   UNL     1      -0.763   9.743  19.911  0.00  0.00    +0.000 C 
BRANCH  21  24
ATOM     24  C   UNL     1      -0.260  12.869  22.021  0.00  0.00    +0.000 C 
BRANCH  24  25
ATOM     25  C   UNL     1      -1.413  13.166  22.947  0.00  0.00    +0.000 A 
ATOM     26  C   UNL     1      -2.538  12.326  22.955  0.00  0.00    +0.000 A 
ATOM     27  C   UNL     1      -3.636  12.631  23.765  0.00  0.00    +0.000 A 
ATOM     28  C   UNL     1      -3.619  13.773  24.569  0.00  0.00    +0.000 A 
ATOM     29  C   UNL     1      -2.499  14.608  24.574  0.00  0.00    +0.000 A 
ATOM     30  C   UNL     1      -1.397  14.307  23.768  0.00  0.00    +0.000 A 
ENDBRANCH  24  25
ENDBRANCH  21  24
ENDBRANCH  17  18
ENDBRANCH   3  17
TORSDOF 6
ENDMDL
MODEL 8
REMARK VINA RESULT:      -7.7      3.719      6.109
REMARK  Name = 
REMARK  8 active torsions:
REMARK  status: ('A' for Active; 'I' for Inactive)
REMARK    1  A    between atoms: C_1  and  C_2
REMARK    2  A    between atoms: C_2  and  C_3
REMARK    3  A    between atoms: C_2  and  N_4
REMARK    4  A    between atoms: C_6  and  C_7
REMARK    5  A    between atoms: N_9  and  C_10
REMARK    6  A    between atoms: C_10  and  C_11
REMARK    7  A    between atoms: N_14  and  C_15
REMARK    8  A    between atoms: C_15  and  C_16
REMARK                            x       y       z     vdW  Elec       q    Type
REMARK                         _______ _______ _______ _____ _____    ______ ____
ROOT
ATOM      1  C   UNL     1       4.831   3.298  18.685  0.00  0.00    +0.000 C 
ATOM      2  O   UNL     1       5.171   2.906  19.792  0.00  0.00    +0.000 OA
ATOM      3  N   UNL     1       3.656   2.867  18.141  0.00  0.00    +0.000 N 
ATOM      4  H   UNL     1       3.370   3.217  17.214  0.00  0.00    +0.000 HD
ENDROOT
BRANCH   1   7
ATOM      5  N   UNL     1       7.042   5.921  17.532  0.00  0.00    +0.000 N 
ATOM      6  N   UNL     1       6.384   5.282  18.505  0.00  0.00    +0.000 NA
ATOM      7  C   UNL     1       5.720   4.232  17.956  0.00  0.00    +0.000 A 
ATOM      8  C   UNL     1       5.982   4.219  16.596  0.00  0.00    +0.000 A 
ATOM      9  C   UNL     1       5.547   3.379  15.568  0.00  0.00    +0.000 A 
ATOM     10  C   UNL     1       5.967   3.673  14.262  0.00  0.00    +0.000 A 
ATOM     11  C   UNL     1       6.797   4.781  14.010  0.00  0.00    +0.000 A 
ATOM     12  C   UNL     1       7.230   5.608  15.066  0.00  0.00    +0.000 A 
ATOM     13  C   UNL     1       6.796   5.292  16.363  0.00  0.00    +0.000 A 
BRANCH   5  15
ATOM     14  C   UNL     1       7.106   8.393  17.490  0.00  0.00    +0.000 C 
ATOM     15  C   UNL     1       7.891   7.104  17.751  0.00  0.00    +0.000 C 
ATOM     16  C   UNL     1       8.453   7.095  19.175  0.00  0.00    +0.000 C 
ENDBRANCH   5  15
ENDBRANCH   1   7
BRANCH   3  17
ATOM     17  C   UNL     1       2.767   1.944  18.834  0.00  0.00    +0.000 C 
BRANCH  17  18
ATOM     18  C   UNL     1       1.387   2.580  19.163  0.00  0.00    +0.000 C 
ATOM     19  C   UNL     1       1.017   3.661  18.132  0.00  0.00    +0.000 C 
ATOM     20  C   UNL     1       1.927   4.887  18.272  0.00  0.00    +0.000 C 
ATOM     21  N   UNL     1       1.830   5.469  19.634  0.00  0.00    +0.000 NA
ATOM     22  C   UNL     1       2.162   4.473  20.682  0.00  0.00    +0.000 C 
ATOM     23  C   UNL     1       1.279   3.219  20.560  0.00  0.00    +0.000 C 
BRANCH  21  24
ATOM     24  C   UNL     1       2.722   6.647  19.763  0.00  0.00    +0.000 C 
BRANCH  24  25
ATOM     25  C   UNL     1       1.951   7.926  19.554  0.00  0.00    +0.000 A 
ATOM     26  C   UNL     1       1.194   8.467  20.606  0.00  0.00    +0.000 A 
ATOM     27  C   UNL     1       0.427   9.617  20.400  0.00  0.00    +0.000 A 
ATOM     28  C   UNL     1       0.410  10.234  19.147  0.00  0.00    +0.000 A 
ATOM     29  C   UNL     1       1.168   9.709  18.098  0.00  0.00    +0.000 A 
ATOM     30  C   UNL     1       1.939   8.560  18.298  0.00  0.00    +0.000 A 
ENDBRANCH  24  25
ENDBRANCH  21  24
ENDBRANCH  17  18
ENDBRANCH   3  17
TORSDOF 6
ENDMDL
MODEL 9
REMARK VINA RESULT:      -7.6      1.422      1.869
REMARK  Name = 
REMARK  8 active torsions:
REMARK  status: ('A' for Active; 'I' for Inactive)
REMARK    1  A    between atoms: C_1  and  C_2
REMARK    2  A    between atoms: C_2  and  C_3
REMARK    3  A    between atoms: C_2  and  N_4
REMARK    4  A    between atoms: C_6  and  C_7
REMARK    5  A    between atoms: N_9  and  C_10
REMARK    6  A    between atoms: C_10  and  C_11
REMARK    7  A    between atoms: N_14  and  C_15
REMARK    8  A    between atoms: C_15  and  C_16
REMARK                            x       y       z     vdW  Elec       q    Type
REMARK                         _______ _______ _______ _____ _____    ______ ____
ROOT
ATOM      1  C   UNL     1       2.491   7.699  18.609  0.00  0.00    +0.000 C 
ATOM      2  O   UNL     1       2.287   7.769  19.813  0.00  0.00    +0.000 OA
ATOM      3  N   UNL     1       2.072   8.704  17.787  0.00  0.00    +0.000 N 
ATOM      4  H   UNL     1       2.264   8.643  16.776  0.00  0.00    +0.000 HD
ENDROOT
BRANCH   1   7
ATOM      5  N   UNL     1       4.659   5.260  17.042  0.00  0.00    +0.000 N 
ATOM      6  N   UNL     1       4.376   6.512  17.417  0.00  0.00    +0.000 NA
ATOM      7  C   UNL     1       3.187   6.505  18.073  0.00  0.00    +0.000 A 
ATOM      8  C   UNL     1       2.721   5.202  18.110  0.00  0.00    +0.000 A 
ATOM      9  C   UNL     1       1.557   4.640  18.640  0.00  0.00    +0.000 A 
ATOM     10  C   UNL     1       1.359   3.261  18.464  0.00  0.00    +0.000 A 
ATOM     11  C   UNL     1       2.308   2.485  17.774  0.00  0.00    +0.000 A 
ATOM     12  C   UNL     1       3.479   3.075  17.257  0.00  0.00    +0.000 A 
ATOM     13  C   UNL     1       3.654   4.455  17.447  0.00  0.00    +0.000 A 
BRANCH   5  15
ATOM     14  C   UNL     1       5.646   4.884  14.806  0.00  0.00    +0.000 C 
ATOM     15  C   UNL     1       5.881   4.873  16.319  0.00  0.00    +0.000 C 
ATOM     16  C   UNL     1       7.034   5.809  16.692  0.00  0.00    +0.000 C 
ENDBRANCH   5  15
ENDBRANCH   1   7
BRANCH   3  17
ATOM     17  C   UNL     1       1.381   9.885  18.288  0.00  0.00    +0.000 C 
BRANCH  17  18
ATOM     18  C   UNL     1      -0.079   9.582  18.727  0.00  0.00    +0.000 C 
ATOM     19  C   UNL     1      -1.079  10.481  17.979  0.00  0.00    +0.000 C 
ATOM     20  C   UNL     1      -0.952  11.939  18.433  0.00  0.00    +0.000 C 
ATOM     21  N   UNL     1      -1.191  12.066  19.893  0.00  0.00    +0.000 NA
ATOM     22  C   UNL     1      -0.266  11.211  20.677  0.00  0.00    +0.000 C 
ATOM     23  C   UNL     1      -0.354   9.740  20.234  0.00  0.00    +0.000 C 
BRANCH  21  24
ATOM     24  C   UNL     1      -1.054  13.478  20.324  0.00  0.00    +0.000 C 
BRANCH  24  25
ATOM     25  C   UNL     1      -1.725  13.697  21.657  0.00  0.00    +0.000 A 
ATOM     26  C   UNL     1      -1.002  14.265  22.719  0.00  0.00    +0.000 A 
ATOM     27  C   UNL     1      -1.598  14.412  23.974  0.00  0.00    +0.000 A 
ATOM     28  C   UNL     1      -2.916  13.995  24.178  0.00  0.00    +0.000 A 
ATOM     29  C   UNL     1      -3.645  13.439  23.124  0.00  0.00    +0.000 A 
ATOM     30  C   UNL     1      -3.054  13.291  21.866  0.00  0.00    +0.000 A 
ENDBRANCH  24  25
ENDBRANCH  21  24
ENDBRANCH  17  18
ENDBRANCH   3  17
TORSDOF 6
ENDMDL
