MODEL 1
REMARK VINA RESULT:      -6.8      0.000      0.000
REMARK  Name = 
REMARK  13 active torsions:
REMARK  status: ('A' for Active; 'I' for Inactive)
REMARK    1  A    between atoms: C_1  and  C_2
REMARK    2  A    between atoms: C_2  and  C_3
REMARK    3  A    between atoms: C_3  and  C_4
REMARK    4  A    between atoms: C_4  and  C_5
REMARK    5  A    between atoms: C_5  and  C_6
REMARK    6  A    between atoms: C_6  and  C_7
REMARK    7  A    between atoms: C_7  and  N_8
REMARK    8  A    between atoms: C_11  and  O_12
REMARK    9  A    between atoms: C_11  and  C_13
REMARK   10  A    between atoms: C_13  and  C_14
REMARK   11  A    between atoms: C_13  and  C_15
REMARK   12  A    between atoms: N_17  and  C_18
REMARK   13  A    between atoms: N_17  and  C_19
REMARK                            x       y       z     vdW  Elec       q    Type
REMARK                         _______ _______ _______ _____ _____    ______ ____
ROOT
ATOM      1  N   UNL     1       6.576   3.940  13.894  0.00  0.00    +0.000 NA
ATOM      2  C   UNL     1       5.173   3.890  14.343  0.00  0.00    +0.000 C 
ATOM      3  C   UNL     1       5.079   3.788  15.872  0.00  0.00    +0.000 C 
ATOM      4  C   UNL     1       5.820   4.942  16.578  0.00  0.00    +0.000 C 
ATOM      5  C   UNL     1       7.231   5.058  15.986  0.00  0.00    +0.000 C 
ATOM      6  C   UNL     1       7.231   5.121  14.473  0.00  0.00    +0.000 C 
ENDROOT
BRANCH   4   7
ATOM      7  O   UNL     1       5.131   6.168  16.314  0.00  0.00    +0.000 OA
ATOM      8  H   UNL     1       5.420   6.805  17.003  0.00  0.00    +0.000 HD
ENDBRANCH   4   7
BRANCH   4   9
ATOM      9  C   UNL     1       5.967   4.712  18.107  0.00  0.00    +0.000 C 
ATOM     10  C   UNL     1       7.103   5.547  18.721  0.00  0.00    +0.000 C 
BRANCH   9  11
ATOM     11  C   UNL     1       4.702   5.041  18.901  0.00  0.00    +0.000 C 
ATOM     12  O   UNL     1       4.382   6.224  19.033  0.00  0.00    +0.000 OA
ATOM     13  N   UNL     1       4.030   3.983  19.556  0.00  0.00    +0.000 N 
ATOM     14  C   UNL     1       4.574   2.621  19.536  0.00  0.00    +0.000 C 
BRANCH  13  15
ATOM     15  C   UNL     1       3.115   4.347  20.682  0.00  0.00    +0.000 C 
ATOM     16  C   UNL     1       1.843   5.126  20.276  0.00  0.00    +0.000 C 
ATOM     17  C   UNL     1       0.827   4.254  19.549  0.00  0.00    +0.000 C 
ATOM     18  C   UNL     1       0.407   3.062  20.401  0.00  0.00    +0.000 C 
ATOM     19  C   UNL     1       1.605   2.269  20.903  0.00  0.00    +0.000 C 
ATOM     20  C   UNL     1       2.660   3.162  21.570  0.00  0.00    +0.000 C 
ENDBRANCH  13  15
ENDBRANCH   9  11
ENDBRANCH   4   9
BRANCH   1  21
ATOM     21  C   UNL     1       6.639   3.974  12.421  0.00  0.00    +0.000 C 
BRANCH  21  22
ATOM     22  C   UNL     1       6.585   2.568  11.816  0.00  0.00    +0.000 C 
BRANCH  22  23
ATOM     23  C   UNL     1       5.174   2.170  11.402  0.00  0.00    +0.000 C 
BRANCH  23  24
ATOM     24  C   UNL     1       4.319   3.426  11.235  0.00  0.00    +0.000 C 
BRANCH  24  25
ATOM     25  C   UNL     1       3.321   3.257  10.099  0.00  0.00    +0.000 C 
BRANCH  25  27
ATOM     26  C   UNL     1       2.662   5.044   8.472  0.00  0.00    +0.000 C 
ATOM     27  C   UNL     1       2.507   4.529   9.892  0.00  0.00    +0.000 C 
ENDBRANCH  25  27
ENDBRANCH  24  25
ENDBRANCH  23  24
ENDBRANCH  22  23
ENDBRANCH  21  22
ENDBRANCH   1  21
TORSDOF 10
ENDMDL
MODEL 2
REMARK VINA RESULT:      -6.7      2.905      4.260
REMARK  Name = 
REMARK  13 active torsions:
REMARK  status: ('A' for Active; 'I' for Inactive)
REMARK    1  A    between atoms: C_1  and  C_2
REMARK    2  A    between atoms: C_2  and  C_3
REMARK    3  A    between atoms: C_3  and  C_4
REMARK    4  A    between atoms: C_4  and  C_5
REMARK    5  A    between atoms: C_5  and  C_6
REMARK    6  A    between atoms: C_6  and  C_7
REMARK    7  A    between atoms: C_7  and  N_8
REMARK    8  A    between atoms: C_11  and  O_12
REMARK    9  A    between atoms: C_11  and  C_13
REMARK   10  A    between atoms: C_13  and  C_14
REMARK   11  A    between atoms: C_13  and  C_15
REMARK   12  A    between atoms: N_17  and  C_18
REMARK   13  A    between atoms: N_17  and  C_19
REMARK                            x       y       z     vdW  Elec       q    Type
REMARK                         _______ _______ _______ _____ _____    ______ ____
ROOT
ATOM      1  N   UNL     1       5.734   5.089  15.909  0.00  0.00    +0.000 NA
ATOM      2  C   UNL     1       5.734   6.413  16.558  0.00  0.00    +0.000 C 
ATOM      3  C   UNL     1       4.343   6.768  17.104  0.00  0.00    +0.000 C 
ATOM      4  C   UNL     1       3.814   5.699  18.081  0.00  0.00    +0.000 C 
ATOM      5  C   UNL     1       3.961   4.317  17.429  0.00  0.00    +0.000 C 
ATOM      6  C   UNL     1       5.354   4.066  16.892  0.00  0.00    +0.000 C 
ENDROOT
BRANCH   4   7
ATOM      7  O   UNL     1       4.616   5.713  19.266  0.00  0.00    +0.000 OA
ATOM      8  H   UNL     1       5.420   6.235  19.053  0.00  0.00    +0.000 HD
ENDBRANCH   4   7
BRANCH   4   9
ATOM      9  C   UNL     1       2.314   5.899  18.430  0.00  0.00    +0.000 C 
ATOM     10  C   UNL     1       1.486   4.617  18.231  0.00  0.00    +0.000 C 
BRANCH   9  11
ATOM     11  C   UNL     1       2.075   6.355  19.870  0.00  0.00    +0.000 C 
ATOM     12  O   UNL     1       1.973   5.497  20.749  0.00  0.00    +0.000 OA
ATOM     13  N   UNL     1       1.852   7.731  20.108  0.00  0.00    +0.000 N 
ATOM     14  C   UNL     1       1.776   8.682  18.993  0.00  0.00    +0.000 C 
BRANCH  13  15
ATOM     15  C   UNL     1       1.165   8.103  21.383  0.00  0.00    +0.000 C 
ATOM     16  C   UNL     1       1.657   9.412  22.042  0.00  0.00    +0.000 C 
ATOM     17  C   UNL     1       1.215  10.655  21.279  0.00  0.00    +0.000 C 
ATOM     18  C   UNL     1      -0.302  10.722  21.157  0.00  0.00    +0.000 C 
ATOM     19  C   UNL     1      -0.885   9.441  20.575  0.00  0.00    +0.000 C 
ATOM     20  C   UNL     1      -0.380   8.187  21.300  0.00  0.00    +0.000 C 
ENDBRANCH  13  15
ENDBRANCH   9  11
ENDBRANCH   4   9
BRANCH   1  21
ATOM     21  C   UNL     1       7.064   4.802  15.339  0.00  0.00    +0.000 C 
BRANCH  21  22
ATOM     22  C   UNL     1       6.990   4.517  13.836  0.00  0.00    +0.000 C 
BRANCH  22  23
ATOM     23  C   UNL     1       6.061   3.354  13.513  0.00  0.00    +0.000 C 
BRANCH  23  24
ATOM     24  C   UNL     1       5.688   3.395  12.033  0.00  0.00    +0.000 C 
BRANCH  24  25
ATOM     25  C   UNL     1       4.195   3.631  11.854  0.00  0.00    +0.000 C 
BRANCH  25  27
ATOM     26  C   UNL     1       2.940   4.163   9.752  0.00  0.00    +0.000 C 
ATOM     27  C   UNL     1       3.712   3.098  10.510  0.00  0.00    +0.000 C 
ENDBRANCH  25  27
ENDBRANCH  24  25
ENDBRANCH  23  24
ENDBRANCH  22  23
ENDBRANCH  21  22
ENDBRANCH   1  21
TORSDOF 10
ENDMDL
MODEL 3
REMARK VINA RESULT:      -6.5      4.082      7.100
REMARK  Name = 
REMARK  13 active torsions:
REMARK  status: ('A' for Active; 'I' for Inactive)
REMARK    1  A    between atoms: C_1  and  C_2
REMARK    2  A    between atoms: C_2  and  C_3
REMARK    3  A    between atoms: C_3  and  C_4
REMARK    4  A    between atoms: C_4  and  C_5
REMARK    5  A    between atoms: C_5  and  C_6
REMARK    6  A    between atoms: C_6  and  C_7
REMARK    7  A    between atoms: C_7  and  N_8
REMARK    8  A    between atoms: C_11  and  O_12
REMARK    9  A    between atoms: C_11  and  C_13
REMARK   10  A    between atoms: C_13  and  C_14
REMARK   11  A    between atoms: C_13  and  C_15
REMARK   12  A    between atoms: N_17  and  C_18
REMARK   13  A    between atoms: N_17  and  C_19
REMARK                            x       y       z     vdW  Elec       q    Type
REMARK                         _______ _______ _______ _____ _____    ______ ____
ROOT
ATOM      1  N   UNL     1       7.564   7.574  18.299  0.00  0.00    +0.000 NA
ATOM      2  C   UNL     1       7.608   6.201  18.832  0.00  0.00    +0.000 C 
ATOM      3  C   UNL     1       6.409   5.373  18.346  0.00  0.00    +0.000 C 
ATOM      4  C   UNL     1       6.312   5.341  16.808  0.00  0.00    +0.000 C 
ATOM      5  C   UNL     1       6.413   6.777  16.276  0.00  0.00    +0.000 C 
ATOM      6  C   UNL     1       7.606   7.528  16.831  0.00  0.00    +0.000 C 
ENDROOT
BRANCH   4   7
ATOM      7  O   UNL     1       7.421   4.601  16.286  0.00  0.00    +0.000 OA
ATOM      8  H   UNL     1       8.223   4.942  16.740  0.00  0.00    +0.000 HD
ENDBRANCH   4   7
BRANCH   4   9
ATOM      9  C   UNL     1       4.969   4.745  16.305  0.00  0.00    +0.000 C 
ATOM     10  C   UNL     1       5.079   4.155  14.889  0.00  0.00    +0.000 C 
BRANCH   9  11
ATOM     11  C   UNL     1       4.418   3.635  17.201  0.00  0.00    +0.000 C 
ATOM     12  O   UNL     1       4.912   2.509  17.114  0.00  0.00    +0.000 OA
ATOM     13  N   UNL     1       3.281   3.917  17.993  0.00  0.00    +0.000 N 
ATOM     14  C   UNL     1       2.605   5.216  17.899  0.00  0.00    +0.000 C 
BRANCH  13  15
ATOM     15  C   UNL     1       2.478   2.752  18.478  0.00  0.00    +0.000 C 
ATOM     16  C   UNL     1       3.087   1.980  19.672  0.00  0.00    +0.000 C 
ATOM     17  C   UNL     1       3.004   2.760  20.978  0.00  0.00    +0.000 C 
ATOM     18  C   UNL     1       1.563   3.115  21.323  0.00  0.00    +0.000 C 
ATOM     19  C   UNL     1       0.859   3.824  20.174  0.00  0.00    +0.000 C 
ATOM     20  C   UNL     1       1.007   3.072  18.845  0.00  0.00    +0.000 C 
ENDBRANCH  13  15
ENDBRANCH   9  11
ENDBRANCH   4   9
BRANCH   1  21
ATOM     21  C   UNL     1       8.690   8.364  18.831  0.00  0.00    +0.000 C 
BRANCH  21  22
ATOM     22  C   UNL     1       8.579   9.843  18.450  0.00  0.00    +0.000 C 
BRANCH  22  23
ATOM     23  C   UNL     1       9.749  10.665  18.974  0.00  0.00    +0.000 C 
BRANCH  23  24
ATOM     24  C   UNL     1      10.348  11.483  17.831  0.00  0.00    +0.000 C 
BRANCH  24  25
ATOM     25  C   UNL     1       9.935  12.944  17.934  0.00  0.00    +0.000 C 
BRANCH  25  27
ATOM     26  C   UNL     1      12.282  13.186  17.088  0.00  0.00    +0.000 C 
ATOM     27  C   UNL     1      10.918  13.845  17.192  0.00  0.00    +0.000 C 
ENDBRANCH  25  27
ENDBRANCH  24  25
ENDBRANCH  23  24
ENDBRANCH  22  23
ENDBRANCH  21  22
ENDBRANCH   1  21
TORSDOF 10
ENDMDL
MODEL 4
REMARK VINA RESULT:      -6.2      6.875      9.659
REMARK  Name = 
REMARK  13 active torsions:
REMARK  status: ('A' for Active; 'I' for Inactive)
REMARK    1  A    between atoms: C_1  and  C_2
REMARK    2  A    between atoms: C_2  and  C_3
REMARK    3  A    between atoms: C_3  and  C_4
REMARK    4  A    between atoms: C_4  and  C_5
REMARK    5  A    between atoms: C_5  and  C_6
REMARK    6  A    between atoms: C_6  and  C_7
REMARK    7  A    between atoms: C_7  and  N_8
REMARK    8  A    between atoms: C_11  and  O_12
REMARK    9  A    between atoms: C_11  and  C_13
REMARK   10  A    between atoms: C_13  and  C_14
REMARK   11  A    between atoms: C_13  and  C_15
REMARK   12  A    between atoms: N_17  and  C_18
REMARK   13  A    between atoms: N_17  and  C_19
REMARK                            x       y       z     vdW  Elec       q    Type
REMARK                         _______ _______ _______ _____ _____    ______ ____
ROOT
ATOM      1  N   UNL     1       2.293   8.168  18.793  0.00  0.00    +0.000 NA
ATOM      2  C   UNL     1       1.463   7.839  19.966  0.00  0.00    +0.000 C 
ATOM      3  C   UNL     1       1.170   9.086  20.811  0.00  0.00    +0.000 C 
ATOM      4  C   UNL     1       0.501  10.203  19.985  0.00  0.00    +0.000 C 
ATOM      5  C   UNL     1       1.313  10.422  18.701  0.00  0.00    +0.000 C 
ATOM      6  C   UNL     1       1.581   9.135  17.948  0.00  0.00    +0.000 C 
ENDROOT
BRANCH   4   7
ATOM      7  O   UNL     1      -0.813   9.780  19.607  0.00  0.00    +0.000 OA
ATOM      8  H   UNL     1      -0.969  10.127  18.701  0.00  0.00    +0.000 HD
ENDBRANCH   4   7
BRANCH   4   9
ATOM      9  C   UNL     1       0.445  11.557  20.744  0.00  0.00    +0.000 C 
ATOM     10  C   UNL     1       1.487  12.565  20.229  0.00  0.00    +0.000 C 
BRANCH   9  11
ATOM     11  C   UNL     1      -0.915  12.251  20.660  0.00  0.00    +0.000 C 
ATOM     12  O   UNL     1      -1.153  12.962  19.682  0.00  0.00    +0.000 OA
ATOM     13  N   UNL     1      -1.786  12.151  21.770  0.00  0.00    +0.000 N 
ATOM     14  C   UNL     1      -1.365  11.464  22.995  0.00  0.00    +0.000 C 
BRANCH  13  15
ATOM     15  C   UNL     1      -2.864  13.182  21.889  0.00  0.00    +0.000 C 
ATOM     16  C   UNL     1      -4.121  12.737  22.672  0.00  0.00    +0.000 C 
ATOM     17  C   UNL     1      -3.870  12.625  24.170  0.00  0.00    +0.000 C 
ATOM     18  C   UNL     1      -3.386  13.947  24.753  0.00  0.00    +0.000 C 
ATOM     19  C   UNL     1      -2.183  14.497  23.999  0.00  0.00    +0.000 C 
ATOM     20  C   UNL     1      -2.413  14.540  22.483  0.00  0.00    +0.000 C 
ENDBRANCH  13  15
ENDBRANCH   9  11
ENDBRANCH   4   9
BRANCH   1  21
ATOM     21  C   UNL     1       2.611   6.943  18.035  0.00  0.00    +0.000 C 
BRANCH  21  22
ATOM     22  C   UNL     1       3.677   6.098  18.739  0.00  0.00    +0.000 C 
BRANCH  22  23
ATOM     23  C   UNL     1       3.363   4.609  18.686  0.00  0.00    +0.000 C 
BRANCH  23  24
ATOM     24  C   UNL     1       1.975   4.403  18.081  0.00  0.00    +0.000 C 
BRANCH  24  25
ATOM     25  C   UNL     1       1.152   3.439  18.924  0.00  0.00    +0.000 C 
BRANCH  25  27
ATOM     26  C   UNL     1       1.347   2.821  21.344  0.00  0.00    +0.000 C 
ATOM     27  C   UNL     1       1.030   3.934  20.361  0.00  0.00    +0.000 C 
ENDBRANCH  25  27
ENDBRANCH  24  25
ENDBRANCH  23  24
ENDBRANCH  22  23
ENDBRANCH  21  22
ENDBRANCH   1  21
TORSDOF 10
ENDMDL
MODEL 5
REMARK VINA RESULT:      -6.1      6.811      9.633
REMARK  Name = 
REMARK  13 active torsions:
REMARK  status: ('A' for Active; 'I' for Inactive)
REMARK    1  A    between atoms: C_1  and  C_2
REMARK    2  A    between atoms: C_2  and  C_3
REMARK    3  A    between atoms: C_3  and  C_4
REMARK    4  A    between atoms: C_4  and  C_5
REMARK    5  A    between atoms: C_5  and  C_6
REMARK    6  A    between atoms: C_6  and  C_7
REMARK    7  A    between atoms: C_7  and  N_8
REMARK    8  A    between atoms: C_11  and  O_12
REMARK    9  A    between atoms: C_11  and  C_13
REMARK   10  A    between atoms: C_13  and  C_14
REMARK   11  A    between atoms: C_13  and  C_15
REMARK   12  A    between atoms: N_17  and  C_18
REMARK   13  A    between atoms: N_17  and  C_19
REMARK                            x       y       z     vdW  Elec       q    Type
REMARK                         _______ _______ _______ _____ _____    ______ ____
ROOT
ATOM      1  N   UNL     1       2.239   7.647  19.605  0.00  0.00    +0.000 NA
ATOM      2  C   UNL     1       1.245   7.917  20.659  0.00  0.00    +0.000 C 
ATOM      3  C   UNL     1       1.072   9.426  20.890  0.00  0.00    +0.000 C 
ATOM      4  C   UNL     1       0.688  10.170  19.595  0.00  0.00    +0.000 C 
ATOM      5  C   UNL     1       1.658   9.756  18.481  0.00  0.00    +0.000 C 
ATOM      6  C   UNL     1       1.790   8.253  18.345  0.00  0.00    +0.000 C 
ENDROOT
BRANCH   4   7
ATOM      7  O   UNL     1      -0.630   9.772  19.202  0.00  0.00    +0.000 OA
ATOM      8  H   UNL     1      -0.706   8.815  19.411  0.00  0.00    +0.000 HD
ENDBRANCH   4   7
BRANCH   4   9
ATOM      9  C   UNL     1       0.773  11.714  19.745  0.00  0.00    +0.000 C 
ATOM     10  C   UNL     1       1.664  12.362  18.671  0.00  0.00    +0.000 C 
BRANCH   9  11
ATOM     11  C   UNL     1      -0.584  12.413  19.670  0.00  0.00    +0.000 C 
ATOM     12  O   UNL     1      -1.033  12.708  18.560  0.00  0.00    +0.000 OA
ATOM     13  N   UNL     1      -1.202  12.807  20.879  0.00  0.00    +0.000 N 
ATOM     14  C   UNL     1      -0.523  12.616  22.165  0.00  0.00    +0.000 C 
BRANCH  13  15
ATOM     15  C   UNL     1      -2.246  13.875  20.799  0.00  0.00    +0.000 C 
ATOM     16  C   UNL     1      -3.697  13.370  20.626  0.00  0.00    +0.000 C 
ATOM     17  C   UNL     1      -4.251  12.731  21.893  0.00  0.00    +0.000 C 
ATOM     18  C   UNL     1      -4.219  13.702  23.066  0.00  0.00    +0.000 C 
ATOM     19  C   UNL     1      -2.835  14.303  23.272  0.00  0.00    +0.000 C 
ATOM     20  C   UNL     1      -2.250  14.882  21.977  0.00  0.00    +0.000 C 
ENDBRANCH  13  15
ENDBRANCH   9  11
ENDBRANCH   4   9
BRANCH   1  21
ATOM     21  C   UNL     1       2.432   6.192  19.449  0.00  0.00    +0.000 C 
BRANCH  21  22
ATOM     22  C   UNL     1       1.951   5.418  20.680  0.00  0.00    +0.000 C 
BRANCH  22  23
ATOM     23  C   UNL     1       0.945   4.333  20.324  0.00  0.00    +0.000 C 
BRANCH  23  24
ATOM     24  C   UNL     1       1.558   2.960  20.593  0.00  0.00    +0.000 C 
BRANCH  24  25
ATOM     25  C   UNL     1       1.643   2.141  19.314  0.00  0.00    +0.000 C 
BRANCH  25  27
ATOM     26  C   UNL     1       2.684   3.148  17.269  0.00  0.00    +0.000 C 
ATOM     27  C   UNL     1       2.947   2.415  18.573  0.00  0.00    +0.000 C 
ENDBRANCH  25  27
ENDBRANCH  24  25
ENDBRANCH  23  24
ENDBRANCH  22  23
ENDBRANCH  21  22
ENDBRANCH   1  21
TORSDOF 10
ENDMDL
MODEL 6
REMARK VINA RESULT:      -6.1      3.474      4.982
REMARK  Name = 
REMARK  13 active torsions:
REMARK  status: ('A' for Active; 'I' for Inactive)
REMARK    1  A    between atoms: C_1  and  C_2
REMARK    2  A    between atoms: C_2  and  C_3
REMARK    3  A    between atoms: C_3  and  C_4
REMARK    4  A    between atoms: C_4  and  C_5
REMARK    5  A    between atoms: C_5  and  C_6
REMARK    6  A    between atoms: C_6  and  C_7
REMARK    7  A    between atoms: C_7  and  N_8
REMARK    8  A    between atoms: C_11  and  O_12
REMARK    9  A    between atoms: C_11  and  C_13
REMARK   10  A    between atoms: C_13  and  C_14
REMARK   11  A    between atoms: C_13  and  C_15
REMARK   12  A    between atoms: N_17  and  C_18
REMARK   13  A    between atoms: N_17  and  C_19
REMARK                            x       y       z     vdW  Elec       q    Type
REMARK                         _______ _______ _______ _____ _____    ______ ____
ROOT
ATOM      1  N   UNL     1       5.433   4.751  16.528  0.00  0.00    +0.000 NA
ATOM      2  C   UNL     1       5.563   6.132  17.027  0.00  0.00    +0.000 C 
ATOM      3  C   UNL     1       4.208   6.691  17.486  0.00  0.00    +0.000 C 
ATOM      4  C   UNL     1       3.546   5.801  18.557  0.00  0.00    +0.000 C 
ATOM      5  C   UNL     1       3.556   4.347  18.066  0.00  0.00    +0.000 C 
ATOM      6  C   UNL     1       4.924   3.891  17.604  0.00  0.00    +0.000 C 
ENDROOT
BRANCH   4   7
ATOM      7  O   UNL     1       4.322   5.863  19.759  0.00  0.00    +0.000 OA
ATOM      8  H   UNL     1       3.733   5.564  20.487  0.00  0.00    +0.000 HD
ENDBRANCH   4   7
BRANCH   4   9
ATOM      9  C   UNL     1       2.070   6.196  18.834  0.00  0.00    +0.000 C 
ATOM     10  C   UNL     1       1.245   5.029  19.402  0.00  0.00    +0.000 C 
BRANCH   9  11
ATOM     11  C   UNL     1       1.921   7.358  19.817  0.00  0.00    +0.000 C 
ATOM     12  O   UNL     1       1.904   7.108  21.024  0.00  0.00    +0.000 OA
ATOM     13  N   UNL     1       1.677   8.649  19.295  0.00  0.00    +0.000 N 
ATOM     14  C   UNL     1       1.497   8.853  17.853  0.00  0.00    +0.000 C 
BRANCH  13  15
ATOM     15  C   UNL     1       1.071   9.658  20.218  0.00  0.00    +0.000 C 
ATOM     16  C   UNL     1       1.503  11.122  19.972  0.00  0.00    +0.000 C 
ATOM     17  C   UNL     1       0.892  11.709  18.706  0.00  0.00    +0.000 C 
ATOM     18  C   UNL     1      -0.630  11.660  18.748  0.00  0.00    +0.000 C 
ATOM     19  C   UNL     1      -1.147  10.261  19.051  0.00  0.00    +0.000 C 
ATOM     20  C   UNL     1      -0.477   9.644  20.286  0.00  0.00    +0.000 C 
ENDBRANCH  13  15
ENDBRANCH   9  11
ENDBRANCH   4   9
BRANCH   1  21
ATOM     21  C   UNL     1       6.735   4.263  16.036  0.00  0.00    +0.000 C 
BRANCH  21  22
ATOM     22  C   UNL     1       7.118   4.909  14.701  0.00  0.00    +0.000 C 
BRANCH  22  23
ATOM     23  C   UNL     1       6.061   4.687  13.627  0.00  0.00    +0.000 C 
BRANCH  23  24
ATOM     24  C   UNL     1       6.150   3.250  13.114  0.00  0.00    +0.000 C 
BRANCH  24  25
ATOM     25  C   UNL     1       5.577   3.138  11.709  0.00  0.00    +0.000 C 
BRANCH  25  27
ATOM     26  C   UNL     1       3.543   3.663  10.343  0.00  0.00    +0.000 C 
ATOM     27  C   UNL     1       4.060   3.291  11.722  0.00  0.00    +0.000 C 
ENDBRANCH  25  27
ENDBRANCH  24  25
ENDBRANCH  23  24
ENDBRANCH  22  23
ENDBRANCH  21  22
ENDBRANCH   1  21
TORSDOF 10
ENDMDL
MODEL 7
REMARK VINA RESULT:      -6.1      4.028      7.166
REMARK  Name = 
REMARK  13 active torsions:
REMARK  status: ('A' for Active; 'I' for Inactive)
REMARK    1  A    between atoms: C_1  and  C_2
REMARK    2  A    between atoms: C_2  and  C_3
REMARK    3  A    between atoms: C_3  and  C_4
REMARK    4  A    between atoms: C_4  and  C_5
REMARK    5  A    between atoms: C_5  and  C_6
REMARK    6  A    between atoms: C_6  and  C_7
REMARK    7  A    between atoms: C_7  and  N_8
REMARK    8  A    between atoms: C_11  and  O_12
REMARK    9  A    between atoms: C_11  and  C_13
REMARK   10  A    between atoms: C_13  and  C_14
REMARK   11  A    between atoms: C_13  and  C_15
REMARK   12  A    between atoms: N_17  and  C_18
REMARK   13  A    between atoms: N_17  and  C_19
REMARK                            x       y       z     vdW  Elec       q    Type
REMARK                         _______ _______ _______ _____ _____    ______ ____
ROOT
ATOM      1  N   UNL     1       7.645   7.624  18.422  0.00  0.00    +0.000 NA
ATOM      2  C   UNL     1       7.697   6.225  18.881  0.00  0.00    +0.000 C 
ATOM      3  C   UNL     1       6.480   5.429  18.389  0.00  0.00    +0.000 C 
ATOM      4  C   UNL     1       6.337   5.478  16.854  0.00  0.00    +0.000 C 
ATOM      5  C   UNL     1       6.430   6.939  16.395  0.00  0.00    +0.000 C 
ATOM      6  C   UNL     1       7.643   7.655  16.953  0.00  0.00    +0.000 C 
ENDROOT
BRANCH   4   7
ATOM      7  O   UNL     1       7.425   4.761  16.262  0.00  0.00    +0.000 OA
ATOM      8  H   UNL     1       7.959   5.422  15.768  0.00  0.00    +0.000 HD
ENDBRANCH   4   7
BRANCH   4   9
ATOM      9  C   UNL     1       4.976   4.914  16.362  0.00  0.00    +0.000 C 
ATOM     10  C   UNL     1       5.039   4.405  14.912  0.00  0.00    +0.000 C 
BRANCH   9  11
ATOM     11  C   UNL     1       4.448   3.757  17.211  0.00  0.00    +0.000 C 
ATOM     12  O   UNL     1       4.971   2.648  17.083  0.00  0.00    +0.000 OA
ATOM     13  N   UNL     1       3.301   3.980  18.007  0.00  0.00    +0.000 N 
ATOM     14  C   UNL     1       2.593   5.264  17.960  0.00  0.00    +0.000 C 
BRANCH  13  15
ATOM     15  C   UNL     1       2.525   2.778  18.443  0.00  0.00    +0.000 C 
ATOM     16  C   UNL     1       3.119   2.007  19.645  0.00  0.00    +0.000 C 
ATOM     17  C   UNL     1       2.959   2.759  20.960  0.00  0.00    +0.000 C 
ATOM     18  C   UNL     1       1.495   3.054  21.258  0.00  0.00    +0.000 C 
ATOM     19  C   UNL     1       0.807   3.758  20.096  0.00  0.00    +0.000 C 
ATOM     20  C   UNL     1       1.031   3.037  18.760  0.00  0.00    +0.000 C 
ENDBRANCH  13  15
ENDBRANCH   9  11
ENDBRANCH   4   9
BRANCH   1  21
ATOM     21  C   UNL     1       8.792   8.380  18.960  0.00  0.00    +0.000 C 
BRANCH  21  22
ATOM     22  C   UNL     1       8.788   9.836  18.485  0.00  0.00    +0.000 C 
BRANCH  22  23
ATOM     23  C   UNL     1       9.839  10.679  19.194  0.00  0.00    +0.000 C 
BRANCH  23  24
ATOM     24  C   UNL     1       9.290  12.085  19.431  0.00  0.00    +0.000 C 
BRANCH  24  25
ATOM     25  C   UNL     1      10.036  13.110  18.589  0.00  0.00    +0.000 C 
BRANCH  25  27
ATOM     26  C   UNL     1       7.885  14.374  18.825  0.00  0.00    +0.000 C 
ATOM     27  C   UNL     1       9.067  14.078  17.919  0.00  0.00    +0.000 C 
ENDBRANCH  25  27
ENDBRANCH  24  25
ENDBRANCH  23  24
ENDBRANCH  22  23
ENDBRANCH  21  22
ENDBRANCH   1  21
TORSDOF 10
ENDMDL
MODEL 8
REMARK VINA RESULT:      -6.0      4.020      7.980
REMARK  Name = 
REMARK  13 active torsions:
REMARK  status: ('A' for Active; 'I' for Inactive)
REMARK    1  A    between atoms: C_1  and  C_2
REMARK    2  A    between atoms: C_2  and  C_3
REMARK    3  A    between atoms: C_3  and  C_4
REMARK    4  A    between atoms: C_4  and  C_5
REMARK    5  A    between atoms: C_5  and  C_6
REMARK    6  A    between atoms: C_6  and  C_7
REMARK    7  A    between atoms: C_7  and  N_8
REMARK    8  A    between atoms: C_11  and  O_12
REMARK    9  A    between atoms: C_11  and  C_13
REMARK   10  A    between atoms: C_13  and  C_14
REMARK   11  A    between atoms: C_13  and  C_15
REMARK   12  A    between atoms: N_17  and  C_18
REMARK   13  A    between atoms: N_17  and  C_19
REMARK                            x       y       z     vdW  Elec       q    Type
REMARK                         _______ _______ _______ _____ _____    ______ ____
ROOT
ATOM      1  N   UNL     1       1.927   6.947  20.379  0.00  0.00    +0.000 NA
ATOM      2  C   UNL     1       1.744   7.011  18.918  0.00  0.00    +0.000 C 
ATOM      3  C   UNL     1       2.587   5.946  18.201  0.00  0.00    +0.000 C 
ATOM      4  C   UNL     1       2.281   4.523  18.712  0.00  0.00    +0.000 C 
ATOM      5  C   UNL     1       2.340   4.525  20.245  0.00  0.00    +0.000 C 
ATOM      6  C   UNL     1       1.505   5.626  20.865  0.00  0.00    +0.000 C 
ENDROOT
BRANCH   4   7
ATOM      7  O   UNL     1       0.950   4.166  18.325  0.00  0.00    +0.000 OA
ATOM      8  H   UNL     1       0.574   3.644  19.067  0.00  0.00    +0.000 HD
ENDBRANCH   4   7
BRANCH   4   9
ATOM      9  C   UNL     1       3.303   3.472  18.201  0.00  0.00    +0.000 C 
ATOM     10  C   UNL     1       2.659   2.424  17.277  0.00  0.00    +0.000 C 
BRANCH   9  11
ATOM     11  C   UNL     1       4.473   4.080  17.426  0.00  0.00    +0.000 C 
ATOM     12  O   UNL     1       4.518   3.916  16.205  0.00  0.00    +0.000 OA
ATOM     13  N   UNL     1       5.516   4.691  18.159  0.00  0.00    +0.000 N 
ATOM     14  C   UNL     1       5.512   4.673  19.626  0.00  0.00    +0.000 C 
BRANCH  13  15
ATOM     15  C   UNL     1       6.836   4.847  17.472  0.00  0.00    +0.000 C 
ATOM     16  C   UNL     1       6.923   6.018  16.466  0.00  0.00    +0.000 C 
ATOM     17  C   UNL     1       6.962   7.379  17.152  0.00  0.00    +0.000 C 
ATOM     18  C   UNL     1       8.140   7.484  18.112  0.00  0.00    +0.000 C 
ATOM     19  C   UNL     1       8.172   6.329  19.104  0.00  0.00    +0.000 C 
ATOM     20  C   UNL     1       8.060   4.963  18.415  0.00  0.00    +0.000 C 
ENDBRANCH  13  15
ENDBRANCH   9  11
ENDBRANCH   4   9
BRANCH   1  21
ATOM     21  C   UNL     1       1.156   8.019  21.037  0.00  0.00    +0.000 C 
BRANCH  21  22
ATOM     22  C   UNL     1       0.954   9.224  20.113  0.00  0.00    +0.000 C 
BRANCH  22  23
ATOM     23  C   UNL     1       0.189  10.351  20.792  0.00  0.00    +0.000 C 
BRANCH  23  24
ATOM     24  C   UNL     1      -0.818  10.948  19.811  0.00  0.00    +0.000 C 
BRANCH  24  25
ATOM     25  C   UNL     1      -0.762  10.231  18.470  0.00  0.00    +0.000 C 
BRANCH  25  27
ATOM     26  C   UNL     1      -3.042   9.700  17.579  0.00  0.00    +0.000 C 
ATOM     27  C   UNL     1      -1.891  10.690  17.554  0.00  0.00    +0.000 C 
ENDBRANCH  25  27
ENDBRANCH  24  25
ENDBRANCH  23  24
ENDBRANCH  22  23
ENDBRANCH  21  22
ENDBRANCH   1  21
TORSDOF 10
ENDMDL
MODEL 9
REMARK VINA RESULT:      -6.0      1.270      1.732
REMARK  Name = 
REMARK  13 active torsions:
REMARK  status: ('A' for Active; 'I' for Inactive)
REMARK    1  A    between atoms: C_1  and  C_2
REMARK    2  A    between atoms: C_2  and  C_3
REMARK    3  A    between atoms: C_3  and  C_4
REMARK    4  A    between atoms: C_4  and  C_5
REMARK    5  A    between atoms: C_5  and  C_6
REMARK    6  A    between atoms: C_6  and  C_7
REMARK    7  A    between atoms: C_7  and  N_8
REMARK    8  A    between atoms: C_11  and  O_12
REMARK    9  A    between atoms: C_11  and  C_13
REMARK   10  A    between atoms: C_13  and  C_14
REMARK   11  A    between atoms: C_13  and  C_15
REMARK   12  A    between atoms: N_17  and  C_18
REMARK   13  A    between atoms: N_17  and  C_19
REMARK                            x       y       z     vdW  Elec       q    Type
REMARK                         _______ _______ _______ _____ _____    ______ ____
ROOT
ATOM      1  N   UNL     1       6.439   3.934  14.571  0.00  0.00    +0.000 NA
ATOM      2  C   UNL     1       5.026   4.354  14.595  0.00  0.00    +0.000 C 
ATOM      3  C   UNL     1       4.565   4.686  16.021  0.00  0.00    +0.000 C 
ATOM      4  C   UNL     1       5.450   5.764  16.680  0.00  0.00    +0.000 C 
ATOM      5  C   UNL     1       6.922   5.366  16.512  0.00  0.00    +0.000 C 
ATOM      6  C   UNL     1       7.280   5.025  15.080  0.00  0.00    +0.000 C 
ENDROOT
BRANCH   4   7
ATOM      7  O   UNL     1       5.251   7.009  16.001  0.00  0.00    +0.000 OA
ATOM      8  H   UNL     1       5.725   7.691  16.524  0.00  0.00    +0.000 HD
ENDBRANCH   4   7
BRANCH   4   9
ATOM      9  C   UNL     1       5.173   5.918  18.200  0.00  0.00    +0.000 C 
ATOM     10  C   UNL     1       3.895   6.725  18.488  0.00  0.00    +0.000 C 
BRANCH   9  11
ATOM     11  C   UNL     1       5.023   4.585  18.934  0.00  0.00    +0.000 C 
ATOM     12  O   UNL     1       5.888   3.722  18.768  0.00  0.00    +0.000 OA
ATOM     13  N   UNL     1       3.835   4.353  19.665  0.00  0.00    +0.000 N 
ATOM     14  C   UNL     1       2.745   5.335  19.656  0.00  0.00    +0.000 C 
BRANCH  13  15
ATOM     15  C   UNL     1       3.483   2.931  19.968  0.00  0.00    +0.000 C 
ATOM     16  C   UNL     1       2.191   2.731  20.793  0.00  0.00    +0.000 C 
ATOM     17  C   UNL     1       0.930   3.017  19.987  0.00  0.00    +0.000 C 
ATOM     18  C   UNL     1       0.849   2.133  18.748  0.00  0.00    +0.000 C 
ATOM     19  C   UNL     1       2.113   2.216  17.904  0.00  0.00    +0.000 C 
ATOM     20  C   UNL     1       3.386   1.999  18.734  0.00  0.00    +0.000 C 
ENDBRANCH  13  15
ENDBRANCH   9  11
ENDBRANCH   4   9
BRANCH   1  21
ATOM     21  C   UNL     1       6.836   3.560  13.200  0.00  0.00    +0.000 C 
BRANCH  21  22
ATOM     22  C   UNL     1       5.735   3.874  12.183  0.00  0.00    +0.000 C 
BRANCH  22  23
ATOM     23  C   UNL     1       5.226   2.623  11.479  0.00  0.00    +0.000 C 
BRANCH  23  24
ATOM     24  C   UNL     1       3.734   2.774  11.187  0.00  0.00    +0.000 C 
BRANCH  24  25
ATOM     25  C   UNL     1       3.446   4.099  10.495  0.00  0.00    +0.000 C 
BRANCH  25  27
ATOM     26  C   UNL     1       2.114   5.191   8.676  0.00  0.00    +0.000 C 
ATOM     27  C   UNL     1       2.686   3.882   9.191  0.00  0.00    +0.000 C 
ENDBRANCH  25  27
ENDBRANCH  24  25
ENDBRANCH  23  24
ENDBRANCH  22  23
ENDBRANCH  21  22
ENDBRANCH   1  21
TORSDOF 10
ENDMDL
