MODEL 1
REMARK VINA RESULT:      -8.5      0.000      0.000
REMARK  Name = 
REMARK  7 active torsions:
REMARK  status: ('A' for Active; 'I' for Inactive)
REMARK    1  A    between atoms: C_1  and  C_2
REMARK    2  A    between atoms: C_4  and  C_5
REMARK    3  A    between atoms: C_7  and  C_8
REMARK    4  A    between atoms: C_8  and  N_9
REMARK    5  A    between atoms: C_11  and  C_12
REMARK    6  A    between atoms: C_12  and  C_13
REMARK    7  A    between atoms: C_13  and  C_14
REMARK                            x       y       z     vdW  Elec       q    Type
REMARK                         _______ _______ _______ _____ _____    ______ ____
ROOT
ATOM      1  N   UNL     1       6.976   5.610  17.511  0.00  0.00    +0.000 N 
ATOM      2  C   UNL     1       7.557   6.181  18.605  0.00  0.00    +0.000 A 
ATOM      3  C   UNL     1       7.994   7.410  18.153  0.00  0.00    +0.000 A 
ATOM      4  N   UNL     1       7.696   7.524  16.821  0.00  0.00    +0.000 NA
ATOM      5  N   UNL     1       7.065   6.420  16.439  0.00  0.00    +0.000 NA
ENDROOT
BRANCH   1   6
ATOM      6  C   UNL     1       6.147   4.421  17.483  0.00  0.00    +0.000 C 
BRANCH   6  13
ATOM      7  C   UNL     1       2.383   7.730  18.015  0.00  0.00    +0.000 C 
ATOM      8  C   UNL     1       2.856   6.306  17.960  0.00  0.00    +0.000 A 
ATOM      9  C   UNL     1       1.974   5.246  18.200  0.00  0.00    +0.000 A 
ATOM     10  C   UNL     1       2.427   3.921  18.176  0.00  0.00    +0.000 A 
ATOM     11  C   UNL     1       1.486   2.778  18.422  0.00  0.00    +0.000 C 
ATOM     12  C   UNL     1       3.780   3.665  17.926  0.00  0.00    +0.000 A 
ATOM     13  C   UNL     1       4.682   4.712  17.681  0.00  0.00    +0.000 A 
ATOM     14  C   UNL     1       4.204   6.031  17.692  0.00  0.00    +0.000 A 
ENDBRANCH   6  13
ENDBRANCH   1   6
BRANCH   3  15
ATOM     15  C   UNL     1       8.638   8.526  18.898  0.00  0.00    +0.000 C 
BRANCH  15  16
ATOM     16  C   UNL     1       8.638   9.839  18.110  0.00  0.00    +0.000 C 
BRANCH  16  17
ATOM     17  C   UNL     1       9.609  10.852  18.658  0.00  0.00    +0.000 A 
ATOM     18  C   UNL     1      10.365  11.655  17.793  0.00  0.00    +0.000 A 
ATOM     19  C   UNL     1      11.269  12.587  18.304  0.00  0.00    +0.000 A 
ATOM     20  C   UNL     1      11.430  12.719  19.682  0.00  0.00    +0.000 A 
ATOM     21  C   UNL     1      10.681  11.925  20.550  0.00  0.00    +0.000 A 
ATOM     22  C   UNL     1       9.775  10.995  20.042  0.00  0.00    +0.000 A 
ENDBRANCH  16  17
ENDBRANCH  15  16
ENDBRANCH   3  15
TORSDOF 5
ENDMDL
MODEL 2
REMARK VINA RESULT:      -8.5      0.448      1.120
REMARK  Name = 
REMARK  7 active torsions:
REMARK  status: ('A' for Active; 'I' for Inactive)
REMARK    1  A    between atoms: C_1  and  C_2
REMARK    2  A    between atoms: C_4  and  C_5
REMARK    3  A    between atoms: C_7  and  C_8
REMARK    4  A    between atoms: C_8  and  N_9
REMARK    5  A    between atoms: C_11  and  C_12
REMARK    6  A    between atoms: C_12  and  C_13
REMARK    7  A    between atoms: C_13  and  C_14
REMARK                            x       y       z     vdW  Elec       q    Type
REMARK                         _______ _______ _______ _____ _____    ______ ____
ROOT
ATOM      1  N   UNL     1       7.204   5.933  17.578  0.00  0.00    +0.000 N 
ATOM      2  C   UNL     1       7.847   6.494  18.641  0.00  0.00    +0.000 A 
ATOM      3  C   UNL     1       8.113   7.786  18.232  0.00  0.00    +0.000 A 
ATOM      4  N   UNL     1       7.659   7.947  16.950  0.00  0.00    +0.000 NA
ATOM      5  N   UNL     1       7.097   6.809  16.561  0.00  0.00    +0.000 NA
ENDROOT
BRANCH   1   6
ATOM      6  C   UNL     1       6.493   4.669  17.554  0.00  0.00    +0.000 C 
BRANCH   6  13
ATOM      7  C   UNL     1       2.449   7.600  18.226  0.00  0.00    +0.000 C 
ATOM      8  C   UNL     1       3.040   6.232  18.050  0.00  0.00    +0.000 A 
ATOM      9  C   UNL     1       2.239   5.087  18.133  0.00  0.00    +0.000 A 
ATOM     10  C   UNL     1       2.800   3.811  17.997  0.00  0.00    +0.000 A 
ATOM     11  C   UNL     1       1.947   2.579  18.073  0.00  0.00    +0.000 C 
ATOM     12  C   UNL     1       4.180   3.689  17.792  0.00  0.00    +0.000 A 
ATOM     13  C   UNL     1       5.002   4.823  17.704  0.00  0.00    +0.000 A 
ATOM     14  C   UNL     1       4.416   6.092  17.826  0.00  0.00    +0.000 A 
ENDBRANCH   6  13
ENDBRANCH   1   6
BRANCH   3  15
ATOM     15  C   UNL     1       8.728   8.915  18.980  0.00  0.00    +0.000 C 
BRANCH  15  16
ATOM     16  C   UNL     1       8.885  10.175  18.124  0.00  0.00    +0.000 C 
BRANCH  16  17
ATOM     17  C   UNL     1       9.995  11.074  18.602  0.00  0.00    +0.000 A 
ATOM     18  C   UNL     1      10.189  11.301  19.972  0.00  0.00    +0.000 A 
ATOM     19  C   UNL     1      11.214  12.140  20.410  0.00  0.00    +0.000 A 
ATOM     20  C   UNL     1      12.049  12.762  19.484  0.00  0.00    +0.000 A 
ATOM     21  C   UNL     1      11.865  12.540  18.120  0.00  0.00    +0.000 A 
ATOM     22  C   UNL     1      10.843  11.701  17.680  0.00  0.00    +0.000 A 
ENDBRANCH  16  17
ENDBRANCH  15  16
ENDBRANCH   3  15
TORSDOF 5
ENDMDL
MODEL 3
REMARK VINA RESULT:      -8.3      1.261      2.450
REMARK  Name = 
REMARK  7 active torsions:
REMARK  status: ('A' for Active; 'I' for Inactive)
REMARK    1  A    between atoms: C_1  and  C_2
REMARK    2  A    between atoms: C_4  and  C_5
REMARK    3  A    between atoms: C_7  and  C_8
REMARK    4  A    between atoms: C_8  and  N_9
REMARK    5  A    between atoms: C_11  and  C_12
REMARK    6  A    between atoms: C_12  and  C_13
REMARK    7  A    between atoms: C_13  and  C_14
REMARK                            x       y       z     vdW  Elec       q    Type
REMARK                         _______ _______ _______ _____ _____    ______ ____
ROOT
ATOM      1  N   UNL     1       6.078   5.621  17.522  0.00  0.00    +0.000 N 
ATOM      2  C   UNL     1       7.067   5.958  18.397  0.00  0.00    +0.000 A 
ATOM      3  C   UNL     1       7.484   7.204  17.974  0.00  0.00    +0.000 A 
ATOM      4  N   UNL     1       6.768   7.556  16.860  0.00  0.00    +0.000 NA
ATOM      5  N   UNL     1       5.904   6.583  16.596  0.00  0.00    +0.000 NA
ENDROOT
BRANCH   1   6
ATOM      6  C   UNL     1       5.139   4.523  17.646  0.00  0.00    +0.000 C 
BRANCH   6  13
ATOM      7  C   UNL     1       1.886   2.776  21.077  0.00  0.00    +0.000 C 
ATOM      8  C   UNL     1       2.474   3.933  20.322  0.00  0.00    +0.000 A 
ATOM      9  C   UNL     1       1.964   5.227  20.480  0.00  0.00    +0.000 A 
ATOM     10  C   UNL     1       2.497   6.299  19.753  0.00  0.00    +0.000 A 
ATOM     11  C   UNL     1       1.963   7.691  19.924  0.00  0.00    +0.000 C 
ATOM     12  C   UNL     1       3.538   6.060  18.848  0.00  0.00    +0.000 A 
ATOM     13  C   UNL     1       4.066   4.772  18.675  0.00  0.00    +0.000 A 
ATOM     14  C   UNL     1       3.529   3.716  19.427  0.00  0.00    +0.000 A 
ENDBRANCH   6  13
ENDBRANCH   1   6
BRANCH   3  15
ATOM     15  C   UNL     1       8.485   8.129  18.571  0.00  0.00    +0.000 C 
BRANCH  15  16
ATOM     16  C   UNL     1       8.353   9.561  18.046  0.00  0.00    +0.000 C 
BRANCH  16  17
ATOM     17  C   UNL     1       9.381  10.496  18.627  0.00  0.00    +0.000 A 
ATOM     18  C   UNL     1       9.431  10.731  20.008  0.00  0.00    +0.000 A 
ATOM     19  C   UNL     1      10.381  11.603  20.542  0.00  0.00    +0.000 A 
ATOM     20  C   UNL     1      11.283  12.251  19.700  0.00  0.00    +0.000 A 
ATOM     21  C   UNL     1      11.242  12.021  18.326  0.00  0.00    +0.000 A 
ATOM     22  C   UNL     1      10.295  11.149  17.790  0.00  0.00    +0.000 A 
ENDBRANCH  16  17
ENDBRANCH  15  16
ENDBRANCH   3  15
TORSDOF 5
ENDMDL
MODEL 4
REMARK VINA RESULT:      -8.3      1.327      1.404
REMARK  Name = 
REMARK  7 active torsions:
REMARK  status: ('A' for Active; 'I' for Inactive)
REMARK    1  A    between atoms: C_1  and  C_2
REMARK    2  A    between atoms: C_4  and  C_5
REMARK    3  A    between atoms: C_7  and  C_8
REMARK    4  A    between atoms: C_8  and  N_9
REMARK    5  A    between atoms: C_11  and  C_12
REMARK    6  A    between atoms: C_12  and  C_13
REMARK    7  A    between atoms: C_13  and  C_14
REMARK                            x       y       z     vdW  Elec       q    Type
REMARK                         _______ _______ _______ _____ _____    ______ ____
ROOT
ATOM      1  N   UNL     1       5.909   5.493  17.208  0.00  0.00    +0.000 N 
ATOM      2  C   UNL     1       6.429   6.106  18.308  0.00  0.00    +0.000 A 
ATOM      3  C   UNL     1       7.444   6.897  17.808  0.00  0.00    +0.000 A 
ATOM      4  N   UNL     1       7.520   6.713  16.452  0.00  0.00    +0.000 NA
ATOM      5  N   UNL     1       6.571   5.857  16.093  0.00  0.00    +0.000 NA
ENDROOT
BRANCH   1   6
ATOM      6  C   UNL     1       4.672   4.738  17.131  0.00  0.00    +0.000 C 
BRANCH   6  13
ATOM      7  C   UNL     1       1.816   7.932  19.785  0.00  0.00    +0.000 C 
ATOM      8  C   UNL     1       2.370   6.551  19.585  0.00  0.00    +0.000 A 
ATOM      9  C   UNL     1       2.120   5.536  20.516  0.00  0.00    +0.000 A 
ATOM     10  C   UNL     1       2.662   4.257  20.340  0.00  0.00    +0.000 A 
ATOM     11  C   UNL     1       2.390   3.159  21.327  0.00  0.00    +0.000 C 
ATOM     12  C   UNL     1       3.476   4.006  19.228  0.00  0.00    +0.000 A 
ATOM     13  C   UNL     1       3.738   5.008  18.282  0.00  0.00    +0.000 A 
ATOM     14  C   UNL     1       3.170   6.277  18.468  0.00  0.00    +0.000 A 
ENDBRANCH   6  13
ENDBRANCH   1   6
BRANCH   3  15
ATOM     15  C   UNL     1       8.332   7.865  18.506  0.00  0.00    +0.000 C 
BRANCH  15  16
ATOM     16  C   UNL     1       8.223   9.283  17.937  0.00  0.00    +0.000 C 
BRANCH  16  17
ATOM     17  C   UNL     1       9.174  10.251  18.589  0.00  0.00    +0.000 A 
ATOM     18  C   UNL     1      10.066  11.005  17.815  0.00  0.00    +0.000 A 
ATOM     19  C   UNL     1      10.950  11.896  18.424  0.00  0.00    +0.000 A 
ATOM     20  C   UNL     1      10.954  12.037  19.810  0.00  0.00    +0.000 A 
ATOM     21  C   UNL     1      10.069  11.292  20.588  0.00  0.00    +0.000 A 
ATOM     22  C   UNL     1       9.183  10.402  19.982  0.00  0.00    +0.000 A 
ENDBRANCH  16  17
ENDBRANCH  15  16
ENDBRANCH   3  15
TORSDOF 5
ENDMDL
MODEL 5
REMARK VINA RESULT:      -8.3      0.955      1.554
REMARK  Name = 
REMARK  7 active torsions:
REMARK  status: ('A' for Active; 'I' for Inactive)
REMARK    1  A    between atoms: C_1  and  C_2
REMARK    2  A    between atoms: C_4  and  C_5
REMARK    3  A    between atoms: C_7  and  C_8
REMARK    4  A    between atoms: C_8  and  N_9
REMARK    5  A    between atoms: C_11  and  C_12
REMARK    6  A    between atoms: C_12  and  C_13
REMARK    7  A    between atoms: C_13  and  C_14
REMARK                            x       y       z     vdW  Elec       q    Type
REMARK                         _______ _______ _______ _____ _____    ______ ____
ROOT
ATOM      1  N   UNL     1       7.028   6.370  17.638  0.00  0.00    +0.000 N 
ATOM      2  C   UNL     1       7.065   7.648  17.165  0.00  0.00    +0.000 A 
ATOM      3  C   UNL     1       7.991   8.281  17.969  0.00  0.00    +0.000 A 
ATOM      4  N   UNL     1       8.450   7.389  18.903  0.00  0.00    +0.000 NA
ATOM      5  N   UNL     1       7.860   6.219  18.686  0.00  0.00    +0.000 NA
ENDROOT
BRANCH   1   6
ATOM      6  C   UNL     1       6.401   5.223  17.010  0.00  0.00    +0.000 C 
BRANCH   6  13
ATOM      7  C   UNL     1       2.031   7.375  18.304  0.00  0.00    +0.000 C 
ATOM      8  C   UNL     1       2.813   6.142  17.956  0.00  0.00    +0.000 A 
ATOM      9  C   UNL     1       2.220   4.875  18.013  0.00  0.00    +0.000 A 
ATOM     10  C   UNL     1       2.962   3.725  17.715  0.00  0.00    +0.000 A 
ATOM     11  C   UNL     1       2.331   2.364  17.763  0.00  0.00    +0.000 C 
ATOM     12  C   UNL     1       4.314   3.852  17.375  0.00  0.00    +0.000 A 
ATOM     13  C   UNL     1       4.928   5.112  17.310  0.00  0.00    +0.000 A 
ATOM     14  C   UNL     1       4.162   6.252  17.595  0.00  0.00    +0.000 A 
ENDBRANCH   6  13
ENDBRANCH   1   6
BRANCH   3  15
ATOM     15  C   UNL     1       8.525   9.668  17.900  0.00  0.00    +0.000 C 
BRANCH  15  16
ATOM     16  C   UNL     1       9.181  10.114  19.209  0.00  0.00    +0.000 C 
BRANCH  16  17
ATOM     17  C   UNL     1      10.288  11.115  18.999  0.00  0.00    +0.000 A 
ATOM     18  C   UNL     1      11.062  11.558  20.080  0.00  0.00    +0.000 A 
ATOM     19  C   UNL     1      12.082  12.490  19.882  0.00  0.00    +0.000 A 
ATOM     20  C   UNL     1      12.331  12.990  18.606  0.00  0.00    +0.000 A 
ATOM     21  C   UNL     1      11.567  12.553  17.525  0.00  0.00    +0.000 A 
ATOM     22  C   UNL     1      10.549  11.621  17.719  0.00  0.00    +0.000 A 
ENDBRANCH  16  17
ENDBRANCH  15  16
ENDBRANCH   3  15
TORSDOF 5
ENDMDL
MODEL 6
REMARK VINA RESULT:      -8.2      0.927      1.328
REMARK  Name = 
REMARK  7 active torsions:
REMARK  status: ('A' for Active; 'I' for Inactive)
REMARK    1  A    between atoms: C_1  and  C_2
REMARK    2  A    between atoms: C_4  and  C_5
REMARK    3  A    between atoms: C_7  and  C_8
REMARK    4  A    between atoms: C_8  and  N_9
REMARK    5  A    between atoms: C_11  and  C_12
REMARK    6  A    between atoms: C_12  and  C_13
REMARK    7  A    between atoms: C_13  and  C_14
REMARK                            x       y       z     vdW  Elec       q    Type
REMARK                         _______ _______ _______ _____ _____    ______ ____
ROOT
ATOM      1  N   UNL     1       6.401   5.280  17.208  0.00  0.00    +0.000 N 
ATOM      2  C   UNL     1       6.782   5.993  18.306  0.00  0.00    +0.000 A 
ATOM      3  C   UNL     1       7.653   6.942  17.808  0.00  0.00    +0.000 A 
ATOM      4  N   UNL     1       7.789   6.753  16.458  0.00  0.00    +0.000 NA
ATOM      5  N   UNL     1       7.012   5.738  16.099  0.00  0.00    +0.000 NA
ENDROOT
BRANCH   1   6
ATOM      6  C   UNL     1       5.318   4.319  17.123  0.00  0.00    +0.000 C 
BRANCH   6  13
ATOM      7  C   UNL     1       2.161   8.117  18.129  0.00  0.00    +0.000 C 
ATOM      8  C   UNL     1       2.503   6.658  18.225  0.00  0.00    +0.000 A 
ATOM      9  C   UNL     1       1.695   5.778  18.954  0.00  0.00    +0.000 A 
ATOM     10  C   UNL     1       2.033   4.423  19.065  0.00  0.00    +0.000 A 
ATOM     11  C   UNL     1       1.166   3.470  19.834  0.00  0.00    +0.000 C 
ATOM     12  C   UNL     1       3.203   3.959  18.452  0.00  0.00    +0.000 A 
ATOM     13  C   UNL     1       4.028   4.823  17.716  0.00  0.00    +0.000 A 
ATOM     14  C   UNL     1       3.660   6.172  17.602  0.00  0.00    +0.000 A 
ENDBRANCH   6  13
ENDBRANCH   1   6
BRANCH   3  15
ATOM     15  C   UNL     1       8.341   8.062  18.504  0.00  0.00    +0.000 C 
BRANCH  15  16
ATOM     16  C   UNL     1       8.178   9.399  17.775  0.00  0.00    +0.000 C 
BRANCH  16  17
ATOM     17  C   UNL     1       8.900  10.531  18.458  0.00  0.00    +0.000 A 
ATOM     18  C   UNL     1       9.512  10.337  19.705  0.00  0.00    +0.000 A 
ATOM     19  C   UNL     1      10.175  11.390  20.337  0.00  0.00    +0.000 A 
ATOM     20  C   UNL     1      10.225  12.645  19.733  0.00  0.00    +0.000 A 
ATOM     21  C   UNL     1       9.621  12.846  18.493  0.00  0.00    +0.000 A 
ATOM     22  C   UNL     1       8.960  11.795  17.858  0.00  0.00    +0.000 A 
ENDBRANCH  16  17
ENDBRANCH  15  16
ENDBRANCH   3  15
TORSDOF 5
ENDMDL
MODEL 7
REMARK VINA RESULT:      -8.2      0.730      1.973
REMARK  Name = 
REMARK  7 active torsions:
REMARK  status: ('A' for Active; 'I' for Inactive)
REMARK    1  A    between atoms: C_1  and  C_2
REMARK    2  A    between atoms: C_4  and  C_5
REMARK    3  A    between atoms: C_7  and  C_8
REMARK    4  A    between atoms: C_8  and  N_9
REMARK    5  A    between atoms: C_11  and  C_12
REMARK    6  A    between atoms: C_12  and  C_13
REMARK    7  A    between atoms: C_13  and  C_14
REMARK                            x       y       z     vdW  Elec       q    Type
REMARK                         _______ _______ _______ _____ _____    ______ ____
ROOT
ATOM      1  N   UNL     1       7.350   5.891  17.665  0.00  0.00    +0.000 N 
ATOM      2  C   UNL     1       7.901   6.566  18.714  0.00  0.00    +0.000 A 
ATOM      3  C   UNL     1       8.173   7.820  18.205  0.00  0.00    +0.000 A 
ATOM      4  N   UNL     1       7.813   7.849  16.883  0.00  0.00    +0.000 NA
ATOM      5  N   UNL     1       7.302   6.665  16.564  0.00  0.00    +0.000 NA
ENDROOT
BRANCH   1   6
ATOM      6  C   UNL     1       6.667   4.613  17.710  0.00  0.00    +0.000 C 
BRANCH   6  13
ATOM      7  C   UNL     1       2.095   2.501  17.907  0.00  0.00    +0.000 C 
ATOM      8  C   UNL     1       2.954   3.731  17.942  0.00  0.00    +0.000 A 
ATOM      9  C   UNL     1       2.381   5.006  18.007  0.00  0.00    +0.000 A 
ATOM     10  C   UNL     1       3.186   6.152  18.010  0.00  0.00    +0.000 A 
ATOM     11  C   UNL     1       2.580   7.523  18.091  0.00  0.00    +0.000 C 
ATOM     12  C   UNL     1       4.577   6.010  17.930  0.00  0.00    +0.000 A 
ATOM     13  C   UNL     1       5.173   4.742  17.866  0.00  0.00    +0.000 A 
ATOM     14  C   UNL     1       4.349   3.607  17.882  0.00  0.00    +0.000 A 
ENDBRANCH   6  13
ENDBRANCH   1   6
BRANCH   3  15
ATOM     15  C   UNL     1       8.708   9.029  18.885  0.00  0.00    +0.000 C 
BRANCH  15  16
ATOM     16  C   UNL     1       8.830  10.231  17.944  0.00  0.00    +0.000 C 
BRANCH  16  17
ATOM     17  C   UNL     1       9.595  11.378  18.553  0.00  0.00    +0.000 A 
ATOM     18  C   UNL     1       9.360  12.694  18.132  0.00  0.00    +0.000 A 
ATOM     19  C   UNL     1      10.075  13.753  18.693  0.00  0.00    +0.000 A 
ATOM     20  C   UNL     1      11.033  13.504  19.674  0.00  0.00    +0.000 A 
ATOM     21  C   UNL     1      11.272  12.198  20.100  0.00  0.00    +0.000 A 
ATOM     22  C   UNL     1      10.558  11.139  19.542  0.00  0.00    +0.000 A 
ENDBRANCH  16  17
ENDBRANCH  15  16
ENDBRANCH   3  15
TORSDOF 5
ENDMDL
MODEL 8
REMARK VINA RESULT:      -8.1      1.174      1.500
REMARK  Name = 
REMARK  7 active torsions:
REMARK  status: ('A' for Active; 'I' for Inactive)
REMARK    1  A    between atoms: C_1  and  C_2
REMARK    2  A    between atoms: C_4  and  C_5
REMARK    3  A    between atoms: C_7  and  C_8
REMARK    4  A    between atoms: C_8  and  N_9
REMARK    5  A    between atoms: C_11  and  C_12
REMARK    6  A    between atoms: C_12  and  C_13
REMARK    7  A    between atoms: C_13  and  C_14
REMARK                            x       y       z     vdW  Elec       q    Type
REMARK                         _______ _______ _______ _____ _____    ______ ____
ROOT
ATOM      1  N   UNL     1       5.920   6.121  16.749  0.00  0.00    +0.000 N 
ATOM      2  C   UNL     1       6.211   6.890  17.837  0.00  0.00    +0.000 A 
ATOM      3  C   UNL     1       7.513   7.299  17.625  0.00  0.00    +0.000 A 
ATOM      4  N   UNL     1       7.964   6.747  16.454  0.00  0.00    +0.000 NA
ATOM      5  N   UNL     1       6.979   6.034  15.922  0.00  0.00    +0.000 NA
ENDROOT
BRANCH   1   6
ATOM      6  C   UNL     1       4.614   5.636  16.346  0.00  0.00    +0.000 C 
BRANCH   6  13
ATOM      7  C   UNL     1       1.783   5.468  20.512  0.00  0.00    +0.000 C 
ATOM      8  C   UNL     1       2.564   4.752  19.449  0.00  0.00    +0.000 A 
ATOM      9  C   UNL     1       2.746   3.365  19.503  0.00  0.00    +0.000 A 
ATOM     10  C   UNL     1       3.500   2.706  18.524  0.00  0.00    +0.000 A 
ATOM     11  C   UNL     1       3.691   1.218  18.568  0.00  0.00    +0.000 C 
ATOM     12  C   UNL     1       4.087   3.452  17.495  0.00  0.00    +0.000 A 
ATOM     13  C   UNL     1       3.917   4.843  17.421  0.00  0.00    +0.000 A 
ATOM     14  C   UNL     1       3.143   5.481  18.401  0.00  0.00    +0.000 A 
ENDBRANCH   6  13
ENDBRANCH   1   6
BRANCH   3  15
ATOM     15  C   UNL     1       8.365   8.221  18.422  0.00  0.00    +0.000 C 
BRANCH  15  16
ATOM     16  C   UNL     1       8.406   9.637  17.841  0.00  0.00    +0.000 C 
BRANCH  16  17
ATOM     17  C   UNL     1       9.335  10.553  18.595  0.00  0.00    +0.000 A 
ATOM     18  C   UNL     1      10.291  11.318  17.913  0.00  0.00    +0.000 A 
ATOM     19  C   UNL     1      11.154  12.160  18.616  0.00  0.00    +0.000 A 
ATOM     20  C   UNL     1      11.072  12.239  20.005  0.00  0.00    +0.000 A 
ATOM     21  C   UNL     1      10.123  11.484  20.691  0.00  0.00    +0.000 A 
ATOM     22  C   UNL     1       9.258  10.643  19.991  0.00  0.00    +0.000 A 
ENDBRANCH  16  17
ENDBRANCH  15  16
ENDBRANCH   3  15
TORSDOF 5
ENDMDL
MODEL 9
REMARK VINA RESULT:      -7.9      1.460      1.839
REMARK  Name = 
REMARK  7 active torsions:
REMARK  status: ('A' for Active; 'I' for Inactive)
REMARK    1  A    between atoms: C_1  and  C_2
REMARK    2  A    between atoms: C_4  and  C_5
REMARK    3  A    between atoms: C_7  and  C_8
REMARK    4  A    between atoms: C_8  and  N_9
REMARK    5  A    between atoms: C_11  and  C_12
REMARK    6  A    between atoms: C_12  and  C_13
REMARK    7  A    between atoms: C_13  and  C_14
REMARK                            x       y       z     vdW  Elec       q    Type
REMARK                         _______ _______ _______ _____ _____    ______ ____
ROOT
ATOM      1  N   UNL     1       6.196   5.414  17.908  0.00  0.00    +0.000 N 
ATOM      2  C   UNL     1       7.150   6.240  18.423  0.00  0.00    +0.000 A 
ATOM      3  C   UNL     1       7.219   7.283  17.521  0.00  0.00    +0.000 A 
ATOM      4  N   UNL     1       6.343   7.039  16.495  0.00  0.00    +0.000 NA
ATOM      5  N   UNL     1       5.716   5.897  16.746  0.00  0.00    +0.000 NA
ENDROOT
BRANCH   1   6
ATOM      6  C   UNL     1       5.559   4.293  18.572  0.00  0.00    +0.000 C 
BRANCH   6  13
ATOM      7  C   UNL     1       2.030   7.711  19.695  0.00  0.00    +0.000 C 
ATOM      8  C   UNL     1       2.529   6.297  19.761  0.00  0.00    +0.000 A 
ATOM      9  C   UNL     1       1.834   5.323  20.487  0.00  0.00    +0.000 A 
ATOM     10  C   UNL     1       2.318   4.012  20.569  0.00  0.00    +0.000 A 
ATOM     11  C   UNL     1       1.573   2.959  21.336  0.00  0.00    +0.000 C 
ATOM     12  C   UNL     1       3.520   3.686  19.929  0.00  0.00    +0.000 A 
ATOM     13  C   UNL     1       4.233   4.645  19.195  0.00  0.00    +0.000 A 
ATOM     14  C   UNL     1       3.720   5.948  19.110  0.00  0.00    +0.000 A 
ENDBRANCH   6  13
ENDBRANCH   1   6
BRANCH   3  15
ATOM     15  C   UNL     1       8.020   8.535  17.570  0.00  0.00    +0.000 C 
BRANCH  15  16
ATOM     16  C   UNL     1       8.646   8.783  18.945  0.00  0.00    +0.000 C 
BRANCH  16  17
ATOM     17  C   UNL     1       9.231  10.164  19.084  0.00  0.00    +0.000 A 
ATOM     18  C   UNL     1       9.611  10.654  20.341  0.00  0.00    +0.000 A 
ATOM     19  C   UNL     1      10.146  11.937  20.466  0.00  0.00    +0.000 A 
ATOM     20  C   UNL     1      10.300  12.741  19.338  0.00  0.00    +0.000 A 
ATOM     21  C   UNL     1       9.927  12.260  18.084  0.00  0.00    +0.000 A 
ATOM     22  C   UNL     1       9.394  10.978  17.956  0.00  0.00    +0.000 A 
ENDBRANCH  16  17
ENDBRANCH  15  16
ENDBRANCH   3  15
TORSDOF 5
ENDMDL
