MODEL 1
REMARK VINA RESULT:      -8.0      0.000      0.000
REMARK  Name = 
REMARK  3 active torsions:
REMARK  status: ('A' for Active; 'I' for Inactive)
REMARK    1  A    between atoms: C_2  and  C_10
REMARK    2  A    between atoms: N_3  and  C_4
REMARK    3  A    between atoms: C_4  and  C_5
REMARK                            x       y       z     vdW  Elec       q    Type
REMARK                         _______ _______ _______ _____ _____    ______ ____
ROOT
ATOM      1  C   UNL     1       4.549   4.077  18.103  0.00  0.00    +0.000 A 
ATOM      2  C   UNL     1       3.459   4.394  17.389  0.00  0.00    +0.000 A 
ATOM      3  C   UNL     1       2.131   4.082  17.923  0.00  0.00    +0.000 A 
ATOM      4  O   UNL     1       1.118   4.301  17.274  0.00  0.00    +0.000 OA
ATOM      5  C   UNL     1       2.093   3.521  19.279  0.00  0.00    +0.000 A 
ATOM      6  C   UNL     1       0.869   3.318  19.923  0.00  0.00    +0.000 A 
ATOM      7  C   UNL     1       0.853   2.813  21.222  0.00  0.00    +0.000 A 
ATOM      8  C   UNL     1       2.054   2.506  21.865  0.00  0.00    +0.000 A 
ATOM      9  C   UNL     1       3.276   2.706  21.212  0.00  0.00    +0.000 A 
ATOM     10  C   UNL     1       3.297   3.224  19.918  0.00  0.00    +0.000 A 
ATOM     11  O   UNL     1       4.526   3.439  19.336  0.00  0.00    +0.000 OA
ENDROOT
BRANCH   1  13
ATOM     12  O   UNL     1       6.902   4.454  18.147  0.00  0.00    +0.000 OA
ATOM     13  C   UNL     1       5.859   4.459  17.494  0.00  0.00    +0.000 C 
ATOM     14  N   UNL     1       5.824   4.806  16.168  0.00  0.00    +0.000 N 
ATOM     15  H   UNL     1       4.977   4.688  15.625  0.00  0.00    +0.000 HD
BRANCH  14  16
ATOM     16  C   UNL     1       7.055   5.128  15.482  0.00  0.00    +0.000 C 
BRANCH  16  17
ATOM     17  C   UNL     1       6.988   4.684  14.072  0.00  0.00    +0.000 A 
ATOM     18  C   UNL     1       6.263   3.697  13.434  0.00  0.00    +0.000 A 
ATOM     19  C   UNL     1       6.575   3.802  12.057  0.00  0.00    +0.000 A 
ATOM     20  C   UNL     1       7.469   4.839  11.944  0.00  0.00    +0.000 A 
ATOM     21  O   UNL     1       7.733   5.379  13.164  0.00  0.00    +0.000 OA
ENDBRANCH  16  17
ENDBRANCH  14  16
ENDBRANCH   1  13
TORSDOF 3
ENDMDL
MODEL 2
REMARK VINA RESULT:      -7.8      1.824      2.199
REMARK  Name = 
REMARK  3 active torsions:
REMARK  status: ('A' for Active; 'I' for Inactive)
REMARK    1  A    between atoms: C_2  and  C_10
REMARK    2  A    between atoms: N_3  and  C_4
REMARK    3  A    between atoms: C_4  and  C_5
REMARK                            x       y       z     vdW  Elec       q    Type
REMARK                         _______ _______ _______ _____ _____    ______ ____
ROOT
ATOM      1  C   UNL     1       4.077   5.460  17.259  0.00  0.00    +0.000 A 
ATOM      2  C   UNL     1       3.737   6.408  18.145  0.00  0.00    +0.000 A 
ATOM      3  C   UNL     1       2.673   6.140  19.116  0.00  0.00    +0.000 A 
ATOM      4  O   UNL     1       2.296   7.001  19.898  0.00  0.00    +0.000 OA
ATOM      5  C   UNL     1       2.115   4.782  19.108  0.00  0.00    +0.000 A 
ATOM      6  C   UNL     1       1.193   4.393  20.084  0.00  0.00    +0.000 A 
ATOM      7  C   UNL     1       0.697   3.092  20.079  0.00  0.00    +0.000 A 
ATOM      8  C   UNL     1       1.114   2.191  19.096  0.00  0.00    +0.000 A 
ATOM      9  C   UNL     1       2.032   2.588  18.118  0.00  0.00    +0.000 A 
ATOM     10  C   UNL     1       2.542   3.885  18.128  0.00  0.00    +0.000 A 
ATOM     11  O   UNL     1       3.472   4.213  17.168  0.00  0.00    +0.000 OA
ENDROOT
BRANCH   1  13
ATOM     12  O   UNL     1       5.278   6.925  15.814  0.00  0.00    +0.000 OA
ATOM     13  C   UNL     1       5.192   5.810  16.327  0.00  0.00    +0.000 C 
ATOM     14  N   UNL     1       6.107   4.818  16.090  0.00  0.00    +0.000 N 
ATOM     15  H   UNL     1       6.079   3.952  16.615  0.00  0.00    +0.000 HD
BRANCH  14  16
ATOM     16  C   UNL     1       7.253   5.091  15.251  0.00  0.00    +0.000 C 
BRANCH  16  17
ATOM     17  C   UNL     1       7.011   4.600  13.876  0.00  0.00    +0.000 A 
ATOM     18  C   UNL     1       7.618   4.867  12.666  0.00  0.00    +0.000 A 
ATOM     19  C   UNL     1       6.986   4.035  11.711  0.00  0.00    +0.000 A 
ATOM     20  C   UNL     1       6.034   3.320  12.397  0.00  0.00    +0.000 A 
ATOM     21  O   UNL     1       6.035   3.660  13.713  0.00  0.00    +0.000 OA
ENDBRANCH  16  17
ENDBRANCH  14  16
ENDBRANCH   1  13
TORSDOF 3
ENDMDL
MODEL 3
REMARK VINA RESULT:      -7.7      1.994      2.279
REMARK  Name = 
REMARK  3 active torsions:
REMARK  status: ('A' for Active; 'I' for Inactive)
REMARK    1  A    between atoms: C_2  and  C_10
REMARK    2  A    between atoms: N_3  and  C_4
REMARK    3  A    between atoms: C_4  and  C_5
REMARK                            x       y       z     vdW  Elec       q    Type
REMARK                         _______ _______ _______ _____ _____    ______ ____
ROOT
ATOM      1  C   UNL     1       4.112   5.253  17.084  0.00  0.00    +0.000 A 
ATOM      2  C   UNL     1       3.796   6.373  17.751  0.00  0.00    +0.000 A 
ATOM      3  C   UNL     1       2.863   6.303  18.878  0.00  0.00    +0.000 A 
ATOM      4  O   UNL     1       2.506   7.312  19.470  0.00  0.00    +0.000 OA
ATOM      5  C   UNL     1       2.411   4.960  19.263  0.00  0.00    +0.000 A 
ATOM      6  C   UNL     1       1.628   4.782  20.407  0.00  0.00    +0.000 A 
ATOM      7  C   UNL     1       1.234   3.497  20.774  0.00  0.00    +0.000 A 
ATOM      8  C   UNL     1       1.613   2.402  19.994  0.00  0.00    +0.000 A 
ATOM      9  C   UNL     1       2.390   2.589  18.846  0.00  0.00    +0.000 A 
ATOM     10  C   UNL     1       2.800   3.871  18.483  0.00  0.00    +0.000 A 
ATOM     11  O   UNL     1       3.596   3.995  17.367  0.00  0.00    +0.000 OA
ENDROOT
BRANCH   1  13
ATOM     12  O   UNL     1       5.444   6.526  15.572  0.00  0.00    +0.000 OA
ATOM     13  C   UNL     1       5.093   5.415  15.968  0.00  0.00    +0.000 C 
ATOM     14  N   UNL     1       5.576   4.254  15.423  0.00  0.00    +0.000 N 
ATOM     15  H   UNL     1       5.362   3.357  15.843  0.00  0.00    +0.000 HD
BRANCH  14  16
ATOM     16  C   UNL     1       6.577   4.318  14.382  0.00  0.00    +0.000 C 
BRANCH  16  17
ATOM     17  C   UNL     1       6.064   3.701  13.139  0.00  0.00    +0.000 A 
ATOM     18  C   UNL     1       6.655   2.915  12.170  0.00  0.00    +0.000 A 
ATOM     19  C   UNL     1       5.631   2.574  11.254  0.00  0.00    +0.000 A 
ATOM     20  C   UNL     1       4.486   3.175  11.719  0.00  0.00    +0.000 A 
ATOM     21  O   UNL     1       4.739   3.869  12.860  0.00  0.00    +0.000 OA
ENDBRANCH  16  17
ENDBRANCH  14  16
ENDBRANCH   1  13
TORSDOF 3
ENDMDL
MODEL 4
REMARK VINA RESULT:      -7.6      1.805      1.877
REMARK  Name = 
REMARK  3 active torsions:
REMARK  status: ('A' for Active; 'I' for Inactive)
REMARK    1  A    between atoms: C_2  and  C_10
REMARK    2  A    between atoms: N_3  and  C_4
REMARK    3  A    between atoms: C_4  and  C_5
REMARK                            x       y       z     vdW  Elec       q    Type
REMARK                         _______ _______ _______ _____ _____    ______ ____
ROOT
ATOM      1  C   UNL     1       4.328   5.556  17.596  0.00  0.00    +0.000 A 
ATOM      2  C   UNL     1       3.655   6.607  18.086  0.00  0.00    +0.000 A 
ATOM      3  C   UNL     1       2.762   6.421  19.232  0.00  0.00    +0.000 A 
ATOM      4  O   UNL     1       2.087   7.344  19.668  0.00  0.00    +0.000 OA
ATOM      5  C   UNL     1       2.749   5.082  19.834  0.00  0.00    +0.000 A 
ATOM      6  C   UNL     1       2.032   4.845  21.010  0.00  0.00    +0.000 A 
ATOM      7  C   UNL     1       2.055   3.575  21.583  0.00  0.00    +0.000 A 
ATOM      8  C   UNL     1       2.783   2.550  20.974  0.00  0.00    +0.000 A 
ATOM      9  C   UNL     1       3.492   2.792  19.793  0.00  0.00    +0.000 A 
ATOM     10  C   UNL     1       3.484   4.065  19.225  0.00  0.00    +0.000 A 
ATOM     11  O   UNL     1       4.230   4.260  18.085  0.00  0.00    +0.000 OA
ENDROOT
BRANCH   1  13
ATOM     12  O   UNL     1       5.144   6.884  15.793  0.00  0.00    +0.000 OA
ATOM     13  C   UNL     1       5.237   5.845  16.445  0.00  0.00    +0.000 C 
ATOM     14  N   UNL     1       6.178   4.886  16.171  0.00  0.00    +0.000 N 
ATOM     15  H   UNL     1       6.311   4.098  16.794  0.00  0.00    +0.000 HD
BRANCH  14  16
ATOM     16  C   UNL     1       7.140   5.113  15.117  0.00  0.00    +0.000 C 
BRANCH  16  17
ATOM     17  C   UNL     1       6.725   4.407  13.883  0.00  0.00    +0.000 A 
ATOM     18  C   UNL     1       5.640   3.609  13.581  0.00  0.00    +0.000 A 
ATOM     19  C   UNL     1       5.757   3.281  12.209  0.00  0.00    +0.000 A 
ATOM     20  C   UNL     1       6.904   3.894  11.765  0.00  0.00    +0.000 A 
ATOM     21  O   UNL     1       7.505   4.576  12.776  0.00  0.00    +0.000 OA
ENDBRANCH  16  17
ENDBRANCH  14  16
ENDBRANCH   1  13
TORSDOF 3
ENDMDL
MODEL 5
REMARK VINA RESULT:      -7.5      1.688      1.936
REMARK  Name = 
REMARK  3 active torsions:
REMARK  status: ('A' for Active; 'I' for Inactive)
REMARK    1  A    between atoms: C_2  and  C_10
REMARK    2  A    between atoms: N_3  and  C_4
REMARK    3  A    between atoms: C_4  and  C_5
REMARK                            x       y       z     vdW  Elec       q    Type
REMARK                         _______ _______ _______ _____ _____    ______ ____
ROOT
ATOM      1  C   UNL     1       4.957   4.629  17.446  0.00  0.00    +0.000 A 
ATOM      2  C   UNL     1       4.321   5.808  17.515  0.00  0.00    +0.000 A 
ATOM      3  C   UNL     1       3.254   5.996  18.501  0.00  0.00    +0.000 A 
ATOM      4  O   UNL     1       2.613   7.036  18.552  0.00  0.00    +0.000 OA
ATOM      5  C   UNL     1       3.024   4.881  19.428  0.00  0.00    +0.000 A 
ATOM      6  C   UNL     1       2.121   5.020  20.486  0.00  0.00    +0.000 A 
ATOM      7  C   UNL     1       1.938   3.962  21.374  0.00  0.00    +0.000 A 
ATOM      8  C   UNL     1       2.648   2.772  21.196  0.00  0.00    +0.000 A 
ATOM      9  C   UNL     1       3.545   2.637  20.131  0.00  0.00    +0.000 A 
ATOM     10  C   UNL     1       3.742   3.699  19.248  0.00  0.00    +0.000 A 
ATOM     11  O   UNL     1       4.665   3.529  18.241  0.00  0.00    +0.000 OA
ENDROOT
BRANCH   1  13
ATOM     12  O   UNL     1       7.228   4.408  16.761  0.00  0.00    +0.000 OA
ATOM     13  C   UNL     1       6.050   4.538  16.431  0.00  0.00    +0.000 C 
ATOM     14  N   UNL     1       5.656   4.602  15.120  0.00  0.00    +0.000 N 
ATOM     15  H   UNL     1       4.674   4.591  14.873  0.00  0.00    +0.000 HD
BRANCH  14  16
ATOM     16  C   UNL     1       6.642   4.458  14.072  0.00  0.00    +0.000 C 
BRANCH  16  17
ATOM     17  C   UNL     1       6.076   3.692  12.939  0.00  0.00    +0.000 A 
ATOM     18  C   UNL     1       6.605   2.729  12.103  0.00  0.00    +0.000 A 
ATOM     19  C   UNL     1       5.550   2.318  11.251  0.00  0.00    +0.000 A 
ATOM     20  C   UNL     1       4.452   3.059  11.618  0.00  0.00    +0.000 A 
ATOM     21  O   UNL     1       4.762   3.902  12.638  0.00  0.00    +0.000 OA
ENDBRANCH  16  17
ENDBRANCH  14  16
ENDBRANCH   1  13
TORSDOF 3
ENDMDL
MODEL 6
REMARK VINA RESULT:      -7.4      1.860      3.213
REMARK  Name = 
REMARK  3 active torsions:
REMARK  status: ('A' for Active; 'I' for Inactive)
REMARK    1  A    between atoms: C_2  and  C_10
REMARK    2  A    between atoms: N_3  and  C_4
REMARK    3  A    between atoms: C_4  and  C_5
REMARK                            x       y       z     vdW  Elec       q    Type
REMARK                         _______ _______ _______ _____ _____    ______ ____
ROOT
ATOM      1  C   UNL     1       5.716   4.519  16.351  0.00  0.00    +0.000 A 
ATOM      2  C   UNL     1       6.314   4.834  17.509  0.00  0.00    +0.000 A 
ATOM      3  C   UNL     1       5.594   4.641  18.770  0.00  0.00    +0.000 A 
ATOM      4  O   UNL     1       6.085   4.974  19.840  0.00  0.00    +0.000 OA
ATOM      5  C   UNL     1       4.274   4.005  18.672  0.00  0.00    +0.000 A 
ATOM      6  C   UNL     1       3.571   3.658  19.829  0.00  0.00    +0.000 A 
ATOM      7  C   UNL     1       2.333   3.029  19.717  0.00  0.00    +0.000 A 
ATOM      8  C   UNL     1       1.801   2.760  18.454  0.00  0.00    +0.000 A 
ATOM      9  C   UNL     1       2.506   3.117  17.299  0.00  0.00    +0.000 A 
ATOM     10  C   UNL     1       3.751   3.733  17.407  0.00  0.00    +0.000 A 
ATOM     11  O   UNL     1       4.422   4.027  16.241  0.00  0.00    +0.000 OA
ENDROOT
BRANCH   1  13
ATOM     12  O   UNL     1       7.600   5.339  15.145  0.00  0.00    +0.000 OA
ATOM     13  C   UNL     1       6.536   4.721  15.119  0.00  0.00    +0.000 C 
ATOM     14  N   UNL     1       6.032   4.173  13.968  0.00  0.00    +0.000 N 
ATOM     15  H   UNL     1       5.218   3.571  13.995  0.00  0.00    +0.000 HD
BRANCH  14  16
ATOM     16  C   UNL     1       6.792   4.266  12.742  0.00  0.00    +0.000 C 
BRANCH  16  17
ATOM     17  C   UNL     1       6.633   3.029  11.944  0.00  0.00    +0.000 A 
ATOM     18  C   UNL     1       7.534   2.216  11.287  0.00  0.00    +0.000 A 
ATOM     19  C   UNL     1       6.785   1.137  10.758  0.00  0.00    +0.000 A 
ATOM     20  C   UNL     1       5.479   1.364  11.121  0.00  0.00    +0.000 A 
ATOM     21  O   UNL     1       5.373   2.515  11.837  0.00  0.00    +0.000 OA
ENDBRANCH  16  17
ENDBRANCH  14  16
ENDBRANCH   1  13
TORSDOF 3
ENDMDL
MODEL 7
REMARK VINA RESULT:      -7.3      2.100      2.716
REMARK  Name = 
REMARK  3 active torsions:
REMARK  status: ('A' for Active; 'I' for Inactive)
REMARK    1  A    between atoms: C_2  and  C_10
REMARK    2  A    between atoms: N_3  and  C_4
REMARK    3  A    between atoms: C_4  and  C_5
REMARK                            x       y       z     vdW  Elec       q    Type
REMARK                         _______ _______ _______ _____ _____    ______ ____
ROOT
ATOM      1  C   UNL     1       4.552   4.955  16.956  0.00  0.00    +0.000 A 
ATOM      2  C   UNL     1       4.470   3.665  17.313  0.00  0.00    +0.000 A 
ATOM      3  C   UNL     1       3.745   3.298  18.532  0.00  0.00    +0.000 A 
ATOM      4  O   UNL     1       3.702   2.139  18.921  0.00  0.00    +0.000 OA
ATOM      5  C   UNL     1       3.061   4.391  19.234  0.00  0.00    +0.000 A 
ATOM      6  C   UNL     1       2.236   4.118  20.329  0.00  0.00    +0.000 A 
ATOM      7  C   UNL     1       1.571   5.165  20.964  0.00  0.00    +0.000 A 
ATOM      8  C   UNL     1       1.742   6.476  20.511  0.00  0.00    +0.000 A 
ATOM      9  C   UNL     1       2.576   6.743  19.420  0.00  0.00    +0.000 A 
ATOM     10  C   UNL     1       3.231   5.697  18.772  0.00  0.00    +0.000 A 
ATOM     11  O   UNL     1       4.008   6.009  17.679  0.00  0.00    +0.000 OA
ENDROOT
BRANCH   1  13
ATOM     12  O   UNL     1       5.365   6.370  15.220  0.00  0.00    +0.000 OA
ATOM     13  C   UNL     1       5.284   5.233  15.684  0.00  0.00    +0.000 C 
ATOM     14  N   UNL     1       5.861   4.148  15.076  0.00  0.00    +0.000 N 
ATOM     15  H   UNL     1       5.880   3.246  15.538  0.00  0.00    +0.000 HD
BRANCH  14  16
ATOM     16  C   UNL     1       6.643   4.335  13.875  0.00  0.00    +0.000 C 
BRANCH  16  17
ATOM     17  C   UNL     1       6.062   3.557  12.758  0.00  0.00    +0.000 A 
ATOM     18  C   UNL     1       6.567   2.558  11.950  0.00  0.00    +0.000 A 
ATOM     19  C   UNL     1       5.506   2.157  11.103  0.00  0.00    +0.000 A 
ATOM     20  C   UNL     1       4.428   2.937  11.444  0.00  0.00    +0.000 A 
ATOM     21  O   UNL     1       4.756   3.797  12.445  0.00  0.00    +0.000 OA
ENDBRANCH  16  17
ENDBRANCH  14  16
ENDBRANCH   1  13
TORSDOF 3
ENDMDL
MODEL 8
REMARK VINA RESULT:      -7.3      1.274      2.139
REMARK  Name = 
REMARK  3 active torsions:
REMARK  status: ('A' for Active; 'I' for Inactive)
REMARK    1  A    between atoms: C_2  and  C_10
REMARK    2  A    between atoms: N_3  and  C_4
REMARK    3  A    between atoms: C_4  and  C_5
REMARK                            x       y       z     vdW  Elec       q    Type
REMARK                         _______ _______ _______ _____ _____    ______ ____
ROOT
ATOM      1  C   UNL     1       4.571   4.626  18.007  0.00  0.00    +0.000 A 
ATOM      2  C   UNL     1       5.233   3.622  18.600  0.00  0.00    +0.000 A 
ATOM      3  C   UNL     1       4.609   2.905  19.714  0.00  0.00    +0.000 A 
ATOM      4  O   UNL     1       5.206   2.024  20.317  0.00  0.00    +0.000 OA
ATOM      5  C   UNL     1       3.229   3.288  20.040  0.00  0.00    +0.000 A 
ATOM      6  C   UNL     1       2.507   2.570  20.998  0.00  0.00    +0.000 A 
ATOM      7  C   UNL     1       1.189   2.928  21.272  0.00  0.00    +0.000 A 
ATOM      8  C   UNL     1       0.605   4.005  20.600  0.00  0.00    +0.000 A 
ATOM      9  C   UNL     1       1.336   4.724  19.648  0.00  0.00    +0.000 A 
ATOM     10  C   UNL     1       2.650   4.359  19.359  0.00  0.00    +0.000 A 
ATOM     11  O   UNL     1       3.312   5.073  18.386  0.00  0.00    +0.000 OA
ENDROOT
BRANCH   1  13
ATOM     12  O   UNL     1       4.917   6.374  16.424  0.00  0.00    +0.000 OA
ATOM     13  C   UNL     1       5.272   5.280  16.860  0.00  0.00    +0.000 C 
ATOM     14  N   UNL     1       6.333   4.588  16.335  0.00  0.00    +0.000 N 
ATOM     15  H   UNL     1       6.678   3.749  16.785  0.00  0.00    +0.000 HD
BRANCH  14  16
ATOM     16  C   UNL     1       7.108   5.176  15.265  0.00  0.00    +0.000 C 
BRANCH  16  17
ATOM     17  C   UNL     1       6.792   4.514  13.980  0.00  0.00    +0.000 A 
ATOM     18  C   UNL     1       5.782   3.658  13.590  0.00  0.00    +0.000 A 
ATOM     19  C   UNL     1       5.974   3.419  12.208  0.00  0.00    +0.000 A 
ATOM     20  C   UNL     1       7.088   4.138  11.846  0.00  0.00    +0.000 A 
ATOM     21  O   UNL     1       7.598   4.802  12.916  0.00  0.00    +0.000 OA
ENDBRANCH  16  17
ENDBRANCH  14  16
ENDBRANCH   1  13
TORSDOF 3
ENDMDL
MODEL 9
REMARK VINA RESULT:      -7.3      3.946      4.434
REMARK  Name = 
REMARK  3 active torsions:
REMARK  status: ('A' for Active; 'I' for Inactive)
REMARK    1  A    between atoms: C_2  and  C_10
REMARK    2  A    between atoms: N_3  and  C_4
REMARK    3  A    between atoms: C_4  and  C_5
REMARK                            x       y       z     vdW  Elec       q    Type
REMARK                         _______ _______ _______ _____ _____    ______ ____
ROOT
ATOM      1  C   UNL     1       2.981   6.676  18.942  0.00  0.00    +0.000 A 
ATOM      2  C   UNL     1       2.940   7.597  17.968  0.00  0.00    +0.000 A 
ATOM      3  C   UNL     1       2.113   8.794  18.141  0.00  0.00    +0.000 A 
ATOM      4  O   UNL     1       2.004   9.625  17.250  0.00  0.00    +0.000 OA
ATOM      5  C   UNL     1       1.453   8.943  19.444  0.00  0.00    +0.000 A 
ATOM      6  C   UNL     1       0.754  10.114  19.750  0.00  0.00    +0.000 A 
ATOM      7  C   UNL     1       0.159  10.251  21.002  0.00  0.00    +0.000 A 
ATOM      8  C   UNL     1       0.257   9.216  21.936  0.00  0.00    +0.000 A 
ATOM      9  C   UNL     1       0.951   8.043  21.621  0.00  0.00    +0.000 A 
ATOM     10  C   UNL     1       1.561   7.909  20.374  0.00  0.00    +0.000 A 
ATOM     11  O   UNL     1       2.266   6.752  20.129  0.00  0.00    +0.000 OA
ENDROOT
BRANCH   1  13
ATOM     12  O   UNL     1       3.476   4.348  18.827  0.00  0.00    +0.000 OA
ATOM     13  C   UNL     1       3.873   5.504  18.691  0.00  0.00    +0.000 C 
ATOM     14  N   UNL     1       5.153   5.800  18.296  0.00  0.00    +0.000 N 
ATOM     15  H   UNL     1       5.420   6.752  18.078  0.00  0.00    +0.000 HD
BRANCH  14  16
ATOM     16  C   UNL     1       6.064   4.726  17.970  0.00  0.00    +0.000 C 
BRANCH  16  17
ATOM     17  C   UNL     1       6.164   4.565  16.503  0.00  0.00    +0.000 A 
ATOM     18  C   UNL     1       5.259   4.163  15.541  0.00  0.00    +0.000 A 
ATOM     19  C   UNL     1       5.923   4.280  14.296  0.00  0.00    +0.000 A 
ATOM     20  C   UNL     1       7.187   4.740  14.578  0.00  0.00    +0.000 A 
ATOM     21  O   UNL     1       7.347   4.911  15.917  0.00  0.00    +0.000 OA
ENDBRANCH  16  17
ENDBRANCH  14  16
ENDBRANCH   1  13
TORSDOF 3
ENDMDL
