MODEL 1
REMARK VINA RESULT:      -8.7      0.000      0.000
REMARK  Name = 
REMARK  5 active torsions:
REMARK  status: ('A' for Active; 'I' for Inactive)
REMARK    1  A    between atoms: C_2  and  C_3
REMARK    2  A    between atoms: C_3  and  C_4
REMARK    3  A    between atoms: C_4  and  N_5
REMARK    4  A    between atoms: C_7  and  C_8
REMARK    5  A    between atoms: N_12  and  C_13
REMARK                            x       y       z     vdW  Elec       q    Type
REMARK                         _______ _______ _______ _____ _____    ______ ____
ROOT
ATOM      1  N   UNL     1       4.382   5.021  18.342  0.00  0.00    +0.000 N 
ATOM      2  C   UNL     1       5.372   5.350  19.217  0.00  0.00    +0.000 A 
ATOM      3  C   UNL     1       6.476   5.690  18.453  0.00  0.00    +0.000 A 
ATOM      4  C   UNL     1       6.048   5.514  17.110  0.00  0.00    +0.000 A 
ATOM      5  N   UNL     1       6.830   5.732  16.021  0.00  0.00    +0.000 N 
ATOM      6  N   UNL     1       4.780   5.090  17.065  0.00  0.00    +0.000 NA
ATOM      7  H   UNL     1       7.692   6.260  16.142  0.00  0.00    +0.000 HD
ENDROOT
BRANCH   1   8
ATOM      8  C   UNL     1       2.996   4.570  18.622  0.00  0.00    +0.000 C 
ATOM      9  C   UNL     1       2.793   4.606  20.168  0.00  0.00    +0.000 C 
ATOM     10  C   UNL     1       1.508   3.942  20.673  0.00  0.00    +0.000 C 
ATOM     11  C   UNL     1       1.295   2.547  20.101  0.00  0.00    +0.000 C 
ATOM     12  C   UNL     1       1.418   2.535  18.584  0.00  0.00    +0.000 C 
ATOM     13  C   UNL     1       2.763   3.108  18.145  0.00  0.00    +0.000 C 
BRANCH   8  14
ATOM     14  C   UNL     1       2.029   5.551  17.901  0.00  0.00    +0.000 C 
BRANCH  14  16
ATOM     15  N   UNL     1       2.360   8.067  18.616  0.00  0.00    +0.000 NA
ATOM     16  C   UNL     1       2.217   6.952  18.329  0.00  0.00    +0.000 C 
ENDBRANCH  14  16
ENDBRANCH   8  14
ENDBRANCH   1   8
BRANCH   5  17
ATOM     17  C   UNL     1       6.774   5.062  14.778  0.00  0.00    +0.000 A 
ATOM     18  C   UNL     1       7.670   5.404  13.758  0.00  0.00    +0.000 A 
ATOM     19  C   UNL     1       7.595   4.788  12.503  0.00  0.00    +0.000 A 
ATOM     20  C   UNL     1       6.629   3.814  12.255  0.00  0.00    +0.000 A 
ATOM     21  C   UNL     1       5.730   3.464  13.256  0.00  0.00    +0.000 A 
ATOM     22  C   UNL     1       5.796   4.092  14.502  0.00  0.00    +0.000 A 
ENDBRANCH   5  17
BRANCH   3  23
ATOM     23  C   UNL     1       7.766   6.109  18.951  0.00  0.00    +0.000 C 
ATOM     24  N   UNL     1       8.336   5.267  19.870  0.00  0.00    +0.000 N 
ATOM     25  O   UNL     1       8.347   7.120  18.570  0.00  0.00    +0.000 OA
ATOM     26  H   UNL     1       8.017   4.312  19.954  0.00  0.00    +0.000 HD
ATOM     27  H   UNL     1       9.288   5.467  20.139  0.00  0.00    +0.000 HD
ENDBRANCH   3  23
TORSDOF 5
ENDMDL
MODEL 2
REMARK VINA RESULT:      -8.5      1.348      2.634
REMARK  Name = 
REMARK  5 active torsions:
REMARK  status: ('A' for Active; 'I' for Inactive)
REMARK    1  A    between atoms: C_2  and  C_3
REMARK    2  A    between atoms: C_3  and  C_4
REMARK    3  A    between atoms: C_4  and  N_5
REMARK    4  A    between atoms: C_7  and  C_8
REMARK    5  A    between atoms: N_12  and  C_13
REMARK                            x       y       z     vdW  Elec       q    Type
REMARK                         _______ _______ _______ _____ _____    ______ ____
ROOT
ATOM      1  N   UNL     1       4.662   4.312  18.564  0.00  0.00    +0.000 N 
ATOM      2  C   UNL     1       5.641   4.878  19.322  0.00  0.00    +0.000 A 
ATOM      3  C   UNL     1       6.504   5.510  18.443  0.00  0.00    +0.000 A 
ATOM      4  C   UNL     1       5.958   5.248  17.157  0.00  0.00    +0.000 A 
ATOM      5  N   UNL     1       6.500   5.682  15.990  0.00  0.00    +0.000 N 
ATOM      6  N   UNL     1       4.850   4.504  17.252  0.00  0.00    +0.000 NA
ATOM      7  H   UNL     1       7.204   6.417  16.027  0.00  0.00    +0.000 HD
ENDROOT
BRANCH   1   8
ATOM      8  C   UNL     1       3.491   3.507  18.995  0.00  0.00    +0.000 C 
ATOM      9  C   UNL     1       2.360   3.723  17.944  0.00  0.00    +0.000 C 
ATOM     10  C   UNL     1       0.987   3.171  18.341  0.00  0.00    +0.000 C 
ATOM     11  C   UNL     1       0.557   3.594  19.739  0.00  0.00    +0.000 C 
ATOM     12  C   UNL     1       1.637   3.309  20.772  0.00  0.00    +0.000 C 
ATOM     13  C   UNL     1       2.953   3.975  20.377  0.00  0.00    +0.000 C 
BRANCH   8  14
ATOM     14  C   UNL     1       3.939   2.019  19.047  0.00  0.00    +0.000 C 
BRANCH  14  16
ATOM     15  N   UNL     1       5.355   1.459  21.200  0.00  0.00    +0.000 NA
ATOM     16  C   UNL     1       4.708   1.700  20.267  0.00  0.00    +0.000 C 
ENDBRANCH  14  16
ENDBRANCH   8  14
ENDBRANCH   1   8
BRANCH   5  17
ATOM     17  C   UNL     1       6.452   5.041  14.732  0.00  0.00    +0.000 A 
ATOM     18  C   UNL     1       5.366   4.219  14.406  0.00  0.00    +0.000 A 
ATOM     19  C   UNL     1       5.328   3.533  13.186  0.00  0.00    +0.000 A 
ATOM     20  C   UNL     1       6.370   3.669  12.271  0.00  0.00    +0.000 A 
ATOM     21  C   UNL     1       7.456   4.480  12.579  0.00  0.00    +0.000 A 
ATOM     22  C   UNL     1       7.502   5.150  13.805  0.00  0.00    +0.000 A 
ENDBRANCH   5  17
BRANCH   3  23
ATOM     23  C   UNL     1       7.697   6.247  18.792  0.00  0.00    +0.000 C 
ATOM     24  N   UNL     1       8.420   5.724  19.832  0.00  0.00    +0.000 N 
ATOM     25  O   UNL     1       8.075   7.251  18.198  0.00  0.00    +0.000 OA
ATOM     26  H   UNL     1       8.286   4.762  20.113  0.00  0.00    +0.000 HD
ATOM     27  H   UNL     1       9.320   6.143  20.015  0.00  0.00    +0.000 HD
ENDBRANCH   3  23
TORSDOF 5
ENDMDL
MODEL 3
REMARK VINA RESULT:      -8.5      1.392      2.432
REMARK  Name = 
REMARK  5 active torsions:
REMARK  status: ('A' for Active; 'I' for Inactive)
REMARK    1  A    between atoms: C_2  and  C_3
REMARK    2  A    between atoms: C_3  and  C_4
REMARK    3  A    between atoms: C_4  and  N_5
REMARK    4  A    between atoms: C_7  and  C_8
REMARK    5  A    between atoms: N_12  and  C_13
REMARK                            x       y       z     vdW  Elec       q    Type
REMARK                         _______ _______ _______ _____ _____    ______ ____
ROOT
ATOM      1  N   UNL     1       4.648   4.620  18.251  0.00  0.00    +0.000 N 
ATOM      2  C   UNL     1       5.591   5.371  18.883  0.00  0.00    +0.000 A 
ATOM      3  C   UNL     1       6.378   5.931  17.891  0.00  0.00    +0.000 A 
ATOM      4  C   UNL     1       5.829   5.435  16.678  0.00  0.00    +0.000 A 
ATOM      5  N   UNL     1       6.306   5.731  15.441  0.00  0.00    +0.000 N 
ATOM      6  N   UNL     1       4.791   4.626  16.920  0.00  0.00    +0.000 NA
ATOM      7  H   UNL     1       6.945   6.518  15.345  0.00  0.00    +0.000 HD
ENDROOT
BRANCH   1   8
ATOM      8  C   UNL     1       3.560   3.796  18.837  0.00  0.00    +0.000 C 
ATOM      9  C   UNL     1       2.295   3.986  17.945  0.00  0.00    +0.000 C 
ATOM     10  C   UNL     1       0.998   3.411  18.522  0.00  0.00    +0.000 C 
ATOM     11  C   UNL     1       0.749   3.835  19.964  0.00  0.00    +0.000 C 
ATOM     12  C   UNL     1       1.962   3.576  20.844  0.00  0.00    +0.000 C 
ATOM     13  C   UNL     1       3.201   4.263  20.276  0.00  0.00    +0.000 C 
BRANCH   8  14
ATOM     14  C   UNL     1       4.039   2.317  18.834  0.00  0.00    +0.000 C 
BRANCH  14  16
ATOM     15  N   UNL     1       5.247   1.682  21.089  0.00  0.00    +0.000 NA
ATOM     16  C   UNL     1       4.709   1.934  20.092  0.00  0.00    +0.000 C 
ENDBRANCH  14  16
ENDBRANCH   8  14
ENDBRANCH   1   8
BRANCH   5  17
ATOM     17  C   UNL     1       6.286   4.906  14.295  0.00  0.00    +0.000 A 
ATOM     18  C   UNL     1       7.372   4.910  13.410  0.00  0.00    +0.000 A 
ATOM     19  C   UNL     1       7.346   4.139  12.241  0.00  0.00    +0.000 A 
ATOM     20  C   UNL     1       6.238   3.346  11.947  0.00  0.00    +0.000 A 
ATOM     21  C   UNL     1       5.151   3.331  12.813  0.00  0.00    +0.000 A 
ATOM     22  C   UNL     1       5.171   4.114  13.971  0.00  0.00    +0.000 A 
ENDBRANCH   5  17
BRANCH   3  23
ATOM     23  C   UNL     1       7.510   6.807  18.086  0.00  0.00    +0.000 C 
ATOM     24  N   UNL     1       8.260   6.549  19.204  0.00  0.00    +0.000 N 
ATOM     25  O   UNL     1       7.821   7.702  17.307  0.00  0.00    +0.000 OA
ATOM     26  H   UNL     1       8.193   5.652  19.667  0.00  0.00    +0.000 HD
ATOM     27  H   UNL     1       9.124   7.060  19.299  0.00  0.00    +0.000 HD
ENDBRANCH   3  23
TORSDOF 5
ENDMDL
MODEL 4
REMARK VINA RESULT:      -8.3      0.627      1.228
REMARK  Name = 
REMARK  5 active torsions:
REMARK  status: ('A' for Active; 'I' for Inactive)
REMARK    1  A    between atoms: C_2  and  C_3
REMARK    2  A    between atoms: C_3  and  C_4
REMARK    3  A    between atoms: C_4  and  N_5
REMARK    4  A    between atoms: C_7  and  C_8
REMARK    5  A    between atoms: N_12  and  C_13
REMARK                            x       y       z     vdW  Elec       q    Type
REMARK                         _______ _______ _______ _____ _____    ______ ____
ROOT
ATOM      1  N   UNL     1       4.432   5.065  18.571  0.00  0.00    +0.000 N 
ATOM      2  C   UNL     1       5.469   5.397  19.388  0.00  0.00    +0.000 A 
ATOM      3  C   UNL     1       6.523   5.749  18.562  0.00  0.00    +0.000 A 
ATOM      4  C   UNL     1       6.019   5.575  17.245  0.00  0.00    +0.000 A 
ATOM      5  N   UNL     1       6.732   5.805  16.113  0.00  0.00    +0.000 N 
ATOM      6  N   UNL     1       4.753   5.142  17.273  0.00  0.00    +0.000 NA
ATOM      7  H   UNL     1       7.597   6.338  16.186  0.00  0.00    +0.000 HD
ENDROOT
BRANCH   1   8
ATOM      8  C   UNL     1       3.068   4.602  18.930  0.00  0.00    +0.000 C 
ATOM      9  C   UNL     1       3.222   3.365  19.868  0.00  0.00    +0.000 C 
ATOM     10  C   UNL     1       1.929   2.594  20.149  0.00  0.00    +0.000 C 
ATOM     11  C   UNL     1       1.149   2.259  18.884  0.00  0.00    +0.000 C 
ATOM     12  C   UNL     1       0.936   3.487  18.011  0.00  0.00    +0.000 C 
ATOM     13  C   UNL     1       2.268   4.150  17.675  0.00  0.00    +0.000 C 
BRANCH   8  14
ATOM     14  C   UNL     1       2.350   5.776  19.655  0.00  0.00    +0.000 C 
BRANCH  14  16
ATOM     15  N   UNL     1       2.423   8.048  18.319  0.00  0.00    +0.000 NA
ATOM     16  C   UNL     1       2.411   7.037  18.890  0.00  0.00    +0.000 C 
ENDBRANCH  14  16
ENDBRANCH   8  14
ENDBRANCH   1   8
BRANCH   5  17
ATOM     17  C   UNL     1       6.608   5.140  14.872  0.00  0.00    +0.000 A 
ATOM     18  C   UNL     1       5.547   4.253  14.657  0.00  0.00    +0.000 A 
ATOM     19  C   UNL     1       5.438   3.545  13.454  0.00  0.00    +0.000 A 
ATOM     20  C   UNL     1       6.384   3.724  12.445  0.00  0.00    +0.000 A 
ATOM     21  C   UNL     1       7.445   4.600  12.643  0.00  0.00    +0.000 A 
ATOM     22  C   UNL     1       7.562   5.292  13.852  0.00  0.00    +0.000 A 
ENDBRANCH   5  17
BRANCH   3  23
ATOM     23  C   UNL     1       7.839   6.174  18.984  0.00  0.00    +0.000 C 
ATOM     24  N   UNL     1       8.453   5.351  19.891  0.00  0.00    +0.000 N 
ATOM     25  O   UNL     1       8.400   7.176  18.553  0.00  0.00    +0.000 OA
ATOM     26  H   UNL     1       8.137   4.399  20.011  0.00  0.00    +0.000 HD
ATOM     27  H   UNL     1       9.418   5.554  20.107  0.00  0.00    +0.000 HD
ENDBRANCH   3  23
TORSDOF 5
ENDMDL
MODEL 5
REMARK VINA RESULT:      -7.8      1.413      1.707
REMARK  Name = 
REMARK  5 active torsions:
REMARK  status: ('A' for Active; 'I' for Inactive)
REMARK    1  A    between atoms: C_2  and  C_3
REMARK    2  A    between atoms: C_3  and  C_4
REMARK    3  A    between atoms: C_4  and  N_5
REMARK    4  A    between atoms: C_7  and  C_8
REMARK    5  A    between atoms: N_12  and  C_13
REMARK                            x       y       z     vdW  Elec       q    Type
REMARK                         _______ _______ _______ _____ _____    ______ ____
ROOT
ATOM      1  N   UNL     1       4.900   4.721  18.337  0.00  0.00    +0.000 N 
ATOM      2  C   UNL     1       5.824   5.530  18.924  0.00  0.00    +0.000 A 
ATOM      3  C   UNL     1       6.553   6.105  17.897  0.00  0.00    +0.000 A 
ATOM      4  C   UNL     1       5.994   5.556  16.712  0.00  0.00    +0.000 A 
ATOM      5  N   UNL     1       6.419   5.847  15.456  0.00  0.00    +0.000 N 
ATOM      6  N   UNL     1       5.003   4.705  17.002  0.00  0.00    +0.000 NA
ATOM      7  H   UNL     1       7.017   6.661  15.324  0.00  0.00    +0.000 HD
ENDROOT
BRANCH   1   8
ATOM      8  C   UNL     1       3.871   3.859  18.972  0.00  0.00    +0.000 C 
ATOM      9  C   UNL     1       2.907   4.789  19.771  0.00  0.00    +0.000 C 
ATOM     10  C   UNL     1       1.923   4.068  20.698  0.00  0.00    +0.000 C 
ATOM     11  C   UNL     1       2.596   3.037  21.594  0.00  0.00    +0.000 C 
ATOM     12  C   UNL     1       3.475   2.085  20.797  0.00  0.00    +0.000 C 
ATOM     13  C   UNL     1       4.506   2.857  19.977  0.00  0.00    +0.000 C 
BRANCH   8  14
ATOM     14  C   UNL     1       3.121   3.109  17.836  0.00  0.00    +0.000 C 
BRANCH  14  16
ATOM     15  N   UNL     1       0.860   4.296  17.181  0.00  0.00    +0.000 NA
ATOM     16  C   UNL     1       1.866   3.780  17.444  0.00  0.00    +0.000 C 
ENDBRANCH  14  16
ENDBRANCH   8  14
ENDBRANCH   1   8
BRANCH   5  17
ATOM     17  C   UNL     1       6.405   4.997  14.327  0.00  0.00    +0.000 A 
ATOM     18  C   UNL     1       7.462   5.035  13.409  0.00  0.00    +0.000 A 
ATOM     19  C   UNL     1       7.438   4.238  12.258  0.00  0.00    +0.000 A 
ATOM     20  C   UNL     1       6.363   3.385  12.015  0.00  0.00    +0.000 A 
ATOM     21  C   UNL     1       5.306   3.336  12.916  0.00  0.00    +0.000 A 
ATOM     22  C   UNL     1       5.322   4.145  14.056  0.00  0.00    +0.000 A 
ENDBRANCH   5  17
BRANCH   3  23
ATOM     23  C   UNL     1       7.648   7.038  18.040  0.00  0.00    +0.000 C 
ATOM     24  N   UNL     1       8.423   6.858  19.156  0.00  0.00    +0.000 N 
ATOM     25  O   UNL     1       7.906   7.914  17.221  0.00  0.00    +0.000 OA
ATOM     26  H   UNL     1       8.403   5.979  19.654  0.00  0.00    +0.000 HD
ATOM     27  H   UNL     1       9.265   7.411  19.217  0.00  0.00    +0.000 HD
ENDBRANCH   3  23
TORSDOF 5
ENDMDL
MODEL 6
REMARK VINA RESULT:      -7.7      1.430      2.884
REMARK  Name = 
REMARK  5 active torsions:
REMARK  status: ('A' for Active; 'I' for Inactive)
REMARK    1  A    between atoms: C_2  and  C_3
REMARK    2  A    between atoms: C_3  and  C_4
REMARK    3  A    between atoms: C_4  and  N_5
REMARK    4  A    between atoms: C_7  and  C_8
REMARK    5  A    between atoms: N_12  and  C_13
REMARK                            x       y       z     vdW  Elec       q    Type
REMARK                         _______ _______ _______ _____ _____    ______ ____
ROOT
ATOM      1  N   UNL     1       4.698   5.984  18.025  0.00  0.00    +0.000 N 
ATOM      2  C   UNL     1       5.665   5.632  18.916  0.00  0.00    +0.000 A 
ATOM      3  C   UNL     1       6.783   5.296  18.172  0.00  0.00    +0.000 A 
ATOM      4  C   UNL     1       6.376   5.464  16.821  0.00  0.00    +0.000 A 
ATOM      5  N   UNL     1       7.171   5.233  15.745  0.00  0.00    +0.000 N 
ATOM      6  N   UNL     1       5.101   5.865  16.753  0.00  0.00    +0.000 NA
ATOM      7  H   UNL     1       8.175   5.149  15.894  0.00  0.00    +0.000 HD
ENDROOT
BRANCH   1   8
ATOM      8  C   UNL     1       3.301   6.418  18.281  0.00  0.00    +0.000 C 
ATOM      9  C   UNL     1       3.098   7.791  17.570  0.00  0.00    +0.000 C 
ATOM     10  C   UNL     1       1.799   8.522  17.921  0.00  0.00    +0.000 C 
ATOM     11  C   UNL     1       1.555   8.615  19.422  0.00  0.00    +0.000 C 
ATOM     12  C   UNL     1       1.679   7.257  20.097  0.00  0.00    +0.000 C 
ATOM     13  C   UNL     1       3.037   6.626  19.800  0.00  0.00    +0.000 C 
BRANCH   8  14
ATOM     14  C   UNL     1       2.357   5.331  17.695  0.00  0.00    +0.000 C 
BRANCH  14  16
ATOM     15  N   UNL     1       2.531   3.048  19.002  0.00  0.00    +0.000 NA
ATOM     16  C   UNL     1       2.428   4.057  18.437  0.00  0.00    +0.000 C 
ENDBRANCH  14  16
ENDBRANCH   8  14
ENDBRANCH   1   8
BRANCH   5  17
ATOM     17  C   UNL     1       6.774   4.779  14.467  0.00  0.00    +0.000 A 
ATOM     18  C   UNL     1       5.577   4.066  14.318  0.00  0.00    +0.000 A 
ATOM     19  C   UNL     1       5.195   3.563  13.069  0.00  0.00    +0.000 A 
ATOM     20  C   UNL     1       5.998   3.775  11.950  0.00  0.00    +0.000 A 
ATOM     21  C   UNL     1       7.190   4.479  12.080  0.00  0.00    +0.000 A 
ATOM     22  C   UNL     1       7.579   4.965  13.331  0.00  0.00    +0.000 A 
ENDBRANCH   5  17
BRANCH   3  23
ATOM     23  C   UNL     1       8.058   4.857  18.690  0.00  0.00    +0.000 C 
ATOM     24  N   UNL     1       8.393   5.363  19.919  0.00  0.00    +0.000 N 
ATOM     25  O   UNL     1       8.792   4.064  18.109  0.00  0.00    +0.000 OA
ATOM     26  H   UNL     1       7.681   5.758  20.518  0.00  0.00    +0.000 HD
ATOM     27  H   UNL     1       9.214   4.978  20.360  0.00  0.00    +0.000 HD
ENDBRANCH   3  23
TORSDOF 5
ENDMDL
MODEL 7
REMARK VINA RESULT:      -7.6      2.210      6.676
REMARK  Name = 
REMARK  5 active torsions:
REMARK  status: ('A' for Active; 'I' for Inactive)
REMARK    1  A    between atoms: C_2  and  C_3
REMARK    2  A    between atoms: C_3  and  C_4
REMARK    3  A    between atoms: C_4  and  N_5
REMARK    4  A    between atoms: C_7  and  C_8
REMARK    5  A    between atoms: N_12  and  C_13
REMARK                            x       y       z     vdW  Elec       q    Type
REMARK                         _______ _______ _______ _____ _____    ______ ____
ROOT
ATOM      1  N   UNL     1       4.454   6.512  17.528  0.00  0.00    +0.000 N 
ATOM      2  C   UNL     1       3.798   7.693  17.354  0.00  0.00    +0.000 A 
ATOM      3  C   UNL     1       2.844   7.764  18.355  0.00  0.00    +0.000 A 
ATOM      4  C   UNL     1       2.996   6.552  19.080  0.00  0.00    +0.000 A 
ATOM      5  N   UNL     1       2.245   6.201  20.156  0.00  0.00    +0.000 N 
ATOM      6  N   UNL     1       3.967   5.798  18.550  0.00  0.00    +0.000 NA
ATOM      7  H   UNL     1       1.694   6.922  20.617  0.00  0.00    +0.000 HD
ENDROOT
BRANCH   1   8
ATOM      8  C   UNL     1       5.560   5.929  16.728  0.00  0.00    +0.000 C 
ATOM      9  C   UNL     1       5.261   6.226  15.226  0.00  0.00    +0.000 C 
ATOM     10  C   UNL     1       6.159   5.492  14.225  0.00  0.00    +0.000 C 
ATOM     11  C   UNL     1       6.263   3.998  14.502  0.00  0.00    +0.000 C 
ATOM     12  C   UNL     1       6.630   3.718  15.952  0.00  0.00    +0.000 C 
ATOM     13  C   UNL     1       5.638   4.385  16.901  0.00  0.00    +0.000 C 
BRANCH   8  14
ATOM     14  C   UNL     1       6.881   6.608  17.188  0.00  0.00    +0.000 C 
BRANCH  14  16
ATOM     15  N   UNL     1       7.750   5.594  19.461  0.00  0.00    +0.000 NA
ATOM     16  C   UNL     1       7.386   6.061  18.462  0.00  0.00    +0.000 C 
ENDBRANCH  14  16
ENDBRANCH   8  14
ENDBRANCH   1   8
BRANCH   5  17
ATOM     17  C   UNL     1       1.872   4.897  20.552  0.00  0.00    +0.000 A 
ATOM     18  C   UNL     1       2.487   4.299  21.659  0.00  0.00    +0.000 A 
ATOM     19  C   UNL     1       2.169   2.988  22.033  0.00  0.00    +0.000 A 
ATOM     20  C   UNL     1       1.222   2.262  21.312  0.00  0.00    +0.000 A 
ATOM     21  C   UNL     1       0.603   2.839  20.210  0.00  0.00    +0.000 A 
ATOM     22  C   UNL     1       0.935   4.142  19.827  0.00  0.00    +0.000 A 
ENDBRANCH   5  17
BRANCH   3  23
ATOM     23  C   UNL     1       1.906   8.842  18.571  0.00  0.00    +0.000 C 
ATOM     24  N   UNL     1       1.810   9.744  17.543  0.00  0.00    +0.000 N 
ATOM     25  O   UNL     1       1.210   8.948  19.575  0.00  0.00    +0.000 OA
ATOM     26  H   UNL     1       2.139   9.500  16.619  0.00  0.00    +0.000 HD
ATOM     27  H   UNL     1       1.075  10.432  17.610  0.00  0.00    +0.000 HD
ENDBRANCH   3  23
TORSDOF 5
ENDMDL
MODEL 8
REMARK VINA RESULT:      -7.6      1.315      2.260
REMARK  Name = 
REMARK  5 active torsions:
REMARK  status: ('A' for Active; 'I' for Inactive)
REMARK    1  A    between atoms: C_2  and  C_3
REMARK    2  A    between atoms: C_3  and  C_4
REMARK    3  A    between atoms: C_4  and  N_5
REMARK    4  A    between atoms: C_7  and  C_8
REMARK    5  A    between atoms: N_12  and  C_13
REMARK                            x       y       z     vdW  Elec       q    Type
REMARK                         _______ _______ _______ _____ _____    ______ ____
ROOT
ATOM      1  N   UNL     1       4.613   4.936  18.206  0.00  0.00    +0.000 N 
ATOM      2  C   UNL     1       5.574   5.678  18.821  0.00  0.00    +0.000 A 
ATOM      3  C   UNL     1       6.397   6.164  17.820  0.00  0.00    +0.000 A 
ATOM      4  C   UNL     1       5.850   5.635  16.620  0.00  0.00    +0.000 A 
ATOM      5  N   UNL     1       6.359   5.858  15.381  0.00  0.00    +0.000 N 
ATOM      6  N   UNL     1       4.778   4.878  16.878  0.00  0.00    +0.000 NA
ATOM      7  H   UNL     1       7.030   6.616  15.262  0.00  0.00    +0.000 HD
ENDROOT
BRANCH   1   8
ATOM      8  C   UNL     1       3.485   4.180  18.806  0.00  0.00    +0.000 C 
ATOM      9  C   UNL     1       2.362   5.206  19.150  0.00  0.00    +0.000 C 
ATOM     10  C   UNL     1       1.214   4.656  20.003  0.00  0.00    +0.000 C 
ATOM     11  C   UNL     1       1.697   3.903  21.236  0.00  0.00    +0.000 C 
ATOM     12  C   UNL     1       2.737   2.850  20.882  0.00  0.00    +0.000 C 
ATOM     13  C   UNL     1       3.907   3.477  20.128  0.00  0.00    +0.000 C 
BRANCH   8  14
ATOM     14  C   UNL     1       3.001   3.143  17.754  0.00  0.00    +0.000 C 
BRANCH  14  16
ATOM     15  N   UNL     1       4.009   0.750  18.211  0.00  0.00    +0.000 NA
ATOM     16  C   UNL     1       3.564   1.797  17.982  0.00  0.00    +0.000 C 
ENDBRANCH  14  16
ENDBRANCH   8  14
ENDBRANCH   1   8
BRANCH   5  17
ATOM     17  C   UNL     1       6.326   4.985  14.271  0.00  0.00    +0.000 A 
ATOM     18  C   UNL     1       7.387   4.973  13.357  0.00  0.00    +0.000 A 
ATOM     19  C   UNL     1       7.347   4.153  12.223  0.00  0.00    +0.000 A 
ATOM     20  C   UNL     1       6.249   3.325  11.993  0.00  0.00    +0.000 A 
ATOM     21  C   UNL     1       5.186   3.326  12.889  0.00  0.00    +0.000 A 
ATOM     22  C   UNL     1       5.220   4.158  14.011  0.00  0.00    +0.000 A 
ENDBRANCH   5  17
BRANCH   3  23
ATOM     23  C   UNL     1       7.560   7.004  17.998  0.00  0.00    +0.000 C 
ATOM     24  N   UNL     1       8.326   6.712  19.096  0.00  0.00    +0.000 N 
ATOM     25  O   UNL     1       7.879   7.898  17.221  0.00  0.00    +0.000 OA
ATOM     26  H   UNL     1       8.244   5.813  19.551  0.00  0.00    +0.000 HD
ATOM     27  H   UNL     1       9.208   7.196  19.176  0.00  0.00    +0.000 HD
ENDBRANCH   3  23
TORSDOF 5
ENDMDL
MODEL 9
REMARK VINA RESULT:      -7.6      1.435      2.653
REMARK  Name = 
REMARK  5 active torsions:
REMARK  status: ('A' for Active; 'I' for Inactive)
REMARK    1  A    between atoms: C_2  and  C_3
REMARK    2  A    between atoms: C_3  and  C_4
REMARK    3  A    between atoms: C_4  and  N_5
REMARK    4  A    between atoms: C_7  and  C_8
REMARK    5  A    between atoms: N_12  and  C_13
REMARK                            x       y       z     vdW  Elec       q    Type
REMARK                         _______ _______ _______ _____ _____    ______ ____
ROOT
ATOM      1  N   UNL     1       4.719   4.795  18.235  0.00  0.00    +0.000 N 
ATOM      2  C   UNL     1       5.674   5.553  18.840  0.00  0.00    +0.000 A 
ATOM      3  C   UNL     1       6.441   6.103  17.826  0.00  0.00    +0.000 A 
ATOM      4  C   UNL     1       5.870   5.593  16.630  0.00  0.00    +0.000 A 
ATOM      5  N   UNL     1       6.323   5.876  15.381  0.00  0.00    +0.000 N 
ATOM      6  N   UNL     1       4.836   4.787  16.901  0.00  0.00    +0.000 NA
ATOM      7  H   UNL     1       6.960   6.662  15.264  0.00  0.00    +0.000 HD
ENDROOT
BRANCH   1   8
ATOM      8  C   UNL     1       3.644   3.977  18.850  0.00  0.00    +0.000 C 
ATOM      9  C   UNL     1       3.438   2.719  17.951  0.00  0.00    +0.000 C 
ATOM     10  C   UNL     1       2.203   1.875  18.282  0.00  0.00    +0.000 C 
ATOM     11  C   UNL     1       0.931   2.705  18.404  0.00  0.00    +0.000 C 
ATOM     12  C   UNL     1       1.117   3.887  19.343  0.00  0.00    +0.000 C 
ATOM     13  C   UNL     1       2.295   4.751  18.900  0.00  0.00    +0.000 C 
BRANCH   8  14
ATOM     14  C   UNL     1       4.113   3.582  20.278  0.00  0.00    +0.000 C 
BRANCH  14  16
ATOM     15  N   UNL     1       5.214   1.189  20.376  0.00  0.00    +0.000 NA
ATOM     16  C   UNL     1       4.704   2.230  20.329  0.00  0.00    +0.000 C 
ENDBRANCH  14  16
ENDBRANCH   8  14
ENDBRANCH   1   8
BRANCH   5  17
ATOM     17  C   UNL     1       6.281   5.038  14.244  0.00  0.00    +0.000 A 
ATOM     18  C   UNL     1       5.178   4.201  14.032  0.00  0.00    +0.000 A 
ATOM     19  C   UNL     1       5.145   3.325  12.940  0.00  0.00    +0.000 A 
ATOM     20  C   UNL     1       6.208   3.283  12.039  0.00  0.00    +0.000 A 
ATOM     21  C   UNL     1       7.311   4.105  12.236  0.00  0.00    +0.000 A 
ATOM     22  C   UNL     1       7.351   4.966  13.337  0.00  0.00    +0.000 A 
ENDBRANCH   5  17
BRANCH   3  23
ATOM     23  C   UNL     1       7.577   6.981  17.991  0.00  0.00    +0.000 C 
ATOM     24  N   UNL     1       8.337   6.747  19.107  0.00  0.00    +0.000 N 
ATOM     25  O   UNL     1       7.880   7.858  17.188  0.00  0.00    +0.000 OA
ATOM     26  H   UNL     1       8.274   5.861  19.590  0.00  0.00    +0.000 HD
ATOM     27  H   UNL     1       9.204   7.258  19.181  0.00  0.00    +0.000 HD
ENDBRANCH   3  23
TORSDOF 5
ENDMDL
