MODEL 1
REMARK VINA RESULT:      -8.3      0.000      0.000
REMARK  Name = 
REMARK  9 active torsions:
REMARK  status: ('A' for Active; 'I' for Inactive)
REMARK    1  A    between atoms: C_1  and  O_2
REMARK    2  A    between atoms: O_2  and  C_3
REMARK    3  A    between atoms: C_6  and  N_7
REMARK    4  A    between atoms: C_9  and  C_10
REMARK    5  A    between atoms: C_12  and  C_13
REMARK    6  A    between atoms: C_16  and  N_17
REMARK    7  A    between atoms: N_17  and  S_18
REMARK    8  A    between atoms: S_18  and  C_21
REMARK    9  A    between atoms: C_30  and  C_31
REMARK                            x       y       z     vdW  Elec       q    Type
REMARK                         _______ _______ _______ _____ _____    ______ ____
ROOT
ATOM      1  C   UNL     1      -2.690  10.787  16.971  0.00  0.00    +0.000 A 
ATOM      2  C   UNL     1      -4.076  10.937  17.106  0.00  0.00    +0.000 A 
ATOM      3  C   UNL     1      -4.636  11.622  18.186  0.00  0.00    +0.000 A 
ATOM      4  C   UNL     1      -3.837  12.202  19.171  0.00  0.00    +0.000 A 
ATOM      5  C   UNL     1      -2.451  12.020  19.041  0.00  0.00    +0.000 A 
ATOM      6  C   UNL     1      -1.864  11.323  17.968  0.00  0.00    +0.000 A 
ENDROOT
BRANCH   4   7
ATOM      7  N   UNL     1      -4.377  12.911  20.217  0.00  0.00    +0.000 N 
ATOM      8  C   UNL     1      -5.691  13.567  20.151  0.00  0.00    +0.000 C 
ATOM      9  C   UNL     1      -6.552  13.083  21.349  0.00  0.00    +0.000 C 
ATOM     10  C   UNL     1      -7.915  13.768  21.338  0.00  0.00    +0.000 C 
ATOM     11  N   UNL     1      -5.900  13.322  22.658  0.00  0.00    +0.000 NA
ATOM     12  C   UNL     1      -4.552  12.703  22.677  0.00  0.00    +0.000 C 
ATOM     13  C   UNL     1      -3.874  13.060  23.998  0.00  0.00    +0.000 C 
ATOM     14  C   UNL     1      -3.662  13.142  21.482  0.00  0.00    +0.000 C 
ATOM     15  H   UNL     1      -6.468  12.908  23.397  0.00  0.00    +0.000 HD
ENDBRANCH   4   7
BRANCH   1  17
ATOM     16  C   UNL     1      -3.268  10.162  14.712  0.00  0.00    +0.000 C 
ATOM     17  O   UNL     1      -2.376  10.157  15.803  0.00  0.00    +0.000 OA
ENDBRANCH   1  17
BRANCH   6  18
ATOM     18  N   UNL     1      -0.432  11.265  17.993  0.00  0.00    +0.000 N 
ATOM     19  H   UNL     1       0.040  12.065  17.586  0.00  0.00    +0.000 HD
BRANCH  18  20
ATOM     20  S   UNL     1       0.336  10.863  19.450  0.00  0.00    +0.000 S 
ATOM     21  O   UNL     1       1.351  11.880  19.647  0.00  0.00    +0.000 OA
ATOM     22  O   UNL     1      -0.675  10.638  20.452  0.00  0.00    +0.000 OA
BRANCH  20  23
ATOM     23  C   UNL     1       1.243   9.316  19.309  0.00  0.00    +0.000 A 
ATOM     24  S   UNL     1       2.044   9.084  17.820  0.00  0.00    +0.000 S 
ATOM     25  C   UNL     1       2.734   7.594  18.317  0.00  0.00    +0.000 A 
ATOM     26  C   UNL     1       3.643   6.808  17.576  0.00  0.00    +0.000 A 
ATOM     27  C   UNL     1       4.011   5.553  18.060  0.00  0.00    +0.000 A 
ATOM     28  C   UNL     1       3.485   5.105  19.255  0.00  0.00    +0.000 A 
ATOM     29  F   UNL     1       3.785   3.866  19.674  0.00  0.00    +0.000 F 
ATOM     30  C   UNL     1       2.646   5.911  20.034  0.00  0.00    +0.000 A 
ATOM     31  C   UNL     1       2.268   7.206  19.580  0.00  0.00    +0.000 A 
ATOM     32  C   UNL     1       1.513   8.285  20.203  0.00  0.00    +0.000 A 
ATOM     33  C   UNL     1       1.091   8.346  21.642  0.00  0.00    +0.000 C 
ENDBRANCH  20  23
ENDBRANCH  18  20
ENDBRANCH   6  18
TORSDOF 5
ENDMDL
MODEL 2
REMARK VINA RESULT:      -8.1      1.451      1.991
REMARK  Name = 
REMARK  9 active torsions:
REMARK  status: ('A' for Active; 'I' for Inactive)
REMARK    1  A    between atoms: C_1  and  O_2
REMARK    2  A    between atoms: O_2  and  C_3
REMARK    3  A    between atoms: C_6  and  N_7
REMARK    4  A    between atoms: C_9  and  C_10
REMARK    5  A    between atoms: C_12  and  C_13
REMARK    6  A    between atoms: C_16  and  N_17
REMARK    7  A    between atoms: N_17  and  S_18
REMARK    8  A    between atoms: S_18  and  C_21
REMARK    9  A    between atoms: C_30  and  C_31
REMARK                            x       y       z     vdW  Elec       q    Type
REMARK                         _______ _______ _______ _____ _____    ______ ____
ROOT
ATOM      1  C   UNL     1      -2.570  11.427  18.303  0.00  0.00    +0.000 A 
ATOM      2  C   UNL     1      -3.964  11.561  18.332  0.00  0.00    +0.000 A 
ATOM      3  C   UNL     1      -4.615  12.214  19.381  0.00  0.00    +0.000 A 
ATOM      4  C   UNL     1      -3.902  12.778  20.438  0.00  0.00    +0.000 A 
ATOM      5  C   UNL     1      -2.509  12.611  20.414  0.00  0.00    +0.000 A 
ATOM      6  C   UNL     1      -1.831  11.947  19.374  0.00  0.00    +0.000 A 
ENDROOT
BRANCH   4   7
ATOM      7  N   UNL     1      -4.530  13.455  21.455  0.00  0.00    +0.000 N 
ATOM      8  C   UNL     1      -5.965  13.319  21.746  0.00  0.00    +0.000 C 
ATOM      9  C   UNL     1      -6.139  12.943  23.243  0.00  0.00    +0.000 C 
ATOM     10  C   UNL     1      -7.618  12.827  23.596  0.00  0.00    +0.000 C 
ATOM     11  N   UNL     1      -5.496  13.917  24.157  0.00  0.00    +0.000 NA
ATOM     12  C   UNL     1      -4.065  14.082  23.804  0.00  0.00    +0.000 C 
ATOM     13  C   UNL     1      -3.468  15.167  24.698  0.00  0.00    +0.000 C 
ATOM     14  C   UNL     1      -3.844  14.438  22.309  0.00  0.00    +0.000 C 
ATOM     15  H   UNL     1      -5.567  13.575  25.115  0.00  0.00    +0.000 HD
ENDBRANCH   4   7
BRANCH   1  17
ATOM     16  C   UNL     1      -3.063  10.115  16.338  0.00  0.00    +0.000 C 
ATOM     17  O   UNL     1      -2.158  10.828  17.149  0.00  0.00    +0.000 OA
ENDBRANCH   1  17
BRANCH   6  18
ATOM     18  N   UNL     1      -0.404  11.901  19.511  0.00  0.00    +0.000 N 
ATOM     19  H   UNL     1       0.063  12.800  19.457  0.00  0.00    +0.000 HD
BRANCH  18  20
ATOM     20  S   UNL     1       0.258  11.020  20.799  0.00  0.00    +0.000 S 
ATOM     21  O   UNL     1       1.348  11.831  21.304  0.00  0.00    +0.000 OA
ATOM     22  O   UNL     1      -0.814  10.612  21.671  0.00  0.00    +0.000 OA
BRANCH  20  23
ATOM     23  C   UNL     1       1.030   9.500  20.224  0.00  0.00    +0.000 A 
ATOM     24  S   UNL     1       0.983   8.204  21.334  0.00  0.00    +0.000 S 
ATOM     25  C   UNL     1       1.739   7.119  20.241  0.00  0.00    +0.000 A 
ATOM     26  C   UNL     1       1.975   5.744  20.462  0.00  0.00    +0.000 A 
ATOM     27  C   UNL     1       2.721   5.024  19.531  0.00  0.00    +0.000 A 
ATOM     28  C   UNL     1       3.210   5.664  18.409  0.00  0.00    +0.000 A 
ATOM     29  F   UNL     1       3.991   4.981  17.558  0.00  0.00    +0.000 F 
ATOM     30  C   UNL     1       2.912   7.006  18.144  0.00  0.00    +0.000 A 
ATOM     31  C   UNL     1       2.135   7.765  19.063  0.00  0.00    +0.000 A 
ATOM     32  C   UNL     1       1.590   9.116  19.011  0.00  0.00    +0.000 A 
ATOM     33  C   UNL     1       1.570  10.008  17.804  0.00  0.00    +0.000 C 
ENDBRANCH  20  23
ENDBRANCH  18  20
ENDBRANCH   6  18
TORSDOF 5
ENDMDL
MODEL 3
REMARK VINA RESULT:      -8.0      2.506      4.410
REMARK  Name = 
REMARK  9 active torsions:
REMARK  status: ('A' for Active; 'I' for Inactive)
REMARK    1  A    between atoms: C_1  and  O_2
REMARK    2  A    between atoms: O_2  and  C_3
REMARK    3  A    between atoms: C_6  and  N_7
REMARK    4  A    between atoms: C_9  and  C_10
REMARK    5  A    between atoms: C_12  and  C_13
REMARK    6  A    between atoms: C_16  and  N_17
REMARK    7  A    between atoms: N_17  and  S_18
REMARK    8  A    between atoms: S_18  and  C_21
REMARK    9  A    between atoms: C_30  and  C_31
REMARK                            x       y       z     vdW  Elec       q    Type
REMARK                         _______ _______ _______ _____ _____    ______ ____
ROOT
ATOM      1  C   UNL     1      -1.101  12.813  21.592  0.00  0.00    +0.000 A 
ATOM      2  C   UNL     1      -2.378  13.362  21.418  0.00  0.00    +0.000 A 
ATOM      3  C   UNL     1      -3.228  12.928  20.399  0.00  0.00    +0.000 A 
ATOM      4  C   UNL     1      -2.848  11.914  19.520  0.00  0.00    +0.000 A 
ATOM      5  C   UNL     1      -1.556  11.393  19.685  0.00  0.00    +0.000 A 
ATOM      6  C   UNL     1      -0.677  11.823  20.696  0.00  0.00    +0.000 A 
ENDROOT
BRANCH   4   7
ATOM      7  N   UNL     1      -3.693  11.453  18.539  0.00  0.00    +0.000 N 
ATOM      8  C   UNL     1      -5.132  11.750  18.512  0.00  0.00    +0.000 C 
ATOM      9  C   UNL     1      -5.491  12.363  17.130  0.00  0.00    +0.000 C 
ATOM     10  C   UNL     1      -6.986  12.654  17.047  0.00  0.00    +0.000 C 
ATOM     11  N   UNL     1      -5.103  11.490  15.998  0.00  0.00    +0.000 NA
ATOM     12  C   UNL     1      -3.660  11.155  16.082  0.00  0.00    +0.000 C 
ATOM     13  C   UNL     1      -3.325  10.173  14.961  0.00  0.00    +0.000 C 
ATOM     14  C   UNL     1      -3.252  10.559  17.457  0.00  0.00    +0.000 C 
ATOM     15  H   UNL     1      -5.282  11.979  15.121  0.00  0.00    +0.000 HD
ENDBRANCH   4   7
BRANCH   1  17
ATOM     16  C   UNL     1      -1.226  14.024  23.677  0.00  0.00    +0.000 C 
ATOM     17  O   UNL     1      -0.489  13.335  22.694  0.00  0.00    +0.000 OA
ENDBRANCH   1  17
BRANCH   6  18
ATOM     18  N   UNL     1       0.592  11.154  20.724  0.00  0.00    +0.000 N 
ATOM     19  H   UNL     1       1.356  11.694  21.115  0.00  0.00    +0.000 HD
BRANCH  18  20
ATOM     20  S   UNL     1       0.662   9.579  21.348  0.00  0.00    +0.000 S 
ATOM     21  O   UNL     1       1.474   9.672  22.546  0.00  0.00    +0.000 OA
ATOM     22  O   UNL     1      -0.678   9.054  21.414  0.00  0.00    +0.000 OA
BRANCH  20  23
ATOM     23  C   UNL     1       1.568   8.479  20.250  0.00  0.00    +0.000 A 
ATOM     24  S   UNL     1       1.836   6.909  20.864  0.00  0.00    +0.000 S 
ATOM     25  C   UNL     1       2.603   6.377  19.425  0.00  0.00    +0.000 A 
ATOM     26  C   UNL     1       3.055   5.066  19.158  0.00  0.00    +0.000 A 
ATOM     27  C   UNL     1       3.781   4.820  17.994  0.00  0.00    +0.000 A 
ATOM     28  C   UNL     1       4.039   5.859  17.121  0.00  0.00    +0.000 A 
ATOM     29  F   UNL     1       4.803   5.628  16.043  0.00  0.00    +0.000 F 
ATOM     30  C   UNL     1       3.526   7.143  17.340  0.00  0.00    +0.000 A 
ATOM     31  C   UNL     1       2.762   7.423  18.508  0.00  0.00    +0.000 A 
ATOM     32  C   UNL     1       2.030   8.605  18.945  0.00  0.00    +0.000 A 
ATOM     33  C   UNL     1       1.743   9.819  18.109  0.00  0.00    +0.000 C 
ENDBRANCH  20  23
ENDBRANCH  18  20
ENDBRANCH   6  18
TORSDOF 5
ENDMDL
MODEL 4
REMARK VINA RESULT:      -8.0      2.244      3.263
REMARK  Name = 
REMARK  9 active torsions:
REMARK  status: ('A' for Active; 'I' for Inactive)
REMARK    1  A    between atoms: C_1  and  O_2
REMARK    2  A    between atoms: O_2  and  C_3
REMARK    3  A    between atoms: C_6  and  N_7
REMARK    4  A    between atoms: C_9  and  C_10
REMARK    5  A    between atoms: C_12  and  C_13
REMARK    6  A    between atoms: C_16  and  N_17
REMARK    7  A    between atoms: N_17  and  S_18
REMARK    8  A    between atoms: S_18  and  C_21
REMARK    9  A    between atoms: C_30  and  C_31
REMARK                            x       y       z     vdW  Elec       q    Type
REMARK                         _______ _______ _______ _____ _____    ______ ____
ROOT
ATOM      1  C   UNL     1      -1.367  11.230  19.095  0.00  0.00    +0.000 A 
ATOM      2  C   UNL     1      -2.604  11.885  19.154  0.00  0.00    +0.000 A 
ATOM      3  C   UNL     1      -3.062  12.477  20.333  0.00  0.00    +0.000 A 
ATOM      4  C   UNL     1      -2.299  12.456  21.500  0.00  0.00    +0.000 A 
ATOM      5  C   UNL     1      -1.076  11.771  21.437  0.00  0.00    +0.000 A 
ATOM      6  C   UNL     1      -0.598  11.156  20.264  0.00  0.00    +0.000 A 
ENDROOT
BRANCH   4   7
ATOM      7  N   UNL     1      -2.725  13.068  22.654  0.00  0.00    +0.000 N 
ATOM      8  C   UNL     1      -1.804  13.572  23.683  0.00  0.00    +0.000 C 
ATOM      9  C   UNL     1      -2.134  15.065  23.962  0.00  0.00    +0.000 C 
ATOM     10  C   UNL     1      -1.223  15.619  25.053  0.00  0.00    +0.000 C 
ATOM     11  N   UNL     1      -3.547  15.275  24.357  0.00  0.00    +0.000 NA
ATOM     12  C   UNL     1      -4.454  14.703  23.333  0.00  0.00    +0.000 C 
ATOM     13  C   UNL     1      -5.893  14.846  23.826  0.00  0.00    +0.000 C 
ATOM     14  C   UNL     1      -4.145  13.217  23.006  0.00  0.00    +0.000 C 
ATOM     15  H   UNL     1      -3.726  16.275  24.442  0.00  0.00    +0.000 HD
ENDBRANCH   4   7
BRANCH   1  17
ATOM     16  C   UNL     1      -1.917   9.850  17.192  0.00  0.00    +0.000 C 
ATOM     17  O   UNL     1      -1.098  10.804  17.827  0.00  0.00    +0.000 OA
ENDBRANCH   1  17
BRANCH   6  18
ATOM     18  N   UNL     1       0.685  10.528  20.387  0.00  0.00    +0.000 N 
ATOM     19  H   UNL     1       1.423  11.121  20.752  0.00  0.00    +0.000 HD
BRANCH  18  20
ATOM     20  S   UNL     1       0.776   9.016  21.147  0.00  0.00    +0.000 S 
ATOM     21  O   UNL     1       1.603   9.221  22.321  0.00  0.00    +0.000 OA
ATOM     22  O   UNL     1      -0.559   8.489  21.277  0.00  0.00    +0.000 OA
BRANCH  20  23
ATOM     23  C   UNL     1       1.678   7.829  20.139  0.00  0.00    +0.000 A 
ATOM     24  S   UNL     1       1.831   6.273  20.824  0.00  0.00    +0.000 S 
ATOM     25  C   UNL     1       2.640   5.646  19.447  0.00  0.00    +0.000 A 
ATOM     26  C   UNL     1       3.036   4.304  19.253  0.00  0.00    +0.000 A 
ATOM     27  C   UNL     1       3.806   3.976  18.138  0.00  0.00    +0.000 A 
ATOM     28  C   UNL     1       4.162   4.965  17.242  0.00  0.00    +0.000 A 
ATOM     29  F   UNL     1       4.965   4.654  16.214  0.00  0.00    +0.000 F 
ATOM     30  C   UNL     1       3.706   6.281  17.386  0.00  0.00    +0.000 A 
ATOM     31  C   UNL     1       2.900   6.646  18.502  0.00  0.00    +0.000 A 
ATOM     32  C   UNL     1       2.210   7.879  18.856  0.00  0.00    +0.000 A 
ATOM     33  C   UNL     1       2.029   9.072  17.962  0.00  0.00    +0.000 C 
ENDBRANCH  20  23
ENDBRANCH  18  20
ENDBRANCH   6  18
TORSDOF 5
ENDMDL
MODEL 5
REMARK VINA RESULT:      -8.0      4.317      9.456
REMARK  Name = 
REMARK  9 active torsions:
REMARK  status: ('A' for Active; 'I' for Inactive)
REMARK    1  A    between atoms: C_1  and  O_2
REMARK    2  A    between atoms: O_2  and  C_3
REMARK    3  A    between atoms: C_6  and  N_7
REMARK    4  A    between atoms: C_9  and  C_10
REMARK    5  A    between atoms: C_12  and  C_13
REMARK    6  A    between atoms: C_16  and  N_17
REMARK    7  A    between atoms: N_17  and  S_18
REMARK    8  A    between atoms: S_18  and  C_21
REMARK    9  A    between atoms: C_30  and  C_31
REMARK                            x       y       z     vdW  Elec       q    Type
REMARK                         _______ _______ _______ _____ _____    ______ ____
ROOT
ATOM      1  C   UNL     1       0.880   9.740  21.152  0.00  0.00    +0.000 A 
ATOM      2  C   UNL     1       1.155   8.405  21.477  0.00  0.00    +0.000 A 
ATOM      3  C   UNL     1       1.674   7.515  20.535  0.00  0.00    +0.000 A 
ATOM      4  C   UNL     1       1.957   7.921  19.231  0.00  0.00    +0.000 A 
ATOM      5  C   UNL     1       1.649   9.252  18.909  0.00  0.00    +0.000 A 
ATOM      6  C   UNL     1       1.114  10.164  19.837  0.00  0.00    +0.000 A 
ENDROOT
BRANCH   4   7
ATOM      7  N   UNL     1       2.503   7.063  18.308  0.00  0.00    +0.000 N 
ATOM      8  C   UNL     1       3.680   7.399  17.494  0.00  0.00    +0.000 C 
ATOM      9  C   UNL     1       4.747   6.284  17.671  0.00  0.00    +0.000 C 
ATOM     10  C   UNL     1       5.974   6.577  16.814  0.00  0.00    +0.000 C 
ATOM     11  N   UNL     1       4.229   4.937  17.334  0.00  0.00    +0.000 NA
ATOM     12  C   UNL     1       3.007   4.647  18.122  0.00  0.00    +0.000 C 
ATOM     13  C   UNL     1       2.447   3.299  17.670  0.00  0.00    +0.000 C 
ATOM     14  C   UNL     1       1.921   5.749  17.991  0.00  0.00    +0.000 C 
ATOM     15  H   UNL     1       4.941   4.240  17.551  0.00  0.00    +0.000 HD
ENDBRANCH   4   7
BRANCH   1  17
ATOM     16  C   UNL     1      -0.352   9.827  23.226  0.00  0.00    +0.000 C 
ATOM     17  O   UNL     1       0.459  10.435  22.248  0.00  0.00    +0.000 OA
ENDBRANCH   1  17
BRANCH   6  18
ATOM     18  N   UNL     1       0.891  11.487  19.330  0.00  0.00    +0.000 N 
ATOM     19  H   UNL     1       1.340  11.691  18.444  0.00  0.00    +0.000 HD
BRANCH  18  20
ATOM     20  S   UNL     1      -0.697  12.078  19.284  0.00  0.00    +0.000 S 
ATOM     21  O   UNL     1      -0.689  13.135  18.290  0.00  0.00    +0.000 OA
ATOM     22  O   UNL     1      -1.597  10.960  19.153  0.00  0.00    +0.000 OA
BRANCH  20  23
ATOM     23  C   UNL     1      -1.141  12.889  20.828  0.00  0.00    +0.000 A 
ATOM     24  S   UNL     1      -2.687  12.493  21.430  0.00  0.00    +0.000 S 
ATOM     25  C   UNL     1      -2.481  13.441  22.845  0.00  0.00    +0.000 A 
ATOM     26  C   UNL     1      -3.389  13.540  23.922  0.00  0.00    +0.000 A 
ATOM     27  C   UNL     1      -3.140  14.458  24.940  0.00  0.00    +0.000 A 
ATOM     28  C   UNL     1      -2.009  15.249  24.882  0.00  0.00    +0.000 A 
ATOM     29  F   UNL     1      -1.817  16.182  25.827  0.00  0.00    +0.000 F 
ATOM     30  C   UNL     1      -1.064  15.100  23.860  0.00  0.00    +0.000 A 
ATOM     31  C   UNL     1      -1.277  14.157  22.815  0.00  0.00    +0.000 A 
ATOM     32  C   UNL     1      -0.445  13.716  21.703  0.00  0.00    +0.000 A 
ATOM     33  C   UNL     1       1.005  14.050  21.504  0.00  0.00    +0.000 C 
ENDBRANCH  20  23
ENDBRANCH  18  20
ENDBRANCH   6  18
TORSDOF 5
ENDMDL
MODEL 6
REMARK VINA RESULT:      -7.9      3.140      3.878
REMARK  Name = 
REMARK  9 active torsions:
REMARK  status: ('A' for Active; 'I' for Inactive)
REMARK    1  A    between atoms: C_1  and  O_2
REMARK    2  A    between atoms: O_2  and  C_3
REMARK    3  A    between atoms: C_6  and  N_7
REMARK    4  A    between atoms: C_9  and  C_10
REMARK    5  A    between atoms: C_12  and  C_13
REMARK    6  A    between atoms: C_16  and  N_17
REMARK    7  A    between atoms: N_17  and  S_18
REMARK    8  A    between atoms: S_18  and  C_21
REMARK    9  A    between atoms: C_30  and  C_31
REMARK                            x       y       z     vdW  Elec       q    Type
REMARK                         _______ _______ _______ _____ _____    ______ ____
ROOT
ATOM      1  C   UNL     1       0.435  12.475  19.699  0.00  0.00    +0.000 A 
ATOM      2  C   UNL     1       0.317  13.777  20.202  0.00  0.00    +0.000 A 
ATOM      3  C   UNL     1      -0.427  14.054  21.351  0.00  0.00    +0.000 A 
ATOM      4  C   UNL     1      -1.072  13.040  22.059  0.00  0.00    +0.000 A 
ATOM      5  C   UNL     1      -0.972  11.744  21.529  0.00  0.00    +0.000 A 
ATOM      6  C   UNL     1      -0.239  11.443  20.366  0.00  0.00    +0.000 A 
ENDROOT
BRANCH   4   7
ATOM      7  N   UNL     1      -1.774  13.296  23.211  0.00  0.00    +0.000 N 
ATOM      8  C   UNL     1      -1.491  14.442  24.088  0.00  0.00    +0.000 C 
ATOM      9  C   UNL     1      -2.804  15.244  24.304  0.00  0.00    +0.000 C 
ATOM     10  C   UNL     1      -2.561  16.425  25.238  0.00  0.00    +0.000 C 
ATOM     11  N   UNL     1      -3.901  14.411  24.849  0.00  0.00    +0.000 NA
ATOM     12  C   UNL     1      -4.126  13.230  23.980  0.00  0.00    +0.000 C 
ATOM     13  C   UNL     1      -5.188  12.346  24.630  0.00  0.00    +0.000 C 
ATOM     14  C   UNL     1      -2.833  12.410  23.719  0.00  0.00    +0.000 C 
ATOM     15  H   UNL     1      -4.756  14.965  24.887  0.00  0.00    +0.000 HD
ENDBRANCH   4   7
BRANCH   1  17
ATOM     16  C   UNL     1       2.176  13.488  18.369  0.00  0.00    +0.000 C 
ATOM     17  O   UNL     1       1.271  12.439  18.622  0.00  0.00    +0.000 OA
ENDBRANCH   1  17
BRANCH   6  18
ATOM     18  N   UNL     1      -0.231  10.058  19.994  0.00  0.00    +0.000 N 
ATOM     19  H   UNL     1      -0.000   9.873  19.024  0.00  0.00    +0.000 HD
BRANCH  18  20
ATOM     20  S   UNL     1       0.616   8.963  20.973  0.00  0.00    +0.000 S 
ATOM     21  O   UNL     1       1.547   9.768  21.741  0.00  0.00    +0.000 OA
ATOM     22  O   UNL     1      -0.339   8.115  21.640  0.00  0.00    +0.000 OA
BRANCH  20  23
ATOM     23  C   UNL     1       1.646   7.865  19.988  0.00  0.00    +0.000 A 
ATOM     24  S   UNL     1       1.860   6.301  20.639  0.00  0.00    +0.000 S 
ATOM     25  C   UNL     1       2.783   5.768  19.295  0.00  0.00    +0.000 A 
ATOM     26  C   UNL     1       3.274   4.460  19.089  0.00  0.00    +0.000 A 
ATOM     27  C   UNL     1       4.124   4.214  18.012  0.00  0.00    +0.000 A 
ATOM     28  C   UNL     1       4.467   5.249  17.165  0.00  0.00    +0.000 A 
ATOM     29  F   UNL     1       5.345   5.020  16.178  0.00  0.00    +0.000 F 
ATOM     30  C   UNL     1       3.921   6.530  17.317  0.00  0.00    +0.000 A 
ATOM     31  C   UNL     1       3.032   6.810  18.393  0.00  0.00    +0.000 A 
ATOM     32  C   UNL     1       2.246   7.987  18.740  0.00  0.00    +0.000 A 
ATOM     33  C   UNL     1       2.041   9.193  17.869  0.00  0.00    +0.000 C 
ENDBRANCH  20  23
ENDBRANCH  18  20
ENDBRANCH   6  18
TORSDOF 5
ENDMDL
MODEL 7
REMARK VINA RESULT:      -7.9      3.980      9.527
REMARK  Name = 
REMARK  9 active torsions:
REMARK  status: ('A' for Active; 'I' for Inactive)
REMARK    1  A    between atoms: C_1  and  O_2
REMARK    2  A    between atoms: O_2  and  C_3
REMARK    3  A    between atoms: C_6  and  N_7
REMARK    4  A    between atoms: C_9  and  C_10
REMARK    5  A    between atoms: C_12  and  C_13
REMARK    6  A    between atoms: C_16  and  N_17
REMARK    7  A    between atoms: N_17  and  S_18
REMARK    8  A    between atoms: S_18  and  C_21
REMARK    9  A    between atoms: C_30  and  C_31
REMARK                            x       y       z     vdW  Elec       q    Type
REMARK                         _______ _______ _______ _____ _____    ______ ____
ROOT
ATOM      1  C   UNL     1       0.942   9.504  21.011  0.00  0.00    +0.000 A 
ATOM      2  C   UNL     1       1.303   8.198  21.367  0.00  0.00    +0.000 A 
ATOM      3  C   UNL     1       1.849   7.311  20.437  0.00  0.00    +0.000 A 
ATOM      4  C   UNL     1       2.075   7.694  19.115  0.00  0.00    +0.000 A 
ATOM      5  C   UNL     1       1.682   8.994  18.763  0.00  0.00    +0.000 A 
ATOM      6  C   UNL     1       1.118   9.902  19.679  0.00  0.00    +0.000 A 
ENDROOT
BRANCH   4   7
ATOM      7  N   UNL     1       2.648   6.841  18.202  0.00  0.00    +0.000 N 
ATOM      8  C   UNL     1       3.845   7.185  17.421  0.00  0.00    +0.000 C 
ATOM      9  C   UNL     1       4.909   6.071  17.621  0.00  0.00    +0.000 C 
ATOM     10  C   UNL     1       6.158   6.372  16.798  0.00  0.00    +0.000 C 
ATOM     11  N   UNL     1       4.404   4.725  17.264  0.00  0.00    +0.000 NA
ATOM     12  C   UNL     1       3.163   4.428  18.019  0.00  0.00    +0.000 C 
ATOM     13  C   UNL     1       2.619   3.081  17.546  0.00  0.00    +0.000 C 
ATOM     14  C   UNL     1       2.078   5.527  17.865  0.00  0.00    +0.000 C 
ATOM     15  H   UNL     1       5.112   4.029  17.496  0.00  0.00    +0.000 HD
ENDBRANCH   4   7
BRANCH   1  17
ATOM     16  C   UNL     1      -0.328   9.610  23.062  0.00  0.00    +0.000 C 
ATOM     17  O   UNL     1       0.508  10.206  22.098  0.00  0.00    +0.000 OA
ENDBRANCH   1  17
BRANCH   6  18
ATOM     18  N   UNL     1       0.805  11.194  19.141  0.00  0.00    +0.000 N 
ATOM     19  H   UNL     1       1.276  11.424  18.272  0.00  0.00    +0.000 HD
BRANCH  18  20
ATOM     20  S   UNL     1      -0.824  11.645  19.014  0.00  0.00    +0.000 S 
ATOM     21  O   UNL     1      -0.886  12.566  17.896  0.00  0.00    +0.000 OA
ATOM     22  O   UNL     1      -1.630  10.450  19.021  0.00  0.00    +0.000 OA
BRANCH  20  23
ATOM     23  C   UNL     1      -1.352  12.603  20.442  0.00  0.00    +0.000 A 
ATOM     24  S   UNL     1      -0.086  13.310  21.343  0.00  0.00    +0.000 S 
ATOM     25  C   UNL     1      -1.166  14.093  22.421  0.00  0.00    +0.000 A 
ATOM     26  C   UNL     1      -0.809  14.982  23.459  0.00  0.00    +0.000 A 
ATOM     27  C   UNL     1      -1.793  15.434  24.337  0.00  0.00    +0.000 A 
ATOM     28  C   UNL     1      -3.097  15.010  24.173  0.00  0.00    +0.000 A 
ATOM     29  F   UNL     1      -4.022  15.389  25.068  0.00  0.00    +0.000 F 
ATOM     30  C   UNL     1      -3.472  14.194  23.100  0.00  0.00    +0.000 A 
ATOM     31  C   UNL     1      -2.497  13.732  22.172  0.00  0.00    +0.000 A 
ATOM     32  C   UNL     1      -2.599  12.976  20.930  0.00  0.00    +0.000 A 
ATOM     33  C   UNL     1      -3.872  12.652  20.202  0.00  0.00    +0.000 C 
ENDBRANCH  20  23
ENDBRANCH  18  20
ENDBRANCH   6  18
TORSDOF 5
ENDMDL
MODEL 8
REMARK VINA RESULT:      -7.9      4.123      9.528
REMARK  Name = 
REMARK  9 active torsions:
REMARK  status: ('A' for Active; 'I' for Inactive)
REMARK    1  A    between atoms: C_1  and  O_2
REMARK    2  A    between atoms: O_2  and  C_3
REMARK    3  A    between atoms: C_6  and  N_7
REMARK    4  A    between atoms: C_9  and  C_10
REMARK    5  A    between atoms: C_12  and  C_13
REMARK    6  A    between atoms: C_16  and  N_17
REMARK    7  A    between atoms: N_17  and  S_18
REMARK    8  A    between atoms: S_18  and  C_21
REMARK    9  A    between atoms: C_30  and  C_31
REMARK                            x       y       z     vdW  Elec       q    Type
REMARK                         _______ _______ _______ _____ _____    ______ ____
ROOT
ATOM      1  C   UNL     1       1.153   9.216  18.880  0.00  0.00    +0.000 A 
ATOM      2  C   UNL     1       2.072   8.888  17.875  0.00  0.00    +0.000 A 
ATOM      3  C   UNL     1       2.884   7.756  17.968  0.00  0.00    +0.000 A 
ATOM      4  C   UNL     1       2.803   6.892  19.059  0.00  0.00    +0.000 A 
ATOM      5  C   UNL     1       1.900   7.246  20.073  0.00  0.00    +0.000 A 
ATOM      6  C   UNL     1       1.080   8.388  20.008  0.00  0.00    +0.000 A 
ENDROOT
BRANCH   4   7
ATOM      7  N   UNL     1       3.570   5.755  19.141  0.00  0.00    +0.000 N 
ATOM      8  C   UNL     1       3.006   4.421  19.394  0.00  0.00    +0.000 C 
ATOM      9  C   UNL     1       3.488   3.454  18.277  0.00  0.00    +0.000 C 
ATOM     10  C   UNL     1       2.953   2.047  18.521  0.00  0.00    +0.000 C 
ATOM     11  N   UNL     1       4.964   3.400  18.163  0.00  0.00    +0.000 NA
ATOM     12  C   UNL     1       5.512   4.764  17.970  0.00  0.00    +0.000 C 
ATOM     13  C   UNL     1       7.037   4.677  17.963  0.00  0.00    +0.000 C 
ATOM     14  C   UNL     1       5.039   5.770  19.054  0.00  0.00    +0.000 C 
ATOM     15  H   UNL     1       5.218   2.821  17.362  0.00  0.00    +0.000 HD
ENDBRANCH   4   7
BRANCH   1  17
ATOM     16  C   UNL     1      -0.956  10.207  18.249  0.00  0.00    +0.000 C 
ATOM     17  O   UNL     1       0.419  10.313  18.534  0.00  0.00    +0.000 OA
ENDBRANCH   1  17
BRANCH   6  18
ATOM     18  N   UNL     1       0.202   8.571  21.127  0.00  0.00    +0.000 N 
ATOM     19  H   UNL     1      -0.082   7.717  21.596  0.00  0.00    +0.000 HD
BRANCH  18  20
ATOM     20  S   UNL     1       0.613   9.724  22.299  0.00  0.00    +0.000 S 
ATOM     21  O   UNL     1       0.010   9.257  23.532  0.00  0.00    +0.000 OA
ATOM     22  O   UNL     1       2.032   9.964  22.225  0.00  0.00    +0.000 OA
BRANCH  20  23
ATOM     23  C   UNL     1      -0.171  11.308  21.963  0.00  0.00    +0.000 A 
ATOM     24  S   UNL     1      -1.635  11.579  22.798  0.00  0.00    +0.000 S 
ATOM     25  C   UNL     1      -1.810  13.163  22.166  0.00  0.00    +0.000 A 
ATOM     26  C   UNL     1      -2.826  14.086  22.501  0.00  0.00    +0.000 A 
ATOM     27  C   UNL     1      -2.911  15.289  21.800  0.00  0.00    +0.000 A 
ATOM     28  C   UNL     1      -2.000  15.558  20.798  0.00  0.00    +0.000 A 
ATOM     29  F   UNL     1      -2.137  16.682  20.078  0.00  0.00    +0.000 F 
ATOM     30  C   UNL     1      -0.944  14.684  20.514  0.00  0.00    +0.000 A 
ATOM     31  C   UNL     1      -0.814  13.457  21.225  0.00  0.00    +0.000 A 
ATOM     32  C   UNL     1       0.211  12.422  21.224  0.00  0.00    +0.000 A 
ATOM     33  C   UNL     1       1.553  12.517  20.557  0.00  0.00    +0.000 C 
ENDBRANCH  20  23
ENDBRANCH  18  20
ENDBRANCH   6  18
TORSDOF 5
ENDMDL
MODEL 9
REMARK VINA RESULT:      -7.9      1.247      1.715
REMARK  Name = 
REMARK  9 active torsions:
REMARK  status: ('A' for Active; 'I' for Inactive)
REMARK    1  A    between atoms: C_1  and  O_2
REMARK    2  A    between atoms: O_2  and  C_3
REMARK    3  A    between atoms: C_6  and  N_7
REMARK    4  A    between atoms: C_9  and  C_10
REMARK    5  A    between atoms: C_12  and  C_13
REMARK    6  A    between atoms: C_16  and  N_17
REMARK    7  A    between atoms: N_17  and  S_18
REMARK    8  A    between atoms: S_18  and  C_21
REMARK    9  A    between atoms: C_30  and  C_31
REMARK                            x       y       z     vdW  Elec       q    Type
REMARK                         _______ _______ _______ _____ _____    ______ ____
ROOT
ATOM      1  C   UNL     1      -2.820  10.678  17.366  0.00  0.00    +0.000 A 
ATOM      2  C   UNL     1      -4.114  11.139  17.637  0.00  0.00    +0.000 A 
ATOM      3  C   UNL     1      -4.391  11.930  18.754  0.00  0.00    +0.000 A 
ATOM      4  C   UNL     1      -3.384  12.310  19.641  0.00  0.00    +0.000 A 
ATOM      5  C   UNL     1      -2.097  11.818  19.376  0.00  0.00    +0.000 A 
ATOM      6  C   UNL     1      -1.796  11.010  18.264  0.00  0.00    +0.000 A 
ENDROOT
BRANCH   4   7
ATOM      7  N   UNL     1      -3.639  13.120  20.721  0.00  0.00    +0.000 N 
ATOM      8  C   UNL     1      -4.483  12.709  21.852  0.00  0.00    +0.000 C 
ATOM      9  C   UNL     1      -3.684  12.903  23.170  0.00  0.00    +0.000 C 
ATOM     10  C   UNL     1      -4.538  12.520  24.375  0.00  0.00    +0.000 C 
ATOM     11  N   UNL     1      -3.193  14.290  23.344  0.00  0.00    +0.000 NA
ATOM     12  C   UNL     1      -2.396  14.702  22.162  0.00  0.00    +0.000 C 
ATOM     13  C   UNL     1      -1.999  16.166  22.333  0.00  0.00    +0.000 C 
ATOM     14  C   UNL     1      -3.150  14.504  20.820  0.00  0.00    +0.000 C 
ATOM     15  H   UNL     1      -2.605  14.336  24.176  0.00  0.00    +0.000 HD
ENDBRANCH   4   7
BRANCH   1  17
ATOM     16  C   UNL     1      -3.374  10.522  15.022  0.00  0.00    +0.000 C 
ATOM     17  O   UNL     1      -2.779   9.997  16.185  0.00  0.00    +0.000 OA
ENDBRANCH   1  17
BRANCH   6  18
ATOM     18  N   UNL     1      -0.419  10.627  18.146  0.00  0.00    +0.000 N 
ATOM     19  H   UNL     1       0.172  11.289  17.654  0.00  0.00    +0.000 HD
BRANCH  18  20
ATOM     20  S   UNL     1       0.395  10.096  19.535  0.00  0.00    +0.000 S 
ATOM     21  O   UNL     1       1.252  11.198  19.927  0.00  0.00    +0.000 OA
ATOM     22  O   UNL     1      -0.575   9.562  20.456  0.00  0.00    +0.000 OA
BRANCH  20  23
ATOM     23  C   UNL     1       1.516   8.740  19.159  0.00  0.00    +0.000 A 
ATOM     24  S   UNL     1       2.333   8.873  17.667  0.00  0.00    +0.000 S 
ATOM     25  C   UNL     1       3.236   7.437  17.927  0.00  0.00    +0.000 A 
ATOM     26  C   UNL     1       4.245   6.923  17.084  0.00  0.00    +0.000 A 
ATOM     27  C   UNL     1       4.794   5.673  17.364  0.00  0.00    +0.000 A 
ATOM     28  C   UNL     1       4.347   4.963  18.461  0.00  0.00    +0.000 A 
ATOM     29  F   UNL     1       4.827   3.730  18.678  0.00  0.00    +0.000 F 
ATOM     30  C   UNL     1       3.405   5.502  19.346  0.00  0.00    +0.000 A 
ATOM     31  C   UNL     1       2.839   6.785  19.102  0.00  0.00    +0.000 A 
ATOM     32  C   UNL     1       1.939   7.627  19.878  0.00  0.00    +0.000 A 
ATOM     33  C   UNL     1       1.522   7.390  21.301  0.00  0.00    +0.000 C 
ENDBRANCH  20  23
ENDBRANCH  18  20
ENDBRANCH   6  18
TORSDOF 5
ENDMDL
