MODEL 1
REMARK VINA RESULT:      -8.6      0.000      0.000
REMARK  Name = 
REMARK  8 active torsions:
REMARK  status: ('A' for Active; 'I' for Inactive)
REMARK    1  A    between atoms: C_1  and  C_2
REMARK    2  A    between atoms: C_2  and  C_3
REMARK    3  A    between atoms: C_9  and  C_10
REMARK    4  A    between atoms: C_10  and  O_11
REMARK    5  A    between atoms: O_11  and  C_12
REMARK    6  A    between atoms: N_19  and  C_20
REMARK    7  A    between atoms: C_30  and  O_31
REMARK    8  A    between atoms: O_31  and  C_32
REMARK                            x       y       z     vdW  Elec       q    Type
REMARK                         _______ _______ _______ _____ _____    ______ ____
ROOT
ATOM      1  C   UNL     1       2.976   5.584  18.972  0.00  0.00    +0.000 A 
ATOM      2  C   UNL     1       2.930   6.705  18.109  0.00  0.00    +0.000 A 
ATOM      3  C   UNL     1       2.324   7.918  18.441  0.00  0.00    +0.000 A 
ATOM      4  N   UNL     1       2.294   8.926  17.558  0.00  0.00    +0.000 NA
ATOM      5  C   UNL     1       1.688  10.056  17.944  0.00  0.00    +0.000 A 
ATOM      6  N   UNL     1       1.137  10.287  19.139  0.00  0.00    +0.000 NA
ATOM      7  C   UNL     1       1.180   9.281  20.028  0.00  0.00    +0.000 A 
ATOM      8  N   UNL     1       0.654   9.468  21.341  0.00  0.00    +0.000 N 
ATOM      9  C   UNL     1       1.751   8.033  19.707  0.00  0.00    +0.000 A 
ATOM     10  C   UNL     1       1.765   6.915  20.570  0.00  0.00    +0.000 A 
ATOM     11  C   UNL     1       2.378   5.697  20.236  0.00  0.00    +0.000 A 
ATOM     12  H   UNL     1       1.348   9.139  22.007  0.00  0.00    +0.000 HD
ENDROOT
BRANCH   8  13
ATOM     13  C   UNL     1      -0.052  10.575  21.861  0.00  0.00    +0.000 A 
ATOM     14  C   UNL     1      -1.024  10.455  22.858  0.00  0.00    +0.000 A 
ATOM     15  C   UNL     1      -1.706  11.574  23.343  0.00  0.00    +0.000 A 
ATOM     16  C   UNL     1      -1.392  12.846  22.867  0.00  0.00    +0.000 A 
ATOM     17 CL   UNL     1      -2.302  14.182  23.473  0.00  0.00    +0.000 Cl
ATOM     18  C   UNL     1      -0.366  12.996  21.932  0.00  0.00    +0.000 A 
ATOM     19 CL   UNL     1       0.122  14.542  21.331  0.00  0.00    +0.000 Cl
ATOM     20  C   UNL     1       0.308  11.867  21.447  0.00  0.00    +0.000 A 
ENDBRANCH   8  13
BRANCH  11  21
ATOM     21  O   UNL     1       2.109   4.766  21.201  0.00  0.00    +0.000 OA
ATOM     22  C   UNL     1       1.405   3.570  20.910  0.00  0.00    +0.000 C 
ENDBRANCH  11  21
BRANCH   1  23
ATOM     23  O   UNL     1       3.584   4.508  18.357  0.00  0.00    +0.000 OA
BRANCH  23  24
ATOM     24  C   UNL     1       4.211   4.775  17.121  0.00  0.00    +0.000 C 
BRANCH  24  31
ATOM     25  C   UNL     1       7.217   6.391  17.800  0.00  0.00    +0.000 C 
ATOM     26  O   UNL     1       7.228   6.111  18.998  0.00  0.00    +0.000 OA
ATOM     27  N   UNL     1       7.131   5.395  16.830  0.00  0.00    +0.000 N 
ATOM     28  C   UNL     1       7.182   5.565  15.374  0.00  0.00    +0.000 C 
ATOM     29  C   UNL     1       5.872   5.117  14.703  0.00  0.00    +0.000 C 
ATOM     30  O   UNL     1       5.393   3.849  15.205  0.00  0.00    +0.000 OA
ATOM     31  C   UNL     1       5.306   3.806  16.659  0.00  0.00    +0.000 C 
ATOM     32  C   UNL     1       6.689   4.071  17.254  0.00  0.00    +0.000 C 
BRANCH  25  34
ATOM     33  C   UNL     1       8.317   8.613  18.099  0.00  0.00    +0.000 C 
ATOM     34  C   UNL     1       7.270   7.823  17.322  0.00  0.00    +0.000 C 
ENDBRANCH  25  34
ENDBRANCH  24  31
ENDBRANCH  23  24
ENDBRANCH   1  23
TORSDOF 6
ENDMDL
MODEL 2
REMARK VINA RESULT:      -8.2      0.729      1.301
REMARK  Name = 
REMARK  8 active torsions:
REMARK  status: ('A' for Active; 'I' for Inactive)
REMARK    1  A    between atoms: C_1  and  C_2
REMARK    2  A    between atoms: C_2  and  C_3
REMARK    3  A    between atoms: C_9  and  C_10
REMARK    4  A    between atoms: C_10  and  O_11
REMARK    5  A    between atoms: O_11  and  C_12
REMARK    6  A    between atoms: N_19  and  C_20
REMARK    7  A    between atoms: C_30  and  O_31
REMARK    8  A    between atoms: O_31  and  C_32
REMARK                            x       y       z     vdW  Elec       q    Type
REMARK                         _______ _______ _______ _____ _____    ______ ____
ROOT
ATOM      1  C   UNL     1       2.731   5.986  19.020  0.00  0.00    +0.000 A 
ATOM      2  C   UNL     1       2.758   7.086  18.130  0.00  0.00    +0.000 A 
ATOM      3  C   UNL     1       2.228   8.343  18.429  0.00  0.00    +0.000 A 
ATOM      4  N   UNL     1       2.265   9.328  17.522  0.00  0.00    +0.000 NA
ATOM      5  C   UNL     1       1.729  10.503  17.876  0.00  0.00    +0.000 A 
ATOM      6  N   UNL     1       1.189  10.797  19.062  0.00  0.00    +0.000 NA
ATOM      7  C   UNL     1       1.166   9.813  19.976  0.00  0.00    +0.000 A 
ATOM      8  N   UNL     1       0.649  10.065  21.282  0.00  0.00    +0.000 N 
ATOM      9  C   UNL     1       1.660   8.524  19.689  0.00  0.00    +0.000 A 
ATOM     10  C   UNL     1       1.600   7.429  20.579  0.00  0.00    +0.000 A 
ATOM     11  C   UNL     1       2.136   6.168  20.278  0.00  0.00    +0.000 A 
ATOM     12  H   UNL     1       1.318   9.710  21.959  0.00  0.00    +0.000 HD
ENDROOT
BRANCH   8  13
ATOM     13  C   UNL     1       0.011  11.226  21.771  0.00  0.00    +0.000 A 
ATOM     14  C   UNL     1       0.466  12.518  21.491  0.00  0.00    +0.000 A 
ATOM     15  C   UNL     1      -0.190  13.643  21.998  0.00  0.00    +0.000 A 
ATOM     16  C   UNL     1      -1.347  13.493  22.762  0.00  0.00    +0.000 A 
ATOM     17 CL   UNL     1      -2.084  14.919  23.397  0.00  0.00    +0.000 Cl
ATOM     18  C   UNL     1      -1.865  12.215  22.983  0.00  0.00    +0.000 A 
ATOM     19 CL   UNL     1      -3.323  11.947  23.873  0.00  0.00    +0.000 Cl
ATOM     20  C   UNL     1      -1.196  11.094  22.475  0.00  0.00    +0.000 A 
ENDBRANCH   8  13
BRANCH  11  21
ATOM     21  O   UNL     1       1.806   5.279  21.264  0.00  0.00    +0.000 OA
ATOM     22  C   UNL     1       2.077   3.893  21.142  0.00  0.00    +0.000 C 
ENDBRANCH  11  21
BRANCH   1  23
ATOM     23  O   UNL     1       3.272   4.860  18.435  0.00  0.00    +0.000 OA
BRANCH  23  24
ATOM     24  C   UNL     1       4.089   5.081  17.306  0.00  0.00    +0.000 C 
BRANCH  24  31
ATOM     25  C   UNL     1       7.306   6.281  17.868  0.00  0.00    +0.000 C 
ATOM     26  O   UNL     1       7.301   6.057  19.077  0.00  0.00    +0.000 OA
ATOM     27  N   UNL     1       7.062   5.265  16.948  0.00  0.00    +0.000 N 
ATOM     28  C   UNL     1       7.108   5.359  15.485  0.00  0.00    +0.000 C 
ATOM     29  C   UNL     1       5.735   5.072  14.853  0.00  0.00    +0.000 C 
ATOM     30  O   UNL     1       5.091   3.909  15.421  0.00  0.00    +0.000 OA
ATOM     31  C   UNL     1       5.027   3.945  16.877  0.00  0.00    +0.000 C 
ATOM     32  C   UNL     1       6.444   4.037  17.441  0.00  0.00    +0.000 C 
BRANCH  25  34
ATOM     33  C   UNL     1       8.348   8.506  18.316  0.00  0.00    +0.000 C 
ATOM     34  C   UNL     1       7.553   7.668  17.322  0.00  0.00    +0.000 C 
ENDBRANCH  25  34
ENDBRANCH  24  31
ENDBRANCH  23  24
ENDBRANCH   1  23
TORSDOF 6
ENDMDL
MODEL 3
REMARK VINA RESULT:      -8.1      2.608      4.693
REMARK  Name = 
REMARK  8 active torsions:
REMARK  status: ('A' for Active; 'I' for Inactive)
REMARK    1  A    between atoms: C_1  and  C_2
REMARK    2  A    between atoms: C_2  and  C_3
REMARK    3  A    between atoms: C_9  and  C_10
REMARK    4  A    between atoms: C_10  and  O_11
REMARK    5  A    between atoms: O_11  and  C_12
REMARK    6  A    between atoms: N_19  and  C_20
REMARK    7  A    between atoms: C_30  and  O_31
REMARK    8  A    between atoms: O_31  and  C_32
REMARK                            x       y       z     vdW  Elec       q    Type
REMARK                         _______ _______ _______ _____ _____    ______ ____
ROOT
ATOM      1  C   UNL     1       2.160   9.024  18.359  0.00  0.00    +0.000 A 
ATOM      2  C   UNL     1       1.629   8.327  19.470  0.00  0.00    +0.000 A 
ATOM      3  C   UNL     1       0.854   8.925  20.466  0.00  0.00    +0.000 A 
ATOM      4  N   UNL     1       0.411   8.205  21.506  0.00  0.00    +0.000 NA
ATOM      5  C   UNL     1      -0.318   8.848  22.426  0.00  0.00    +0.000 A 
ATOM      6  N   UNL     1      -0.676  10.135  22.390  0.00  0.00    +0.000 NA
ATOM      7  C   UNL     1      -0.244  10.852  21.340  0.00  0.00    +0.000 A 
ATOM      8  N   UNL     1      -0.625  12.221  21.207  0.00  0.00    +0.000 N 
ATOM      9  C   UNL     1       0.571  10.284  20.340  0.00  0.00    +0.000 A 
ATOM     10  C   UNL     1       1.115  11.000  19.250  0.00  0.00    +0.000 A 
ATOM     11  C   UNL     1       1.891  10.396  18.249  0.00  0.00    +0.000 A 
ATOM     12  H   UNL     1      -0.961  12.363  20.258  0.00  0.00    +0.000 HD
ENDROOT
BRANCH   8  13
ATOM     13  C   UNL     1      -1.337  13.033  22.117  0.00  0.00    +0.000 A 
ATOM     14  C   UNL     1      -0.708  13.891  23.023  0.00  0.00    +0.000 A 
ATOM     15  C   UNL     1      -1.448  14.675  23.912  0.00  0.00    +0.000 A 
ATOM     16  C   UNL     1      -2.841  14.646  23.877  0.00  0.00    +0.000 A 
ATOM     17 CL   UNL     1      -3.697  15.603  25.032  0.00  0.00    +0.000 Cl
ATOM     18  C   UNL     1      -3.489  13.859  22.923  0.00  0.00    +0.000 A 
ATOM     19 CL   UNL     1      -5.212  13.808  22.778  0.00  0.00    +0.000 Cl
ATOM     20  C   UNL     1      -2.738  13.071  22.041  0.00  0.00    +0.000 A 
ENDBRANCH   8  13
BRANCH  11  21
ATOM     21  O   UNL     1       2.391  11.356  17.412  0.00  0.00    +0.000 OA
ATOM     22  C   UNL     1       2.715  12.656  17.875  0.00  0.00    +0.000 C 
ENDBRANCH  11  21
BRANCH   1  23
ATOM     23  O   UNL     1       2.932   8.192  17.574  0.00  0.00    +0.000 OA
BRANCH  23  24
ATOM     24  C   UNL     1       3.228   6.924  18.120  0.00  0.00    +0.000 C 
BRANCH  24  31
ATOM     25  C   UNL     1       2.057   3.654  18.332  0.00  0.00    +0.000 C 
ATOM     26  O   UNL     1       1.252   3.762  17.409  0.00  0.00    +0.000 OA
ATOM     27  N   UNL     1       3.409   3.930  18.143  0.00  0.00    +0.000 N 
ATOM     28  C   UNL     1       4.493   3.778  19.119  0.00  0.00    +0.000 C 
ATOM     29  C   UNL     1       5.158   5.125  19.446  0.00  0.00    +0.000 C 
ATOM     30  O   UNL     1       5.437   5.911  18.266  0.00  0.00    +0.000 OA
ATOM     31  C   UNL     1       4.277   6.069  17.398  0.00  0.00    +0.000 C 
ATOM     32  C   UNL     1       3.787   4.691  16.956  0.00  0.00    +0.000 C 
BRANCH  25  34
ATOM     33  C   UNL     1       1.180   4.458  20.528  0.00  0.00    +0.000 C 
ATOM     34  C   UNL     1       1.620   3.244  19.719  0.00  0.00    +0.000 C 
ENDBRANCH  25  34
ENDBRANCH  24  31
ENDBRANCH  23  24
ENDBRANCH   1  23
TORSDOF 6
ENDMDL
MODEL 4
REMARK VINA RESULT:      -8.1      5.533     11.157
REMARK  Name = 
REMARK  8 active torsions:
REMARK  status: ('A' for Active; 'I' for Inactive)
REMARK    1  A    between atoms: C_1  and  C_2
REMARK    2  A    between atoms: C_2  and  C_3
REMARK    3  A    between atoms: C_9  and  C_10
REMARK    4  A    between atoms: C_10  and  O_11
REMARK    5  A    between atoms: O_11  and  C_12
REMARK    6  A    between atoms: N_19  and  C_20
REMARK    7  A    between atoms: C_30  and  O_31
REMARK    8  A    between atoms: O_31  and  C_32
REMARK                            x       y       z     vdW  Elec       q    Type
REMARK                         _______ _______ _______ _____ _____    ______ ____
ROOT
ATOM      1  C   UNL     1      -1.920  12.358  20.192  0.00  0.00    +0.000 A 
ATOM      2  C   UNL     1      -1.379  11.835  21.390  0.00  0.00    +0.000 A 
ATOM      3  C   UNL     1      -0.449  10.794  21.436  0.00  0.00    +0.000 A 
ATOM      4  N   UNL     1      -0.005  10.332  22.612  0.00  0.00    +0.000 NA
ATOM      5  C   UNL     1       0.878   9.326  22.577  0.00  0.00    +0.000 A 
ATOM      6  N   UNL     1       1.385   8.759  21.478  0.00  0.00    +0.000 NA
ATOM      7  C   UNL     1       0.950   9.234  20.299  0.00  0.00    +0.000 A 
ATOM      8  N   UNL     1       1.481   8.712  19.081  0.00  0.00    +0.000 N 
ATOM      9  C   UNL     1      -0.016  10.258  20.224  0.00  0.00    +0.000 A 
ATOM     10  C   UNL     1      -0.565  10.751  19.020  0.00  0.00    +0.000 A 
ATOM     11  C   UNL     1      -1.497  11.799  18.976  0.00  0.00    +0.000 A 
ATOM     12  H   UNL     1       1.744   9.497  18.492  0.00  0.00    +0.000 HD
ENDROOT
BRANCH   8  13
ATOM     13  C   UNL     1       2.367   7.628  18.896  0.00  0.00    +0.000 A 
ATOM     14  C   UNL     1       2.384   6.510  19.735  0.00  0.00    +0.000 A 
ATOM     15  C   UNL     1       3.281   5.459  19.521  0.00  0.00    +0.000 A 
ATOM     16  C   UNL     1       4.148   5.489  18.431  0.00  0.00    +0.000 A 
ATOM     17 CL   UNL     1       5.261   4.183  18.249  0.00  0.00    +0.000 Cl
ATOM     18  C   UNL     1       4.088   6.558  17.534  0.00  0.00    +0.000 A 
ATOM     19 CL   UNL     1       5.092   6.646  16.128  0.00  0.00    +0.000 Cl
ATOM     20  C   UNL     1       3.191   7.610  17.760  0.00  0.00    +0.000 A 
ENDBRANCH   8  13
BRANCH  11  21
ATOM     21  O   UNL     1      -1.950  11.961  17.696  0.00  0.00    +0.000 OA
ATOM     22  C   UNL     1      -2.832  11.029  17.092  0.00  0.00    +0.000 C 
ENDBRANCH  11  21
BRANCH   1  23
ATOM     23  O   UNL     1      -2.856  13.337  20.456  0.00  0.00    +0.000 OA
BRANCH  23  24
ATOM     24  C   UNL     1      -3.559  13.210  21.672  0.00  0.00    +0.000 C 
BRANCH  24  31
ATOM     25  C   UNL     1      -6.221  12.817  23.879  0.00  0.00    +0.000 C 
ATOM     26  O   UNL     1      -5.698  11.912  24.527  0.00  0.00    +0.000 OA
ATOM     27  N   UNL     1      -5.586  14.046  23.720  0.00  0.00    +0.000 N 
ATOM     28  C   UNL     1      -6.111  15.237  23.043  0.00  0.00    +0.000 C 
ATOM     29  C   UNL     1      -5.258  15.621  21.823  0.00  0.00    +0.000 C 
ATOM     30  O   UNL     1      -3.840  15.590  22.101  0.00  0.00    +0.000 OA
ATOM     31  C   UNL     1      -3.403  14.336  22.702  0.00  0.00    +0.000 C 
ATOM     32  C   UNL     1      -4.158  14.116  24.012  0.00  0.00    +0.000 C 
BRANCH  25  34
ATOM     33  C   UNL     1      -7.391  11.998  21.831  0.00  0.00    +0.000 C 
ATOM     34  C   UNL     1      -7.560  12.634  23.205  0.00  0.00    +0.000 C 
ENDBRANCH  25  34
ENDBRANCH  24  31
ENDBRANCH  23  24
ENDBRANCH   1  23
TORSDOF 6
ENDMDL
MODEL 5
REMARK VINA RESULT:      -7.9      2.806      4.875
REMARK  Name = 
REMARK  8 active torsions:
REMARK  status: ('A' for Active; 'I' for Inactive)
REMARK    1  A    between atoms: C_1  and  C_2
REMARK    2  A    between atoms: C_2  and  C_3
REMARK    3  A    between atoms: C_9  and  C_10
REMARK    4  A    between atoms: C_10  and  O_11
REMARK    5  A    between atoms: O_11  and  C_12
REMARK    6  A    between atoms: N_19  and  C_20
REMARK    7  A    between atoms: C_30  and  O_31
REMARK    8  A    between atoms: O_31  and  C_32
REMARK                            x       y       z     vdW  Elec       q    Type
REMARK                         _______ _______ _______ _____ _____    ______ ____
ROOT
ATOM      1  C   UNL     1       2.335   6.916  18.945  0.00  0.00    +0.000 A 
ATOM      2  C   UNL     1       1.716   7.376  20.132  0.00  0.00    +0.000 A 
ATOM      3  C   UNL     1       1.353   8.705  20.356  0.00  0.00    +0.000 A 
ATOM      4  N   UNL     1       0.797   9.070  21.519  0.00  0.00    +0.000 NA
ATOM      5  C   UNL     1       0.483  10.364  21.665  0.00  0.00    +0.000 A 
ATOM      6  N   UNL     1       0.642  11.322  20.747  0.00  0.00    +0.000 NA
ATOM      7  C   UNL     1       1.185  10.952  19.576  0.00  0.00    +0.000 A 
ATOM      8  N   UNL     1       1.342  11.909  18.529  0.00  0.00    +0.000 N 
ATOM      9  C   UNL     1       1.596   9.625  19.337  0.00  0.00    +0.000 A 
ATOM     10  C   UNL     1       2.237   9.187  18.157  0.00  0.00    +0.000 A 
ATOM     11  C   UNL     1       2.599   7.850  17.933  0.00  0.00    +0.000 A 
ATOM     12  H   UNL     1       0.975  11.502  17.673  0.00  0.00    +0.000 HD
ENDROOT
BRANCH   8  13
ATOM     13  C   UNL     1       1.108  13.301  18.562  0.00  0.00    +0.000 A 
ATOM     14  C   UNL     1      -0.171  13.853  18.681  0.00  0.00    +0.000 A 
ATOM     15  C   UNL     1      -0.362  15.237  18.705  0.00  0.00    +0.000 A 
ATOM     16  C   UNL     1       0.734  16.097  18.654  0.00  0.00    +0.000 A 
ATOM     17 CL   UNL     1       0.427  17.795  18.641  0.00  0.00    +0.000 Cl
ATOM     18  C   UNL     1       2.024  15.564  18.619  0.00  0.00    +0.000 A 
ATOM     19 CL   UNL     1       3.438  16.560  18.610  0.00  0.00    +0.000 Cl
ATOM     20  C   UNL     1       2.205  14.175  18.590  0.00  0.00    +0.000 A 
ENDBRANCH   8  13
BRANCH  11  21
ATOM     21  O   UNL     1       3.322   7.755  16.776  0.00  0.00    +0.000 OA
ATOM     22  C   UNL     1       4.651   7.261  16.764  0.00  0.00    +0.000 C 
ENDBRANCH  11  21
BRANCH   1  23
ATOM     23  O   UNL     1       2.632   5.571  19.030  0.00  0.00    +0.000 OA
BRANCH  23  24
ATOM     24  C   UNL     1       3.907   5.249  19.543  0.00  0.00    +0.000 C 
BRANCH  24  31
ATOM     25  C   UNL     1       1.774   2.991  17.973  0.00  0.00    +0.000 C 
ATOM     26  O   UNL     1       1.405   3.773  17.098  0.00  0.00    +0.000 OA
ATOM     27  N   UNL     1       3.124   2.705  18.159  0.00  0.00    +0.000 N 
ATOM     28  C   UNL     1       3.708   1.746  19.103  0.00  0.00    +0.000 C 
ATOM     29  C   UNL     1       4.610   2.443  20.137  0.00  0.00    +0.000 C 
ATOM     30  O   UNL     1       5.502   3.409  19.539  0.00  0.00    +0.000 OA
ATOM     31  C   UNL     1       4.815   4.365  18.679  0.00  0.00    +0.000 C 
ATOM     32  C   UNL     1       4.099   3.611  17.559  0.00  0.00    +0.000 C 
BRANCH  25  34
ATOM     33  C   UNL     1       0.675   3.095  20.213  0.00  0.00    +0.000 C 
ATOM     34  C   UNL     1       0.788   2.324  18.903  0.00  0.00    +0.000 C 
ENDBRANCH  25  34
ENDBRANCH  24  31
ENDBRANCH  23  24
ENDBRANCH   1  23
TORSDOF 6
ENDMDL
MODEL 6
REMARK VINA RESULT:      -7.9      5.835     10.983
REMARK  Name = 
REMARK  8 active torsions:
REMARK  status: ('A' for Active; 'I' for Inactive)
REMARK    1  A    between atoms: C_1  and  C_2
REMARK    2  A    between atoms: C_2  and  C_3
REMARK    3  A    between atoms: C_9  and  C_10
REMARK    4  A    between atoms: C_10  and  O_11
REMARK    5  A    between atoms: O_11  and  C_12
REMARK    6  A    between atoms: N_19  and  C_20
REMARK    7  A    between atoms: C_30  and  O_31
REMARK    8  A    between atoms: O_31  and  C_32
REMARK                            x       y       z     vdW  Elec       q    Type
REMARK                         _______ _______ _______ _____ _____    ______ ____
ROOT
ATOM      1  C   UNL     1      -2.120  12.344  20.892  0.00  0.00    +0.000 A 
ATOM      2  C   UNL     1      -1.506  11.797  22.044  0.00  0.00    +0.000 A 
ATOM      3  C   UNL     1      -0.562  10.769  22.010  0.00  0.00    +0.000 A 
ATOM      4  N   UNL     1      -0.047  10.282  23.146  0.00  0.00    +0.000 NA
ATOM      5  C   UNL     1       0.846   9.290  23.035  0.00  0.00    +0.000 A 
ATOM      6  N   UNL     1       1.298   8.760  21.894  0.00  0.00    +0.000 NA
ATOM      7  C   UNL     1       0.791   9.259  20.755  0.00  0.00    +0.000 A 
ATOM      8  N   UNL     1       1.260   8.778  19.496  0.00  0.00    +0.000 N 
ATOM      9  C   UNL     1      -0.190  10.271  20.762  0.00  0.00    +0.000 A 
ATOM     10  C   UNL     1      -0.813  10.788  19.603  0.00  0.00    +0.000 A 
ATOM     11  C   UNL     1      -1.759  11.824  19.640  0.00  0.00    +0.000 A 
ATOM     12  H   UNL     1       1.479   9.582  18.914  0.00  0.00    +0.000 HD
ENDROOT
BRANCH   8  13
ATOM     13  C   UNL     1       2.147   7.712  19.232  0.00  0.00    +0.000 A 
ATOM     14  C   UNL     1       2.217   6.567  20.030  0.00  0.00    +0.000 A 
ATOM     15  C   UNL     1       3.113   5.535  19.739  0.00  0.00    +0.000 A 
ATOM     16  C   UNL     1       3.928   5.612  18.610  0.00  0.00    +0.000 A 
ATOM     17 CL   UNL     1       5.046   4.327  18.332  0.00  0.00    +0.000 Cl
ATOM     18  C   UNL     1       3.814   6.710  17.755  0.00  0.00    +0.000 A 
ATOM     19 CL   UNL     1       4.749   6.858  16.307  0.00  0.00    +0.000 Cl
ATOM     20  C   UNL     1       2.917   7.743  18.059  0.00  0.00    +0.000 A 
ENDBRANCH   8  13
BRANCH  11  21
ATOM     21  O   UNL     1      -2.285  12.012  18.392  0.00  0.00    +0.000 OA
ATOM     22  C   UNL     1      -2.055  11.092  17.338  0.00  0.00    +0.000 C 
ENDBRANCH  11  21
BRANCH   1  23
ATOM     23  O   UNL     1      -3.053  13.302  21.234  0.00  0.00    +0.000 OA
BRANCH  23  24
ATOM     24  C   UNL     1      -4.398  12.876  21.260  0.00  0.00    +0.000 C 
BRANCH  24  31
ATOM     25  C   UNL     1      -7.443  11.263  20.780  0.00  0.00    +0.000 C 
ATOM     26  O   UNL     1      -7.440  10.688  21.866  0.00  0.00    +0.000 OA
ATOM     27  N   UNL     1      -7.336  12.650  20.700  0.00  0.00    +0.000 N 
ATOM     28  C   UNL     1      -7.400  13.479  19.492  0.00  0.00    +0.000 C 
ATOM     29  C   UNL     1      -6.082  14.235  19.251  0.00  0.00    +0.000 C 
ATOM     30  O   UNL     1      -5.566  14.853  20.450  0.00  0.00    +0.000 OA
ATOM     31  C   UNL     1      -5.469  13.929  21.573  0.00  0.00    +0.000 C 
ATOM     32  C   UNL     1      -6.854  13.362  21.879  0.00  0.00    +0.000 C 
BRANCH  25  34
ATOM     33  C   UNL     1      -7.079   9.058  19.666  0.00  0.00    +0.000 C 
ATOM     34  C   UNL     1      -7.539  10.499  19.480  0.00  0.00    +0.000 C 
ENDBRANCH  25  34
ENDBRANCH  24  31
ENDBRANCH  23  24
ENDBRANCH   1  23
TORSDOF 6
ENDMDL
MODEL 7
REMARK VINA RESULT:      -7.9      5.721     10.925
REMARK  Name = 
REMARK  8 active torsions:
REMARK  status: ('A' for Active; 'I' for Inactive)
REMARK    1  A    between atoms: C_1  and  C_2
REMARK    2  A    between atoms: C_2  and  C_3
REMARK    3  A    between atoms: C_9  and  C_10
REMARK    4  A    between atoms: C_10  and  O_11
REMARK    5  A    between atoms: O_11  and  C_12
REMARK    6  A    between atoms: N_19  and  C_20
REMARK    7  A    between atoms: C_30  and  O_31
REMARK    8  A    between atoms: O_31  and  C_32
REMARK                            x       y       z     vdW  Elec       q    Type
REMARK                         _______ _______ _______ _____ _____    ______ ____
ROOT
ATOM      1  C   UNL     1      -1.438  12.293  20.200  0.00  0.00    +0.000 A 
ATOM      2  C   UNL     1      -0.823  11.654  21.303  0.00  0.00    +0.000 A 
ATOM      3  C   UNL     1       0.035  10.559  21.189  0.00  0.00    +0.000 A 
ATOM      4  N   UNL     1       0.556   9.988  22.284  0.00  0.00    +0.000 NA
ATOM      5  C   UNL     1       1.363   8.936  22.097  0.00  0.00    +0.000 A 
ATOM      6  N   UNL     1       1.727   8.421  20.919  0.00  0.00    +0.000 NA
ATOM      7  C   UNL     1       1.216   9.003  19.822  0.00  0.00    +0.000 A 
ATOM      8  N   UNL     1       1.595   8.539  18.527  0.00  0.00    +0.000 N 
ATOM      9  C   UNL     1       0.317  10.086  19.909  0.00  0.00    +0.000 A 
ATOM     10  C   UNL     1      -0.309  10.696  18.799  0.00  0.00    +0.000 A 
ATOM     11  C   UNL     1      -1.169  11.798  18.915  0.00  0.00    +0.000 A 
ATOM     12  H   UNL     1       1.853   9.347  17.967  0.00  0.00    +0.000 HD
ENDROOT
BRANCH   8  13
ATOM     13  C   UNL     1       2.385   7.420  18.186  0.00  0.00    +0.000 A 
ATOM     14  C   UNL     1       1.911   6.107  18.252  0.00  0.00    +0.000 A 
ATOM     15  C   UNL     1       2.727   5.024  17.910  0.00  0.00    +0.000 A 
ATOM     16  C   UNL     1       4.024   5.243  17.451  0.00  0.00    +0.000 A 
ATOM     17 CL   UNL     1       4.996   3.863  17.089  0.00  0.00    +0.000 Cl
ATOM     18  C   UNL     1       4.488   6.551  17.298  0.00  0.00    +0.000 A 
ATOM     19 CL   UNL     1       6.065   6.910  16.684  0.00  0.00    +0.000 Cl
ATOM     20  C   UNL     1       3.665   7.629  17.649  0.00  0.00    +0.000 A 
ENDBRANCH   8  13
BRANCH  11  21
ATOM     21  O   UNL     1      -1.728  12.078  17.698  0.00  0.00    +0.000 OA
ATOM     22  C   UNL     1      -2.401  11.086  16.940  0.00  0.00    +0.000 C 
ENDBRANCH  11  21
BRANCH   1  23
ATOM     23  O   UNL     1      -2.278  13.305  20.617  0.00  0.00    +0.000 OA
BRANCH  23  24
ATOM     24  C   UNL     1      -3.618  12.936  20.864  0.00  0.00    +0.000 C 
BRANCH  24  31
ATOM     25  C   UNL     1      -6.953  12.030  20.458  0.00  0.00    +0.000 C 
ATOM     26  O   UNL     1      -6.856  10.965  21.064  0.00  0.00    +0.000 OA
ATOM     27  N   UNL     1      -6.596  13.235  21.058  0.00  0.00    +0.000 N 
ATOM     28  C   UNL     1      -6.725  14.582  20.494  0.00  0.00    +0.000 C 
ATOM     29  C   UNL     1      -5.356  15.263  20.329  0.00  0.00    +0.000 C 
ATOM     30  O   UNL     1      -4.512  15.111  21.492  0.00  0.00    +0.000 OA
ATOM     31  C   UNL     1      -4.386  13.727  21.930  0.00  0.00    +0.000 C 
ATOM     32  C   UNL     1      -5.773  13.176  22.262  0.00  0.00    +0.000 C 
BRANCH  25  34
ATOM     33  C   UNL     1      -6.340  11.641  18.068  0.00  0.00    +0.000 C 
ATOM     34  C   UNL     1      -7.438  12.084  19.028  0.00  0.00    +0.000 C 
ENDBRANCH  25  34
ENDBRANCH  24  31
ENDBRANCH  23  24
ENDBRANCH   1  23
TORSDOF 6
ENDMDL
MODEL 8
REMARK VINA RESULT:      -7.9      5.736     10.917
REMARK  Name = 
REMARK  8 active torsions:
REMARK  status: ('A' for Active; 'I' for Inactive)
REMARK    1  A    between atoms: C_1  and  C_2
REMARK    2  A    between atoms: C_2  and  C_3
REMARK    3  A    between atoms: C_9  and  C_10
REMARK    4  A    between atoms: C_10  and  O_11
REMARK    5  A    between atoms: O_11  and  C_12
REMARK    6  A    between atoms: N_19  and  C_20
REMARK    7  A    between atoms: C_30  and  O_31
REMARK    8  A    between atoms: O_31  and  C_32
REMARK                            x       y       z     vdW  Elec       q    Type
REMARK                         _______ _______ _______ _____ _____    ______ ____
ROOT
ATOM      1  C   UNL     1      -1.455  12.227  20.126  0.00  0.00    +0.000 A 
ATOM      2  C   UNL     1      -0.947  11.832  21.387  0.00  0.00    +0.000 A 
ATOM      3  C   UNL     1      -0.140  10.710  21.585  0.00  0.00    +0.000 A 
ATOM      4  N   UNL     1       0.278  10.384  22.815  0.00  0.00    +0.000 NA
ATOM      5  C   UNL     1       1.042   9.289  22.928  0.00  0.00    +0.000 A 
ATOM      6  N   UNL     1       1.455   8.509  21.925  0.00  0.00    +0.000 NA
ATOM      7  C   UNL     1       1.047   8.846  20.691  0.00  0.00    +0.000 A 
ATOM      8  N   UNL     1       1.486   8.089  19.563  0.00  0.00    +0.000 N 
ATOM      9  C   UNL     1       0.201   9.951  20.466  0.00  0.00    +0.000 A 
ATOM     10  C   UNL     1      -0.319  10.316  19.205  0.00  0.00    +0.000 A 
ATOM     11  C   UNL     1      -1.128  11.446  19.008  0.00  0.00    +0.000 A 
ATOM     12  H   UNL     1       1.821   8.741  18.858  0.00  0.00    +0.000 HD
ENDROOT
BRANCH   8  13
ATOM     13  C   UNL     1       2.239   6.895  19.540  0.00  0.00    +0.000 A 
ATOM     14  C   UNL     1       3.379   6.731  18.747  0.00  0.00    +0.000 A 
ATOM     15  C   UNL     1       4.095   5.531  18.747  0.00  0.00    +0.000 A 
ATOM     16  C   UNL     1       3.706   4.484  19.581  0.00  0.00    +0.000 A 
ATOM     17 CL   UNL     1       4.604   3.012  19.501  0.00  0.00    +0.000 Cl
ATOM     18  C   UNL     1       2.620   4.658  20.442  0.00  0.00    +0.000 A 
ATOM     19 CL   UNL     1       2.106   3.429  21.545  0.00  0.00    +0.000 Cl
ATOM     20  C   UNL     1       1.905   5.863  20.429  0.00  0.00    +0.000 A 
ENDBRANCH   8  13
BRANCH  11  21
ATOM     21  O   UNL     1      -1.591  11.463  17.721  0.00  0.00    +0.000 OA
ATOM     22  C   UNL     1      -2.028  10.282  17.069  0.00  0.00    +0.000 C 
ENDBRANCH  11  21
BRANCH   1  23
ATOM     23  O   UNL     1      -2.269  13.336  20.244  0.00  0.00    +0.000 OA
BRANCH  23  24
ATOM     24  C   UNL     1      -3.629  13.079  20.516  0.00  0.00    +0.000 C 
BRANCH  24  31
ATOM     25  C   UNL     1      -6.982  12.147  20.510  0.00  0.00    +0.000 C 
ATOM     26  O   UNL     1      -6.784  11.008  20.928  0.00  0.00    +0.000 OA
ATOM     27  N   UNL     1      -6.540  13.261  21.219  0.00  0.00    +0.000 N 
ATOM     28  C   UNL     1      -6.764  14.672  20.889  0.00  0.00    +0.000 C 
ATOM     29  C   UNL     1      -5.442  15.409  20.614  0.00  0.00    +0.000 C 
ATOM     30  O   UNL     1      -4.423  15.113  21.595  0.00  0.00    +0.000 OA
ATOM     31  C   UNL     1      -4.222  13.683  21.796  0.00  0.00    +0.000 C 
ATOM     32  C   UNL     1      -5.534  13.050  22.256  0.00  0.00    +0.000 C 
BRANCH  25  34
ATOM     33  C   UNL     1      -6.925  11.760  18.043  0.00  0.00    +0.000 C 
ATOM     34  C   UNL     1      -7.690  12.396  19.198  0.00  0.00    +0.000 C 
ENDBRANCH  25  34
ENDBRANCH  24  31
ENDBRANCH  23  24
ENDBRANCH   1  23
TORSDOF 6
ENDMDL
MODEL 9
REMARK VINA RESULT:      -7.8      6.093     10.815
REMARK  Name = 
REMARK  8 active torsions:
REMARK  status: ('A' for Active; 'I' for Inactive)
REMARK    1  A    between atoms: C_1  and  C_2
REMARK    2  A    between atoms: C_2  and  C_3
REMARK    3  A    between atoms: C_9  and  C_10
REMARK    4  A    between atoms: C_10  and  O_11
REMARK    5  A    between atoms: O_11  and  C_12
REMARK    6  A    between atoms: N_19  and  C_20
REMARK    7  A    between atoms: C_30  and  O_31
REMARK    8  A    between atoms: O_31  and  C_32
REMARK                            x       y       z     vdW  Elec       q    Type
REMARK                         _______ _______ _______ _____ _____    ______ ____
ROOT
ATOM      1  C   UNL     1      -2.982  11.358  17.671  0.00  0.00    +0.000 A 
ATOM      2  C   UNL     1      -2.204  11.705  18.802  0.00  0.00    +0.000 A 
ATOM      3  C   UNL     1      -1.019  11.059  19.159  0.00  0.00    +0.000 A 
ATOM      4  N   UNL     1      -0.353  11.425  20.263  0.00  0.00    +0.000 NA
ATOM      5  C   UNL     1       0.771  10.754  20.547  0.00  0.00    +0.000 A 
ATOM      6  N   UNL     1       1.311   9.775  19.815  0.00  0.00    +0.000 NA
ATOM      7  C   UNL     1       0.650   9.419  18.702  0.00  0.00    +0.000 A 
ATOM      8  N   UNL     1       1.188   8.413  17.844  0.00  0.00    +0.000 N 
ATOM      9  C   UNL     1      -0.568  10.028  18.337  0.00  0.00    +0.000 A 
ATOM     10  C   UNL     1      -1.346   9.652  17.219  0.00  0.00    +0.000 A 
ATOM     11  C   UNL     1      -2.536  10.304  16.860  0.00  0.00    +0.000 A 
ATOM     12  H   UNL     1       1.162   8.766  16.891  0.00  0.00    +0.000 HD
ENDROOT
BRANCH   8  13
ATOM     13  C   UNL     1       2.322   7.596  18.044  0.00  0.00    +0.000 A 
ATOM     14  C   UNL     1       3.551   7.836  17.423  0.00  0.00    +0.000 A 
ATOM     15  C   UNL     1       4.649   7.000  17.643  0.00  0.00    +0.000 A 
ATOM     16  C   UNL     1       4.548   5.929  18.529  0.00  0.00    +0.000 A 
ATOM     17 CL   UNL     1       5.925   4.907  18.722  0.00  0.00    +0.000 Cl
ATOM     18  C   UNL     1       3.353   5.722  19.223  0.00  0.00    +0.000 A 
ATOM     19 CL   UNL     1       3.162   4.450  20.379  0.00  0.00    +0.000 Cl
ATOM     20  C   UNL     1       2.256   6.562  18.991  0.00  0.00    +0.000 A 
ENDBRANCH   8  13
BRANCH  11  21
ATOM     21  O   UNL     1      -3.135   9.635  15.829  0.00  0.00    +0.000 OA
ATOM     22  C   UNL     1      -3.334  10.240  14.562  0.00  0.00    +0.000 C 
ENDBRANCH  11  21
BRANCH   1  23
ATOM     23  O   UNL     1      -4.127  12.125  17.602  0.00  0.00    +0.000 OA
BRANCH  23  24
ATOM     24  C   UNL     1      -5.068  11.927  18.635  0.00  0.00    +0.000 C 
BRANCH  24  31
ATOM     25  C   UNL     1      -6.884  13.286  21.274  0.00  0.00    +0.000 C 
ATOM     26  O   UNL     1      -6.724  14.456  20.932  0.00  0.00    +0.000 OA
ATOM     27  N   UNL     1      -7.451  12.354  20.407  0.00  0.00    +0.000 N 
ATOM     28  C   UNL     1      -7.772  10.952  20.694  0.00  0.00    +0.000 C 
ATOM     29  C   UNL     1      -6.965   9.990  19.806  0.00  0.00    +0.000 C 
ATOM     30  O   UNL     1      -6.947  10.393  18.419  0.00  0.00    +0.000 OA
ATOM     31  C   UNL     1      -6.541  11.781  18.232  0.00  0.00    +0.000 C 
ATOM     32  C   UNL     1      -7.506  12.693  18.989  0.00  0.00    +0.000 C 
BRANCH  25  34
ATOM     33  C   UNL     1      -4.968  13.047  22.858  0.00  0.00    +0.000 C 
ATOM     34  C   UNL     1      -6.455  12.795  22.637  0.00  0.00    +0.000 C 
ENDBRANCH  25  34
ENDBRANCH  24  31
ENDBRANCH  23  24
ENDBRANCH   1  23
TORSDOF 6
ENDMDL
