MODEL 1
REMARK VINA RESULT:      -8.6      0.000      0.000
REMARK  Name = 
REMARK  7 active torsions:
REMARK  status: ('A' for Active; 'I' for Inactive)
REMARK    1  A    between atoms: C_4  and  C_5
REMARK    2  A    between atoms: C_5  and  C_6
REMARK    3  A    between atoms: C_6  and  C_7
REMARK    4  A    between atoms: C_7  and  C_8
REMARK    5  A    between atoms: C_12  and  C_13
REMARK    6  A    between atoms: C_13  and  C_14
REMARK    7  A    between atoms: C_14  and  C_15
REMARK                            x       y       z     vdW  Elec       q    Type
REMARK                         _______ _______ _______ _____ _____    ______ ____
ROOT
ATOM      1  C   UNL     1       7.224   6.431  17.258  0.00  0.00    +0.000 C 
ATOM      2  C   UNL     1       7.739   5.664  18.488  0.00  0.00    +0.000 C 
ATOM      3  C   UNL     1       6.632   5.311  19.472  0.00  0.00    +0.000 C 
ATOM      4  C   UNL     1       5.503   4.584  18.749  0.00  0.00    +0.000 C 
ATOM      5  C   UNL     1       4.962   5.377  17.545  0.00  0.00    +0.000 C 
ATOM      6  N   UNL     1       6.058   5.775  16.657  0.00  0.00    +0.000 NA
ATOM      7  H   UNL     1       5.721   6.280  15.842  0.00  0.00    +0.000 HD
ENDROOT
BRANCH   1   8
ATOM      8  C   UNL     1       7.056   7.935  17.560  0.00  0.00    +0.000 C 
BRANCH   8   9
ATOM      9  C   UNL     1       8.329   8.664  18.000  0.00  0.00    +0.000 C 
BRANCH   9  10
ATOM     10  C   UNL     1       8.198  10.184  18.006  0.00  0.00    +0.000 C 
BRANCH  10  14
ATOM     11  C   UNL     1      11.687  11.999  19.765  0.00  0.00    +0.000 A 
ATOM     12  C   UNL     1      11.625  11.793  18.390  0.00  0.00    +0.000 A 
ATOM     13  C   UNL     1      10.498  11.198  17.820  0.00  0.00    +0.000 A 
ATOM     14  C   UNL     1       9.416  10.822  18.625  0.00  0.00    +0.000 A 
ATOM     15  C   UNL     1       9.497  11.009  20.011  0.00  0.00    +0.000 A 
ATOM     16  C   UNL     1      10.626  11.600  20.579  0.00  0.00    +0.000 A 
ENDBRANCH  10  14
ENDBRANCH   9  10
ENDBRANCH   8   9
ENDBRANCH   1   8
BRANCH   5  17
ATOM     17  C   UNL     1       4.012   6.499  18.019  0.00  0.00    +0.000 C 
BRANCH  17  18
ATOM     18  C   UNL     1       2.517   6.235  17.815  0.00  0.00    +0.000 C 
BRANCH  18  19
ATOM     19  C   UNL     1       2.015   5.093  18.676  0.00  0.00    +0.000 A 
ATOM     20  C   UNL     1       2.003   5.170  20.080  0.00  0.00    +0.000 A 
ATOM     21  C   UNL     1       1.587   4.085  20.853  0.00  0.00    +0.000 A 
ATOM     22  C   UNL     1       1.153   2.916  20.238  0.00  0.00    +0.000 A 
ATOM     23  C   UNL     1       1.117   2.841  18.845  0.00  0.00    +0.000 A 
ATOM     24  C   UNL     1       1.538   3.927  18.071  0.00  0.00    +0.000 A 
ENDBRANCH  18  19
ENDBRANCH  17  18
ENDBRANCH   5  17
TORSDOF 7
ENDMDL
MODEL 2
REMARK VINA RESULT:      -8.3      0.853      1.413
REMARK  Name = 
REMARK  7 active torsions:
REMARK  status: ('A' for Active; 'I' for Inactive)
REMARK    1  A    between atoms: C_4  and  C_5
REMARK    2  A    between atoms: C_5  and  C_6
REMARK    3  A    between atoms: C_6  and  C_7
REMARK    4  A    between atoms: C_7  and  C_8
REMARK    5  A    between atoms: C_12  and  C_13
REMARK    6  A    between atoms: C_13  and  C_14
REMARK    7  A    between atoms: C_14  and  C_15
REMARK                            x       y       z     vdW  Elec       q    Type
REMARK                         _______ _______ _______ _____ _____    ______ ____
ROOT
ATOM      1  C   UNL     1       7.134   6.411  16.880  0.00  0.00    +0.000 C 
ATOM      2  C   UNL     1       7.350   4.888  16.840  0.00  0.00    +0.000 C 
ATOM      3  C   UNL     1       6.134   4.105  17.318  0.00  0.00    +0.000 C 
ATOM      4  C   UNL     1       4.894   4.549  16.551  0.00  0.00    +0.000 C 
ATOM      5  C   UNL     1       4.658   6.069  16.631  0.00  0.00    +0.000 C 
ATOM      6  N   UNL     1       5.870   6.798  16.246  0.00  0.00    +0.000 NA
ATOM      7  H   UNL     1       5.730   7.804  16.269  0.00  0.00    +0.000 HD
ENDROOT
BRANCH   1   8
ATOM      8  C   UNL     1       7.365   6.976  18.297  0.00  0.00    +0.000 C 
BRANCH   8   9
ATOM      9  C   UNL     1       8.545   7.944  18.436  0.00  0.00    +0.000 C 
BRANCH   9  10
ATOM     10  C   UNL     1       8.209   9.384  18.060  0.00  0.00    +0.000 C 
BRANCH  10  14
ATOM     11  C   UNL     1      11.091  12.111  19.737  0.00  0.00    +0.000 A 
ATOM     12  C   UNL     1      10.176  11.468  20.564  0.00  0.00    +0.000 A 
ATOM     13  C   UNL     1       9.237  10.589  20.020  0.00  0.00    +0.000 A 
ATOM     14  C   UNL     1       9.220  10.337  18.643  0.00  0.00    +0.000 A 
ATOM     15  C   UNL     1      10.128  11.010  17.815  0.00  0.00    +0.000 A 
ATOM     16  C   UNL     1      11.064  11.889  18.359  0.00  0.00    +0.000 A 
ENDBRANCH  10  14
ENDBRANCH   9  10
ENDBRANCH   8   9
ENDBRANCH   1   8
BRANCH   5  17
ATOM     17  C   UNL     1       4.025   6.446  17.988  0.00  0.00    +0.000 C 
BRANCH  17  18
ATOM     18  C   UNL     1       2.494   6.416  18.039  0.00  0.00    +0.000 C 
BRANCH  18  19
ATOM     19  C   UNL     1       1.969   5.180  18.741  0.00  0.00    +0.000 A 
ATOM     20  C   UNL     1       1.884   5.102  20.143  0.00  0.00    +0.000 A 
ATOM     21  C   UNL     1       1.449   3.933  20.770  0.00  0.00    +0.000 A 
ATOM     22  C   UNL     1       1.069   2.834  20.009  0.00  0.00    +0.000 A 
ATOM     23  C   UNL     1       1.105   2.912  18.616  0.00  0.00    +0.000 A 
ATOM     24  C   UNL     1       1.545   4.082  17.989  0.00  0.00    +0.000 A 
ENDBRANCH  18  19
ENDBRANCH  17  18
ENDBRANCH   5  17
TORSDOF 7
ENDMDL
MODEL 3
REMARK VINA RESULT:      -8.3      1.092      1.723
REMARK  Name = 
REMARK  7 active torsions:
REMARK  status: ('A' for Active; 'I' for Inactive)
REMARK    1  A    between atoms: C_4  and  C_5
REMARK    2  A    between atoms: C_5  and  C_6
REMARK    3  A    between atoms: C_6  and  C_7
REMARK    4  A    between atoms: C_7  and  C_8
REMARK    5  A    between atoms: C_12  and  C_13
REMARK    6  A    between atoms: C_13  and  C_14
REMARK    7  A    between atoms: C_14  and  C_15
REMARK                            x       y       z     vdW  Elec       q    Type
REMARK                         _______ _______ _______ _____ _____    ______ ____
ROOT
ATOM      1  C   UNL     1       7.272   6.337  16.839  0.00  0.00    +0.000 C 
ATOM      2  C   UNL     1       7.480   4.867  17.240  0.00  0.00    +0.000 C 
ATOM      3  C   UNL     1       6.264   4.263  17.929  0.00  0.00    +0.000 C 
ATOM      4  C   UNL     1       5.020   4.474  17.072  0.00  0.00    +0.000 C 
ATOM      5  C   UNL     1       4.793   5.954  16.710  0.00  0.00    +0.000 C 
ATOM      6  N   UNL     1       6.006   6.532  16.125  0.00  0.00    +0.000 NA
ATOM      7  H   UNL     1       5.871   7.503  15.857  0.00  0.00    +0.000 HD
ENDROOT
BRANCH   1   8
ATOM      8  C   UNL     1       7.514   7.287  18.031  0.00  0.00    +0.000 C 
BRANCH   8   9
ATOM      9  C   UNL     1       7.984   8.699  17.663  0.00  0.00    +0.000 C 
BRANCH   9  10
ATOM     10  C   UNL     1       8.776   9.392  18.767  0.00  0.00    +0.000 C 
BRANCH  10  14
ATOM     11  C   UNL     1      10.285  13.194  17.415  0.00  0.00    +0.000 A 
ATOM     12  C   UNL     1      11.168  12.186  17.789  0.00  0.00    +0.000 A 
ATOM     13  C   UNL     1      10.680  10.955  18.234  0.00  0.00    +0.000 A 
ATOM     14  C   UNL     1       9.300  10.723  18.291  0.00  0.00    +0.000 A 
ATOM     15  C   UNL     1       8.418  11.753  17.938  0.00  0.00    +0.000 A 
ATOM     16  C   UNL     1       8.908  12.982  17.497  0.00  0.00    +0.000 A 
ENDBRANCH  10  14
ENDBRANCH   9  10
ENDBRANCH   8   9
ENDBRANCH   1   8
BRANCH   5  17
ATOM     17  C   UNL     1       4.170   6.712  17.903  0.00  0.00    +0.000 C 
BRANCH  17  18
ATOM     18  C   UNL     1       2.640   6.693  17.976  0.00  0.00    +0.000 C 
BRANCH  18  19
ATOM     19  C   UNL     1       2.116   5.457  18.678  0.00  0.00    +0.000 A 
ATOM     20  C   UNL     1       1.657   4.335  17.964  0.00  0.00    +0.000 A 
ATOM     21  C   UNL     1       1.128   3.229  18.631  0.00  0.00    +0.000 A 
ATOM     22  C   UNL     1       1.070   3.215  20.020  0.00  0.00    +0.000 A 
ATOM     23  C   UNL     1       1.562   4.302  20.743  0.00  0.00    +0.000 A 
ATOM     24  C   UNL     1       2.089   5.411  20.074  0.00  0.00    +0.000 A 
ENDBRANCH  18  19
ENDBRANCH  17  18
ENDBRANCH   5  17
TORSDOF 7
ENDMDL
MODEL 4
REMARK VINA RESULT:      -8.3      3.213      5.489
REMARK  Name = 
REMARK  7 active torsions:
REMARK  status: ('A' for Active; 'I' for Inactive)
REMARK    1  A    between atoms: C_4  and  C_5
REMARK    2  A    between atoms: C_5  and  C_6
REMARK    3  A    between atoms: C_6  and  C_7
REMARK    4  A    between atoms: C_7  and  C_8
REMARK    5  A    between atoms: C_12  and  C_13
REMARK    6  A    between atoms: C_13  and  C_14
REMARK    7  A    between atoms: C_14  and  C_15
REMARK                            x       y       z     vdW  Elec       q    Type
REMARK                         _______ _______ _______ _____ _____    ______ ____
ROOT
ATOM      1  C   UNL     1       2.791   1.945  18.384  0.00  0.00    +0.000 C 
ATOM      2  C   UNL     1       3.939   1.765  19.392  0.00  0.00    +0.000 C 
ATOM      3  C   UNL     1       3.785   2.641  20.629  0.00  0.00    +0.000 C 
ATOM      4  C   UNL     1       2.410   2.427  21.251  0.00  0.00    +0.000 C 
ATOM      5  C   UNL     1       1.262   2.652  20.248  0.00  0.00    +0.000 C 
ATOM      6  N   UNL     1       1.480   1.860  19.033  0.00  0.00    +0.000 NA
ATOM      7  H   UNL     1       0.721   1.975  18.366  0.00  0.00    +0.000 HD
ENDROOT
BRANCH   1   8
ATOM      8  C   UNL     1       3.011   3.187  17.494  0.00  0.00    +0.000 C 
BRANCH   8   9
ATOM      9  C   UNL     1       4.467   3.643  17.347  0.00  0.00    +0.000 C 
BRANCH   9  10
ATOM     10  C   UNL     1       4.619   5.038  16.748  0.00  0.00    +0.000 C 
BRANCH  10  14
ATOM     11  C   UNL     1       8.065   7.023  18.404  0.00  0.00    +0.000 A 
ATOM     12  C   UNL     1       7.807   5.693  18.720  0.00  0.00    +0.000 A 
ATOM     13  C   UNL     1       6.686   5.050  18.189  0.00  0.00    +0.000 A 
ATOM     14  C   UNL     1       5.825   5.735  17.323  0.00  0.00    +0.000 A 
ATOM     15  C   UNL     1       6.078   7.082  17.032  0.00  0.00    +0.000 A 
ATOM     16  C   UNL     1       7.196   7.723  17.565  0.00  0.00    +0.000 A 
ENDBRANCH  10  14
ENDBRANCH   9  10
ENDBRANCH   8   9
ENDBRANCH   1   8
BRANCH   5  17
ATOM     17  C   UNL     1       1.003   4.162  20.054  0.00  0.00    +0.000 C 
BRANCH  17  18
ATOM     18  C   UNL     1       2.105   5.096  20.563  0.00  0.00    +0.000 C 
BRANCH  18  19
ATOM     19  C   UNL     1       2.016   6.477  19.945  0.00  0.00    +0.000 A 
ATOM     20  C   UNL     1       1.490   7.574  20.650  0.00  0.00    +0.000 A 
ATOM     21  C   UNL     1       1.368   8.825  20.041  0.00  0.00    +0.000 A 
ATOM     22  C   UNL     1       1.790   9.005  18.729  0.00  0.00    +0.000 A 
ATOM     23  C   UNL     1       2.355   7.936  18.032  0.00  0.00    +0.000 A 
ATOM     24  C   UNL     1       2.474   6.683  18.641  0.00  0.00    +0.000 A 
ENDBRANCH  18  19
ENDBRANCH  17  18
ENDBRANCH   5  17
TORSDOF 7
ENDMDL
MODEL 5
REMARK VINA RESULT:      -8.2      3.211      7.149
REMARK  Name = 
REMARK  7 active torsions:
REMARK  status: ('A' for Active; 'I' for Inactive)
REMARK    1  A    between atoms: C_4  and  C_5
REMARK    2  A    between atoms: C_5  and  C_6
REMARK    3  A    between atoms: C_6  and  C_7
REMARK    4  A    between atoms: C_7  and  C_8
REMARK    5  A    between atoms: C_12  and  C_13
REMARK    6  A    between atoms: C_13  and  C_14
REMARK    7  A    between atoms: C_14  and  C_15
REMARK                            x       y       z     vdW  Elec       q    Type
REMARK                         _______ _______ _______ _____ _____    ______ ____
ROOT
ATOM      1  C   UNL     1       1.688   2.840  20.482  0.00  0.00    +0.000 C 
ATOM      2  C   UNL     1       0.703   3.166  19.347  0.00  0.00    +0.000 C 
ATOM      3  C   UNL     1       1.401   3.587  18.060  0.00  0.00    +0.000 C 
ATOM      4  C   UNL     1       2.439   2.543  17.664  0.00  0.00    +0.000 C 
ATOM      5  C   UNL     1       3.449   2.253  18.790  0.00  0.00    +0.000 C 
ATOM      6  N   UNL     1       2.750   1.932  20.037  0.00  0.00    +0.000 NA
ATOM      7  H   UNL     1       3.398   1.714  20.789  0.00  0.00    +0.000 HD
ENDROOT
BRANCH   1   8
ATOM      8  C   UNL     1       2.169   4.120  21.198  0.00  0.00    +0.000 C 
BRANCH   8   9
ATOM      9  C   UNL     1       1.657   5.437  20.605  0.00  0.00    +0.000 C 
BRANCH   9  10
ATOM     10  C   UNL     1       2.741   6.270  19.928  0.00  0.00    +0.000 C 
BRANCH  10  14
ATOM     11  C   UNL     1       1.149  10.064  18.649  0.00  0.00    +0.000 A 
ATOM     12  C   UNL     1       0.872   9.586  19.926  0.00  0.00    +0.000 A 
ATOM     13  C   UNL     1       1.382   8.353  20.339  0.00  0.00    +0.000 A 
ATOM     14  C   UNL     1       2.188   7.598  19.477  0.00  0.00    +0.000 A 
ATOM     15  C   UNL     1       2.440   8.076  18.185  0.00  0.00    +0.000 A 
ATOM     16  C   UNL     1       1.927   9.306  17.773  0.00  0.00    +0.000 A 
ENDBRANCH  10  14
ENDBRANCH   9  10
ENDBRANCH   8   9
ENDBRANCH   1   8
BRANCH   5  17
ATOM     17  C   UNL     1       4.514   3.369  18.860  0.00  0.00    +0.000 C 
BRANCH  17  18
ATOM     18  C   UNL     1       4.716   4.177  17.574  0.00  0.00    +0.000 C 
BRANCH  18  19
ATOM     19  C   UNL     1       5.790   5.235  17.725  0.00  0.00    +0.000 A 
ATOM     20  C   UNL     1       6.900   5.052  18.571  0.00  0.00    +0.000 A 
ATOM     21  C   UNL     1       7.849   6.063  18.736  0.00  0.00    +0.000 A 
ATOM     22  C   UNL     1       7.719   7.260  18.042  0.00  0.00    +0.000 A 
ATOM     23  C   UNL     1       6.648   7.439  17.166  0.00  0.00    +0.000 A 
ATOM     24  C   UNL     1       5.696   6.428  17.004  0.00  0.00    +0.000 A 
ENDBRANCH  18  19
ENDBRANCH  17  18
ENDBRANCH   5  17
TORSDOF 7
ENDMDL
MODEL 6
REMARK VINA RESULT:      -8.2      1.060      1.719
REMARK  Name = 
REMARK  7 active torsions:
REMARK  status: ('A' for Active; 'I' for Inactive)
REMARK    1  A    between atoms: C_4  and  C_5
REMARK    2  A    between atoms: C_5  and  C_6
REMARK    3  A    between atoms: C_6  and  C_7
REMARK    4  A    between atoms: C_7  and  C_8
REMARK    5  A    between atoms: C_12  and  C_13
REMARK    6  A    between atoms: C_13  and  C_14
REMARK    7  A    between atoms: C_14  and  C_15
REMARK                            x       y       z     vdW  Elec       q    Type
REMARK                         _______ _______ _______ _____ _____    ______ ____
ROOT
ATOM      1  C   UNL     1       7.122   6.307  16.762  0.00  0.00    +0.000 C 
ATOM      2  C   UNL     1       7.368   4.814  17.038  0.00  0.00    +0.000 C 
ATOM      3  C   UNL     1       6.181   4.131  17.706  0.00  0.00    +0.000 C 
ATOM      4  C   UNL     1       4.912   4.385  16.900  0.00  0.00    +0.000 C 
ATOM      5  C   UNL     1       4.648   5.884  16.665  0.00  0.00    +0.000 C 
ATOM      6  N   UNL     1       5.834   6.532  16.099  0.00  0.00    +0.000 NA
ATOM      7  H   UNL     1       5.674   7.519  15.912  0.00  0.00    +0.000 HD
ENDROOT
BRANCH   1   8
ATOM      8  C   UNL     1       7.377   7.163  18.021  0.00  0.00    +0.000 C 
BRANCH   8   9
ATOM      9  C   UNL     1       7.886   8.584  17.758  0.00  0.00    +0.000 C 
BRANCH   9  10
ATOM     10  C   UNL     1       8.896   9.078  18.790  0.00  0.00    +0.000 C 
BRANCH  10  14
ATOM     11  C   UNL     1       9.679  13.279  18.244  0.00  0.00    +0.000 A 
ATOM     12  C   UNL     1       8.625  12.672  17.569  0.00  0.00    +0.000 A 
ATOM     13  C   UNL     1       8.374  11.309  17.740  0.00  0.00    +0.000 A 
ATOM     14  C   UNL     1       9.172  10.548  18.604  0.00  0.00    +0.000 A 
ATOM     15  C   UNL     1      10.247  11.162  19.259  0.00  0.00    +0.000 A 
ATOM     16  C   UNL     1      10.497  12.523  19.085  0.00  0.00    +0.000 A 
ENDBRANCH  10  14
ENDBRANCH   9  10
ENDBRANCH   8   9
ENDBRANCH   1   8
BRANCH   5  17
ATOM     17  C   UNL     1       4.042   6.531  17.929  0.00  0.00    +0.000 C 
BRANCH  17  18
ATOM     18  C   UNL     1       2.516   6.459  18.046  0.00  0.00    +0.000 C 
BRANCH  18  19
ATOM     19  C   UNL     1       2.056   5.222  18.790  0.00  0.00    +0.000 A 
ATOM     20  C   UNL     1       1.540   4.099  18.117  0.00  0.00    +0.000 A 
ATOM     21  C   UNL     1       1.072   2.992  18.828  0.00  0.00    +0.000 A 
ATOM     22  C   UNL     1       1.134   2.977  20.216  0.00  0.00    +0.000 A 
ATOM     23  C   UNL     1       1.684   4.065  20.895  0.00  0.00    +0.000 A 
ATOM     24  C   UNL     1       2.150   5.175  20.183  0.00  0.00    +0.000 A 
ENDBRANCH  18  19
ENDBRANCH  17  18
ENDBRANCH   5  17
TORSDOF 7
ENDMDL
MODEL 7
REMARK VINA RESULT:      -8.1      3.260      6.837
REMARK  Name = 
REMARK  7 active torsions:
REMARK  status: ('A' for Active; 'I' for Inactive)
REMARK    1  A    between atoms: C_4  and  C_5
REMARK    2  A    between atoms: C_5  and  C_6
REMARK    3  A    between atoms: C_6  and  C_7
REMARK    4  A    between atoms: C_7  and  C_8
REMARK    5  A    between atoms: C_12  and  C_13
REMARK    6  A    between atoms: C_13  and  C_14
REMARK    7  A    between atoms: C_14  and  C_15
REMARK                            x       y       z     vdW  Elec       q    Type
REMARK                         _______ _______ _______ _____ _____    ______ ____
ROOT
ATOM      1  C   UNL     1       3.762   3.263  19.977  0.00  0.00    +0.000 C 
ATOM      2  C   UNL     1       2.246   3.029  20.079  0.00  0.00    +0.000 C 
ATOM      3  C   UNL     1       1.539   3.128  18.733  0.00  0.00    +0.000 C 
ATOM      4  C   UNL     1       2.215   2.208  17.721  0.00  0.00    +0.000 C 
ATOM      5  C   UNL     1       3.726   2.477  17.591  0.00  0.00    +0.000 C 
ATOM      6  N   UNL     1       4.366   2.458  18.910  0.00  0.00    +0.000 NA
ATOM      7  H   UNL     1       5.369   2.610  18.846  0.00  0.00    +0.000 HD
ENDROOT
BRANCH   1   8
ATOM      8  C   UNL     1       4.101   4.768  19.944  0.00  0.00    +0.000 C 
BRANCH   8   9
ATOM      9  C   UNL     1       2.900   5.710  19.811  0.00  0.00    +0.000 C 
BRANCH   9  10
ATOM     10  C   UNL     1       3.019   6.701  18.657  0.00  0.00    +0.000 C 
BRANCH  10  14
ATOM     11  C   UNL     1       0.552  10.165  19.349  0.00  0.00    +0.000 A 
ATOM     12  C   UNL     1       1.056   9.910  18.078  0.00  0.00    +0.000 A 
ATOM     13  C   UNL     1       1.862   8.791  17.854  0.00  0.00    +0.000 A 
ATOM     14  C   UNL     1       2.153   7.911  18.903  0.00  0.00    +0.000 A 
ATOM     15  C   UNL     1       1.663   8.190  20.185  0.00  0.00    +0.000 A 
ATOM     16  C   UNL     1       0.862   9.309  20.408  0.00  0.00    +0.000 A 
ENDBRANCH  10  14
ENDBRANCH   9  10
ENDBRANCH   8   9
ENDBRANCH   1   8
BRANCH   5  17
ATOM     17  C   UNL     1       3.980   3.723  16.715  0.00  0.00    +0.000 C 
BRANCH  17  18
ATOM     18  C   UNL     1       5.397   3.858  16.147  0.00  0.00    +0.000 C 
BRANCH  18  19
ATOM     19  C   UNL     1       6.208   4.910  16.876  0.00  0.00    +0.000 A 
ATOM     20  C   UNL     1       7.166   4.568  17.847  0.00  0.00    +0.000 A 
ATOM     21  C   UNL     1       7.862   5.557  18.545  0.00  0.00    +0.000 A 
ATOM     22  C   UNL     1       7.632   6.899  18.267  0.00  0.00    +0.000 A 
ATOM     23  C   UNL     1       6.717   7.252  17.274  0.00  0.00    +0.000 A 
ATOM     24  C   UNL     1       6.017   6.261  16.579  0.00  0.00    +0.000 A 
ENDBRANCH  18  19
ENDBRANCH  17  18
ENDBRANCH   5  17
TORSDOF 7
ENDMDL
MODEL 8
REMARK VINA RESULT:      -8.1      0.674      1.233
REMARK  Name = 
REMARK  7 active torsions:
REMARK  status: ('A' for Active; 'I' for Inactive)
REMARK    1  A    between atoms: C_4  and  C_5
REMARK    2  A    between atoms: C_5  and  C_6
REMARK    3  A    between atoms: C_6  and  C_7
REMARK    4  A    between atoms: C_7  and  C_8
REMARK    5  A    between atoms: C_12  and  C_13
REMARK    6  A    between atoms: C_13  and  C_14
REMARK    7  A    between atoms: C_14  and  C_15
REMARK                            x       y       z     vdW  Elec       q    Type
REMARK                         _______ _______ _______ _____ _____    ______ ____
ROOT
ATOM      1  C   UNL     1       7.510   6.985  17.335  0.00  0.00    +0.000 C 
ATOM      2  C   UNL     1       7.996   6.128  18.516  0.00  0.00    +0.000 C 
ATOM      3  C   UNL     1       6.853   5.579  19.360  0.00  0.00    +0.000 C 
ATOM      4  C   UNL     1       5.850   4.851  18.470  0.00  0.00    +0.000 C 
ATOM      5  C   UNL     1       5.334   5.730  17.315  0.00  0.00    +0.000 C 
ATOM      6  N   UNL     1       6.455   6.311  16.571  0.00  0.00    +0.000 NA
ATOM      7  H   UNL     1       6.138   6.877  15.789  0.00  0.00    +0.000 HD
ENDROOT
BRANCH   1   8
ATOM      8  C   UNL     1       7.187   8.428  17.780  0.00  0.00    +0.000 C 
BRANCH   8   9
ATOM      9  C   UNL     1       8.367   9.405  17.751  0.00  0.00    +0.000 C 
BRANCH   9  10
ATOM     10  C   UNL     1       8.974   9.679  19.124  0.00  0.00    +0.000 C 
BRANCH  10  14
ATOM     11  C   UNL     1      11.708  13.003  18.932  0.00  0.00    +0.000 A 
ATOM     12  C   UNL     1      11.306  12.361  17.765  0.00  0.00    +0.000 A 
ATOM     13  C   UNL     1      10.425  11.280  17.826  0.00  0.00    +0.000 A 
ATOM     14  C   UNL     1       9.928  10.844  19.061  0.00  0.00    +0.000 A 
ATOM     15  C   UNL     1      10.359  11.479  20.233  0.00  0.00    +0.000 A 
ATOM     16  C   UNL     1      11.241  12.557  20.170  0.00  0.00    +0.000 A 
ENDBRANCH  10  14
ENDBRANCH   9  10
ENDBRANCH   8   9
ENDBRANCH   1   8
BRANCH   5  17
ATOM     17  C   UNL     1       4.256   6.712  17.824  0.00  0.00    +0.000 C 
BRANCH  17  18
ATOM     18  C   UNL     1       2.805   6.305  17.553  0.00  0.00    +0.000 C 
BRANCH  18  19
ATOM     19  C   UNL     1       2.294   5.299  18.565  0.00  0.00    +0.000 A 
ATOM     20  C   UNL     1       1.592   4.144  18.176  0.00  0.00    +0.000 A 
ATOM     21  C   UNL     1       1.083   3.260  19.129  0.00  0.00    +0.000 A 
ATOM     22  C   UNL     1       1.289   3.501  20.482  0.00  0.00    +0.000 A 
ATOM     23  C   UNL     1       2.022   4.619  20.882  0.00  0.00    +0.000 A 
ATOM     24  C   UNL     1       2.527   5.506  19.927  0.00  0.00    +0.000 A 
ENDBRANCH  18  19
ENDBRANCH  17  18
ENDBRANCH   5  17
TORSDOF 7
ENDMDL
MODEL 9
REMARK VINA RESULT:      -8.1      1.749      2.803
REMARK  Name = 
REMARK  7 active torsions:
REMARK  status: ('A' for Active; 'I' for Inactive)
REMARK    1  A    between atoms: C_4  and  C_5
REMARK    2  A    between atoms: C_5  and  C_6
REMARK    3  A    between atoms: C_6  and  C_7
REMARK    4  A    between atoms: C_7  and  C_8
REMARK    5  A    between atoms: C_12  and  C_13
REMARK    6  A    between atoms: C_13  and  C_14
REMARK    7  A    between atoms: C_14  and  C_15
REMARK                            x       y       z     vdW  Elec       q    Type
REMARK                         _______ _______ _______ _____ _____    ______ ____
ROOT
ATOM      1  C   UNL     1       7.508   6.552  17.161  0.00  0.00    +0.000 C 
ATOM      2  C   UNL     1       7.747   5.759  18.457  0.00  0.00    +0.000 C 
ATOM      3  C   UNL     1       6.455   5.404  19.182  0.00  0.00    +0.000 C 
ATOM      4  C   UNL     1       5.497   4.703  18.225  0.00  0.00    +0.000 C 
ATOM      5  C   UNL     1       5.227   5.522  16.949  0.00  0.00    +0.000 C 
ATOM      6  N   UNL     1       6.488   5.921  16.318  0.00  0.00    +0.000 NA
ATOM      7  H   UNL     1       6.334   6.443  15.459  0.00  0.00    +0.000 HD
ENDROOT
BRANCH   1   8
ATOM      8  C   UNL     1       7.293   8.053  17.449  0.00  0.00    +0.000 C 
BRANCH   8   9
ATOM      9  C   UNL     1       8.462   8.766  18.137  0.00  0.00    +0.000 C 
BRANCH   9  10
ATOM     10  C   UNL     1       8.280  10.276  18.254  0.00  0.00    +0.000 C 
BRANCH  10  14
ATOM     11  C   UNL     1      11.890  12.144  19.682  0.00  0.00    +0.000 A 
ATOM     12  C   UNL     1      10.894  11.774  20.580  0.00  0.00    +0.000 A 
ATOM     13  C   UNL     1       9.721  11.174  20.118  0.00  0.00    +0.000 A 
ATOM     14  C   UNL     1       9.546  10.927  18.750  0.00  0.00    +0.000 A 
ATOM     15  C   UNL     1      10.543  11.327  17.851  0.00  0.00    +0.000 A 
ATOM     16  C   UNL     1      11.713  11.928  18.315  0.00  0.00    +0.000 A 
ENDBRANCH  10  14
ENDBRANCH   9  10
ENDBRANCH   8   9
ENDBRANCH   1   8
BRANCH   5  17
ATOM     17  C   UNL     1       4.209   6.647  17.235  0.00  0.00    +0.000 C 
BRANCH  17  18
ATOM     18  C   UNL     1       3.146   6.329  18.291  0.00  0.00    +0.000 C 
BRANCH  18  19
ATOM     19  C   UNL     1       2.376   7.563  18.718  0.00  0.00    +0.000 A 
ATOM     20  C   UNL     1       1.884   7.715  20.027  0.00  0.00    +0.000 A 
ATOM     21  C   UNL     1       1.131   8.836  20.383  0.00  0.00    +0.000 A 
ATOM     22  C   UNL     1       0.879   9.832  19.447  0.00  0.00    +0.000 A 
ATOM     23  C   UNL     1       1.398   9.716  18.157  0.00  0.00    +0.000 A 
ATOM     24  C   UNL     1       2.149   8.591  17.800  0.00  0.00    +0.000 A 
ENDBRANCH  18  19
ENDBRANCH  17  18
ENDBRANCH   5  17
TORSDOF 7
ENDMDL
