MODEL 1
REMARK VINA RESULT:      -6.5      0.000      0.000
REMARK  Name = 
REMARK  0 active torsions:
REMARK  status: ('A' for Active; 'I' for Inactive)
REMARK                            x       y       z     vdW  Elec       q    Type
REMARK                         _______ _______ _______ _____ _____    ______ ____
ROOT
ATOM      1  C   UNL     1       1.852   3.841  17.566  0.00  0.00    +0.000 A 
ATOM      2  C   UNL     1       0.925   3.456  18.552  0.00  0.00    +0.000 A 
ATOM      3  C   UNL     1       1.418   3.205  19.827  0.00  0.00    +0.000 A 
ATOM      4  N   UNL     1       0.769   2.826  20.933  0.00  0.00    +0.000 N 
ATOM      5  N   UNL     1       1.680   2.703  21.893  0.00  0.00    +0.000 NA
ATOM      6  N   UNL     1       2.898   2.993  21.433  0.00  0.00    +0.000 NA
ATOM      7  C   UNL     1       2.738   3.312  20.136  0.00  0.00    +0.000 A 
ATOM      8  C   UNL     1       3.697   3.678  19.188  0.00  0.00    +0.000 A 
ATOM      9  C   UNL     1       3.233   3.968  17.877  0.00  0.00    +0.000 A 
ATOM     10  C   UNL     1       4.198   4.414  16.812  0.00  0.00    +0.000 C 
ATOM     11  C   UNL     1       5.529   4.870  17.419  0.00  0.00    +0.000 C 
ATOM     12  N   UNL     1       6.025   3.860  18.352  0.00  0.00    +0.000 NA
ATOM     13  C   UNL     1       5.164   3.746  19.543  0.00  0.00    +0.000 C 
ATOM     14  H   UNL     1      -0.255   2.648  21.045  0.00  0.00    +0.000 HD
ATOM     15  H   UNL     1       6.988   4.125  18.667  0.00  0.00    +0.000 HD
ENDROOT
TORSDOF 0
ENDMDL
MODEL 2
REMARK VINA RESULT:      -6.5      1.948      4.558
REMARK  Name = 
REMARK  0 active torsions:
REMARK  status: ('A' for Active; 'I' for Inactive)
REMARK                            x       y       z     vdW  Elec       q    Type
REMARK                         _______ _______ _______ _____ _____    ______ ____
ROOT
ATOM      1  C   UNL     1       4.576   4.004  16.372  0.00  0.00    +0.000 A 
ATOM      2  C   UNL     1       5.979   4.106  16.418  0.00  0.00    +0.000 A 
ATOM      3  C   UNL     1       6.548   4.536  17.610  0.00  0.00    +0.000 A 
ATOM      4  N   UNL     1       7.836   4.723  17.921  0.00  0.00    +0.000 N 
ATOM      5  N   UNL     1       7.870   5.154  19.178  0.00  0.00    +0.000 NA
ATOM      6  N   UNL     1       6.639   5.250  19.682  0.00  0.00    +0.000 NA
ATOM      7  C   UNL     1       5.805   4.860  18.701  0.00  0.00    +0.000 A 
ATOM      8  C   UNL     1       4.410   4.787  18.700  0.00  0.00    +0.000 A 
ATOM      9  C   UNL     1       3.788   4.329  17.509  0.00  0.00    +0.000 A 
ATOM     10  C   UNL     1       2.292   4.178  17.444  0.00  0.00    +0.000 C 
ATOM     11  C   UNL     1       1.667   4.183  18.844  0.00  0.00    +0.000 C 
ATOM     12  N   UNL     1       2.165   5.325  19.609  0.00  0.00    +0.000 NA
ATOM     13  C   UNL     1       3.603   5.196  19.911  0.00  0.00    +0.000 C 
ATOM     14  H   UNL     1       8.670   4.572  17.310  0.00  0.00    +0.000 HD
ATOM     15  H   UNL     1       1.645   5.386  20.516  0.00  0.00    +0.000 HD
ENDROOT
TORSDOF 0
ENDMDL
MODEL 3
REMARK VINA RESULT:      -6.3      2.035      4.643
REMARK  Name = 
REMARK  0 active torsions:
REMARK  status: ('A' for Active; 'I' for Inactive)
REMARK                            x       y       z     vdW  Elec       q    Type
REMARK                         _______ _______ _______ _____ _____    ______ ____
ROOT
ATOM      1  C   UNL     1       2.435   5.924  18.933  0.00  0.00    +0.000 A 
ATOM      2  C   UNL     1       3.416   6.599  18.184  0.00  0.00    +0.000 A 
ATOM      3  C   UNL     1       4.161   5.846  17.284  0.00  0.00    +0.000 A 
ATOM      4  N   UNL     1       5.144   6.229  16.462  0.00  0.00    +0.000 N 
ATOM      5  N   UNL     1       5.549   5.141  15.813  0.00  0.00    +0.000 NA
ATOM      6  N   UNL     1       4.854   4.070  16.198  0.00  0.00    +0.000 NA
ATOM      7  C   UNL     1       3.978   4.510  17.121  0.00  0.00    +0.000 A 
ATOM      8  C   UNL     1       3.027   3.793  17.851  0.00  0.00    +0.000 A 
ATOM      9  C   UNL     1       2.225   4.529  18.765  0.00  0.00    +0.000 A 
ATOM     10  C   UNL     1       1.147   3.837  19.554  0.00  0.00    +0.000 C 
ATOM     11  C   UNL     1       0.808   2.466  18.960  0.00  0.00    +0.000 C 
ATOM     12  N   UNL     1       2.035   1.700  18.741  0.00  0.00    +0.000 NA
ATOM     13  C   UNL     1       2.872   2.299  17.685  0.00  0.00    +0.000 C 
ATOM     14  H   UNL     1       5.539   7.188  16.339  0.00  0.00    +0.000 HD
ATOM     15  H   UNL     1       1.785   0.726  18.448  0.00  0.00    +0.000 HD
ENDROOT
TORSDOF 0
ENDMDL
MODEL 4
REMARK VINA RESULT:      -6.3      2.258      5.238
REMARK  Name = 
REMARK  0 active torsions:
REMARK  status: ('A' for Active; 'I' for Inactive)
REMARK                            x       y       z     vdW  Elec       q    Type
REMARK                         _______ _______ _______ _____ _____    ______ ____
ROOT
ATOM      1  C   UNL     1       4.039   6.874  17.574  0.00  0.00    +0.000 A 
ATOM      2  C   UNL     1       5.295   7.135  16.996  0.00  0.00    +0.000 A 
ATOM      3  C   UNL     1       6.020   6.046  16.529  0.00  0.00    +0.000 A 
ATOM      4  N   UNL     1       7.225   6.009  15.949  0.00  0.00    +0.000 N 
ATOM      5  N   UNL     1       7.492   4.732  15.696  0.00  0.00    +0.000 NA
ATOM      6  N   UNL     1       6.492   3.947  16.100  0.00  0.00    +0.000 NA
ATOM      7  C   UNL     1       5.563   4.769  16.621  0.00  0.00    +0.000 A 
ATOM      8  C   UNL     1       4.330   4.459  17.199  0.00  0.00    +0.000 A 
ATOM      9  C   UNL     1       3.544   5.546  17.667  0.00  0.00    +0.000 A 
ATOM     10  C   UNL     1       2.183   5.298  18.258  0.00  0.00    +0.000 C 
ATOM     11  C   UNL     1       1.668   3.897  17.912  0.00  0.00    +0.000 C 
ATOM     12  N   UNL     1       2.692   2.899  18.218  0.00  0.00    +0.000 NA
ATOM     13  C   UNL     1       3.863   3.028  17.331  0.00  0.00    +0.000 C 
ATOM     14  H   UNL     1       7.855   6.814  15.731  0.00  0.00    +0.000 HD
ATOM     15  H   UNL     1       2.288   1.941  18.091  0.00  0.00    +0.000 HD
ENDROOT
TORSDOF 0
ENDMDL
MODEL 5
REMARK VINA RESULT:      -6.1      1.894      4.596
REMARK  Name = 
REMARK  0 active torsions:
REMARK  status: ('A' for Active; 'I' for Inactive)
REMARK                            x       y       z     vdW  Elec       q    Type
REMARK                         _______ _______ _______ _____ _____    ______ ____
ROOT
ATOM      1  C   UNL     1       4.636   5.143  16.332  0.00  0.00    +0.000 A 
ATOM      2  C   UNL     1       5.779   5.942  16.519  0.00  0.00    +0.000 A 
ATOM      3  C   UNL     1       6.470   5.796  17.715  0.00  0.00    +0.000 A 
ATOM      4  N   UNL     1       7.570   6.423  18.147  0.00  0.00    +0.000 N 
ATOM      5  N   UNL     1       7.835   5.947  19.359  0.00  0.00    +0.000 NA
ATOM      6  N   UNL     1       6.934   5.032  19.719  0.00  0.00    +0.000 NA
ATOM      7  C   UNL     1       6.076   4.931  18.687  0.00  0.00    +0.000 A 
ATOM      8  C   UNL     1       4.941   4.128  18.554  0.00  0.00    +0.000 A 
ATOM      9  C   UNL     1       4.219   4.227  17.335  0.00  0.00    +0.000 A 
ATOM     10  C   UNL     1       3.011   3.361  17.096  0.00  0.00    +0.000 C 
ATOM     11  C   UNL     1       2.958   2.190  18.083  0.00  0.00    +0.000 C 
ATOM     12  N   UNL     1       3.137   2.679  19.450  0.00  0.00    +0.000 NA
ATOM     13  C   UNL     1       4.496   3.207  19.667  0.00  0.00    +0.000 C 
ATOM     14  H   UNL     1       8.128   7.154  17.648  0.00  0.00    +0.000 HD
ATOM     15  H   UNL     1       2.981   1.890  20.121  0.00  0.00    +0.000 HD
ENDROOT
TORSDOF 0
ENDMDL
MODEL 6
REMARK VINA RESULT:      -6.1      1.384      4.230
REMARK  Name = 
REMARK  0 active torsions:
REMARK  status: ('A' for Active; 'I' for Inactive)
REMARK                            x       y       z     vdW  Elec       q    Type
REMARK                         _______ _______ _______ _____ _____    ______ ____
ROOT
ATOM      1  C   UNL     1       2.238   5.743  18.613  0.00  0.00    +0.000 A 
ATOM      2  C   UNL     1       3.426   6.123  17.962  0.00  0.00    +0.000 A 
ATOM      3  C   UNL     1       4.576   5.403  18.261  0.00  0.00    +0.000 A 
ATOM      4  N   UNL     1       5.821   5.552  17.796  0.00  0.00    +0.000 N 
ATOM      5  N   UNL     1       6.570   4.631  18.395  0.00  0.00    +0.000 NA
ATOM      6  N   UNL     1       5.839   3.895  19.233  0.00  0.00    +0.000 NA
ATOM      7  C   UNL     1       4.584   4.375  19.150  0.00  0.00    +0.000 A 
ATOM      8  C   UNL     1       3.434   3.970  19.831  0.00  0.00    +0.000 A 
ATOM      9  C   UNL     1       2.230   4.663  19.536  0.00  0.00    +0.000 A 
ATOM     10  C   UNL     1       0.939   4.256  20.194  0.00  0.00    +0.000 C 
ATOM     11  C   UNL     1       1.046   2.862  20.822  0.00  0.00    +0.000 C 
ATOM     12  N   UNL     1       2.245   2.780  21.655  0.00  0.00    +0.000 NA
ATOM     13  C   UNL     1       3.477   2.853  20.849  0.00  0.00    +0.000 C 
ATOM     14  H   UNL     1       6.165   6.254  17.102  0.00  0.00    +0.000 HD
ATOM     15  H   UNL     1       2.244   1.869  22.171  0.00  0.00    +0.000 HD
ENDROOT
TORSDOF 0
ENDMDL
MODEL 7
REMARK VINA RESULT:      -6.0      2.472      3.117
REMARK  Name = 
REMARK  0 active torsions:
REMARK  status: ('A' for Active; 'I' for Inactive)
REMARK                            x       y       z     vdW  Elec       q    Type
REMARK                         _______ _______ _______ _____ _____    ______ ____
ROOT
ATOM      1  C   UNL     1       3.569   6.913  17.893  0.00  0.00    +0.000 A 
ATOM      2  C   UNL     1       2.375   6.247  18.226  0.00  0.00    +0.000 A 
ATOM      3  C   UNL     1       2.318   4.880  17.979  0.00  0.00    +0.000 A 
ATOM      4  N   UNL     1       1.319   4.017  18.193  0.00  0.00    +0.000 N 
ATOM      5  N   UNL     1       1.743   2.826  17.781  0.00  0.00    +0.000 NA
ATOM      6  N   UNL     1       2.987   2.903  17.306  0.00  0.00    +0.000 NA
ATOM      7  C   UNL     1       3.353   4.191  17.432  0.00  0.00    +0.000 A 
ATOM      8  C   UNL     1       4.553   4.811  17.073  0.00  0.00    +0.000 A 
ATOM      9  C   UNL     1       4.664   6.203  17.331  0.00  0.00    +0.000 A 
ATOM     10  C   UNL     1       5.941   6.933  17.015  0.00  0.00    +0.000 C 
ATOM     11  C   UNL     1       7.106   5.960  16.805  0.00  0.00    +0.000 C 
ATOM     12  N   UNL     1       6.717   4.911  15.863  0.00  0.00    +0.000 NA
ATOM     13  C   UNL     1       5.674   4.032  16.424  0.00  0.00    +0.000 C 
ATOM     14  H   UNL     1       0.376   4.216  18.599  0.00  0.00    +0.000 HD
ATOM     15  H   UNL     1       7.554   4.324  15.637  0.00  0.00    +0.000 HD
ENDROOT
TORSDOF 0
ENDMDL
MODEL 8
REMARK VINA RESULT:      -6.0      2.701      5.371
REMARK  Name = 
REMARK  0 active torsions:
REMARK  status: ('A' for Active; 'I' for Inactive)
REMARK                            x       y       z     vdW  Elec       q    Type
REMARK                         _______ _______ _______ _____ _____    ______ ____
ROOT
ATOM      1  C   UNL     1       4.734   3.530  16.107  0.00  0.00    +0.000 A 
ATOM      2  C   UNL     1       5.998   3.976  15.679  0.00  0.00    +0.000 A 
ATOM      3  C   UNL     1       6.444   5.196  16.170  0.00  0.00    +0.000 A 
ATOM      4  N   UNL     1       7.587   5.847  15.928  0.00  0.00    +0.000 N 
ATOM      5  N   UNL     1       7.541   6.980  16.621  0.00  0.00    +0.000 NA
ATOM      6  N   UNL     1       6.398   7.075  17.302  0.00  0.00    +0.000 NA
ATOM      7  C   UNL     1       5.707   5.955  17.024  0.00  0.00    +0.000 A 
ATOM      8  C   UNL     1       4.441   5.561  17.466  0.00  0.00    +0.000 A 
ATOM      9  C   UNL     1       3.957   4.307  17.008  0.00  0.00    +0.000 A 
ATOM     10  C   UNL     1       2.623   3.792  17.476  0.00  0.00    +0.000 C 
ATOM     11  C   UNL     1       2.134   4.548  18.716  0.00  0.00    +0.000 C 
ATOM     12  N   UNL     1       2.221   5.990  18.488  0.00  0.00    +0.000 NA
ATOM     13  C   UNL     1       3.620   6.443  18.380  0.00  0.00    +0.000 C 
ATOM     14  H   UNL     1       8.376   5.547  15.312  0.00  0.00    +0.000 HD
ATOM     15  H   UNL     1       1.776   6.493  19.291  0.00  0.00    +0.000 HD
ENDROOT
TORSDOF 0
ENDMDL
MODEL 9
REMARK VINA RESULT:      -6.0      2.522      3.503
REMARK  Name = 
REMARK  0 active torsions:
REMARK  status: ('A' for Active; 'I' for Inactive)
REMARK                            x       y       z     vdW  Elec       q    Type
REMARK                         _______ _______ _______ _____ _____    ______ ____
ROOT
ATOM      1  C   UNL     1       4.480   5.403  16.775  0.00  0.00    +0.000 A 
ATOM      2  C   UNL     1       4.673   4.012  16.684  0.00  0.00    +0.000 A 
ATOM      3  C   UNL     1       4.038   3.217  17.630  0.00  0.00    +0.000 A 
ATOM      4  N   UNL     1       4.053   1.888  17.776  0.00  0.00    +0.000 N 
ATOM      5  N   UNL     1       3.302   1.607  18.835  0.00  0.00    +0.000 NA
ATOM      6  N   UNL     1       2.804   2.721  19.375  0.00  0.00    +0.000 NA
ATOM      7  C   UNL     1       3.262   3.735  18.619  0.00  0.00    +0.000 A 
ATOM      8  C   UNL     1       3.052   5.109  18.758  0.00  0.00    +0.000 A 
ATOM      9  C   UNL     1       3.663   5.957  17.796  0.00  0.00    +0.000 A 
ATOM     10  C   UNL     1       3.446   7.445  17.851  0.00  0.00    +0.000 C 
ATOM     11  C   UNL     1       2.251   7.805  18.740  0.00  0.00    +0.000 C 
ATOM     12  N   UNL     1       2.365   7.126  20.030  0.00  0.00    +0.000 NA
ATOM     13  C   UNL     1       2.222   5.665  19.892  0.00  0.00    +0.000 C 
ATOM     14  H   UNL     1       4.556   1.185  17.187  0.00  0.00    +0.000 HD
ATOM     15  H   UNL     1       1.610   7.470  20.668  0.00  0.00    +0.000 HD
ENDROOT
TORSDOF 0
ENDMDL
