MODEL 1
REMARK VINA RESULT:      -7.3      0.000      0.000
REMARK  Name = 
REMARK  5 active torsions:
REMARK  status: ('A' for Active; 'I' for Inactive)
REMARK    1  A    between atoms: C_1  and  N_2
REMARK    2  A    between atoms: N_2  and  C_3
REMARK    3  A    between atoms: C_4  and  C_6
REMARK    4  A    between atoms: N_12  and  C_13
REMARK    5  A    between atoms: C_13  and  C_14
REMARK                            x       y       z     vdW  Elec       q    Type
REMARK                         _______ _______ _______ _____ _____    ______ ____
ROOT
ATOM      1  C   UNL     1      -2.262  11.383  18.744  0.00  0.00    +0.000 C 
ATOM      2  C   UNL     1      -1.078  12.276  18.397  0.00  0.00    +0.000 C 
ATOM      3  C   UNL     1       0.060  11.617  19.130  0.00  0.00    +0.000 C 
ATOM      4  C   UNL     1      -0.288  10.129  19.035  0.00  0.00    +0.000 C 
ATOM      5  C   UNL     1       0.084   9.383  20.321  0.00  0.00    +0.000 C 
ATOM      6  C   UNL     1       1.596   9.194  20.431  0.00  0.00    +0.000 C 
ATOM      7  N   UNL     1       2.183   8.475  19.288  0.00  0.00    +0.000 NA
ATOM      8  C   UNL     1       1.865   9.180  18.033  0.00  0.00    +0.000 C 
ATOM      9  C   UNL     1       0.368   9.446  17.822  0.00  0.00    +0.000 C 
ATOM     10  O   UNL     1      -1.724  10.062  18.868  0.00  0.00    +0.000 OA
ENDROOT
BRANCH   1  14
ATOM     11  C   UNL     1      -5.685  12.148  17.150  0.00  0.00    +0.000 C 
ATOM     12  N   UNL     1      -4.634  12.010  18.143  0.00  0.00    +0.000 N 
ATOM     13  C   UNL     1      -4.932  12.348  19.525  0.00  0.00    +0.000 C 
ATOM     14  C   UNL     1      -3.402  11.531  17.706  0.00  0.00    +0.000 C 
ATOM     15  O   UNL     1      -3.211  11.281  16.510  0.00  0.00    +0.000 OA
ENDBRANCH   1  14
BRANCH   7  16
ATOM     16  C   UNL     1       1.755   7.057  19.213  0.00  0.00    +0.000 C 
BRANCH  16  17
ATOM     17  C   UNL     1       2.688   6.146  18.435  0.00  0.00    +0.000 A 
ATOM     18  C   UNL     1       2.272   4.888  18.021  0.00  0.00    +0.000 A 
ATOM     19  C   UNL     1       3.157   4.105  17.286  0.00  0.00    +0.000 A 
ATOM     20  C   UNL     1       4.431   4.599  16.974  0.00  0.00    +0.000 A 
ATOM     21  C   UNL     1       5.353   3.855  16.217  0.00  0.00    +0.000 A 
ATOM     22  C   UNL     1       6.604   4.390  15.908  0.00  0.00    +0.000 A 
ATOM     23  C   UNL     1       6.940   5.660  16.361  0.00  0.00    +0.000 A 
ATOM     24  C   UNL     1       6.024   6.390  17.121  0.00  0.00    +0.000 A 
ATOM     25  C   UNL     1       4.769   5.887  17.435  0.00  0.00    +0.000 A 
ATOM     26  N   UNL     1       3.921   6.641  18.151  0.00  0.00    +0.000 NA
ENDBRANCH  16  17
ENDBRANCH   7  16
TORSDOF 3
ENDMDL
MODEL 2
REMARK VINA RESULT:      -7.0      3.603      5.438
REMARK  Name = 
REMARK  5 active torsions:
REMARK  status: ('A' for Active; 'I' for Inactive)
REMARK    1  A    between atoms: C_1  and  N_2
REMARK    2  A    between atoms: N_2  and  C_3
REMARK    3  A    between atoms: C_4  and  C_6
REMARK    4  A    between atoms: N_12  and  C_13
REMARK    5  A    between atoms: C_13  and  C_14
REMARK                            x       y       z     vdW  Elec       q    Type
REMARK                         _______ _______ _______ _____ _____    ______ ____
ROOT
ATOM      1  C   UNL     1       2.075  14.394  18.980  0.00  0.00    +0.000 C 
ATOM      2  C   UNL     1       0.555  14.386  19.075  0.00  0.00    +0.000 C 
ATOM      3  C   UNL     1       0.208  12.968  18.707  0.00  0.00    +0.000 C 
ATOM      4  C   UNL     1       1.372  12.167  19.295  0.00  0.00    +0.000 C 
ATOM      5  C   UNL     1       1.764  10.997  18.386  0.00  0.00    +0.000 C 
ATOM      6  C   UNL     1       0.734   9.872  18.460  0.00  0.00    +0.000 C 
ATOM      7  N   UNL     1       0.525   9.355  19.822  0.00  0.00    +0.000 NA
ATOM      8  C   UNL     1       0.122  10.451  20.721  0.00  0.00    +0.000 C 
ATOM      9  C   UNL     1       1.077  11.654  20.715  0.00  0.00    +0.000 C 
ATOM     10  O   UNL     1       2.492  13.081  19.370  0.00  0.00    +0.000 OA
ENDROOT
BRANCH   1  14
ATOM     11  C   UNL     1       4.392  17.247  20.137  0.00  0.00    +0.000 C 
ATOM     12  N   UNL     1       3.843  16.160  19.343  0.00  0.00    +0.000 N 
ATOM     13  C   UNL     1       4.542  15.760  18.133  0.00  0.00    +0.000 C 
ATOM     14  C   UNL     1       2.685  15.548  19.813  0.00  0.00    +0.000 C 
ATOM     15  O   UNL     1       2.131  15.954  20.842  0.00  0.00    +0.000 OA
ENDBRANCH   1  14
BRANCH   7  16
ATOM     16  C   UNL     1       1.711   8.647  20.362  0.00  0.00    +0.000 C 
BRANCH  16  17
ATOM     17  C   UNL     1       1.949   7.263  19.787  0.00  0.00    +0.000 A 
ATOM     18  C   UNL     1       2.562   7.101  18.552  0.00  0.00    +0.000 A 
ATOM     19  C   UNL     1       2.782   5.808  18.085  0.00  0.00    +0.000 A 
ATOM     20  C   UNL     1       2.395   4.710  18.863  0.00  0.00    +0.000 A 
ATOM     21  C   UNL     1       2.614   3.386  18.445  0.00  0.00    +0.000 A 
ATOM     22  C   UNL     1       2.233   2.319  19.258  0.00  0.00    +0.000 A 
ATOM     23  C   UNL     1       1.627   2.569  20.484  0.00  0.00    +0.000 A 
ATOM     24  C   UNL     1       1.402   3.887  20.889  0.00  0.00    +0.000 A 
ATOM     25  C   UNL     1       1.779   4.967  20.105  0.00  0.00    +0.000 A 
ATOM     26  N   UNL     1       1.557   6.212  20.554  0.00  0.00    +0.000 NA
ENDBRANCH  16  17
ENDBRANCH   7  16
TORSDOF 3
ENDMDL
MODEL 3
REMARK VINA RESULT:      -6.9      2.151      2.648
REMARK  Name = 
REMARK  5 active torsions:
REMARK  status: ('A' for Active; 'I' for Inactive)
REMARK    1  A    between atoms: C_1  and  N_2
REMARK    2  A    between atoms: N_2  and  C_3
REMARK    3  A    between atoms: C_4  and  C_6
REMARK    4  A    between atoms: N_12  and  C_13
REMARK    5  A    between atoms: C_13  and  C_14
REMARK                            x       y       z     vdW  Elec       q    Type
REMARK                         _______ _______ _______ _____ _____    ______ ____
ROOT
ATOM      1  C   UNL     1      -1.826  12.868  20.557  0.00  0.00    +0.000 C 
ATOM      2  C   UNL     1      -2.053  12.990  19.056  0.00  0.00    +0.000 C 
ATOM      3  C   UNL     1      -0.741  12.523  18.484  0.00  0.00    +0.000 C 
ATOM      4  C   UNL     1      -0.307  11.433  19.467  0.00  0.00    +0.000 C 
ATOM      5  C   UNL     1       1.209  11.446  19.688  0.00  0.00    +0.000 C 
ATOM      6  C   UNL     1       1.947  10.881  18.476  0.00  0.00    +0.000 C 
ATOM      7  N   UNL     1       1.538   9.511  18.125  0.00  0.00    +0.000 NA
ATOM      8  C   UNL     1       0.086   9.465  17.882  0.00  0.00    +0.000 C 
ATOM      9  C   UNL     1      -0.763  10.030  19.030  0.00  0.00    +0.000 C 
ATOM     10  O   UNL     1      -0.954  11.745  20.724  0.00  0.00    +0.000 OA
ENDROOT
BRANCH   1  14
ATOM     11  C   UNL     1      -4.453  13.009  23.372  0.00  0.00    +0.000 C 
ATOM     12  N   UNL     1      -3.180  13.097  22.677  0.00  0.00    +0.000 N 
ATOM     13  C   UNL     1      -1.999  13.485  23.430  0.00  0.00    +0.000 C 
ATOM     14  C   UNL     1      -3.168  12.773  21.323  0.00  0.00    +0.000 C 
ATOM     15  O   UNL     1      -4.215  12.468  20.739  0.00  0.00    +0.000 OA
ENDBRANCH   1  14
BRANCH   7  16
ATOM     16  C   UNL     1       1.928   8.510  19.148  0.00  0.00    +0.000 C 
BRANCH  16  17
ATOM     17  C   UNL     1       2.593   7.260  18.602  0.00  0.00    +0.000 A 
ATOM     18  C   UNL     1       2.208   6.000  19.041  0.00  0.00    +0.000 A 
ATOM     19  C   UNL     1       2.830   4.885  18.485  0.00  0.00    +0.000 A 
ATOM     20  C   UNL     1       3.812   5.054  17.500  0.00  0.00    +0.000 A 
ATOM     21  C   UNL     1       4.455   3.960  16.894  0.00  0.00    +0.000 A 
ATOM     22  C   UNL     1       5.413   4.167  15.902  0.00  0.00    +0.000 A 
ATOM     23  C   UNL     1       5.737   5.463  15.519  0.00  0.00    +0.000 A 
ATOM     24  C   UNL     1       5.104   6.547  16.132  0.00  0.00    +0.000 A 
ATOM     25  C   UNL     1       4.141   6.369  17.115  0.00  0.00    +0.000 A 
ATOM     26  N   UNL     1       3.549   7.445  17.655  0.00  0.00    +0.000 NA
ENDBRANCH  16  17
ENDBRANCH   7  16
TORSDOF 3
ENDMDL
MODEL 4
REMARK VINA RESULT:      -6.8      5.939      8.597
REMARK  Name = 
REMARK  5 active torsions:
REMARK  status: ('A' for Active; 'I' for Inactive)
REMARK    1  A    between atoms: C_1  and  N_2
REMARK    2  A    between atoms: N_2  and  C_3
REMARK    3  A    between atoms: C_4  and  C_6
REMARK    4  A    between atoms: N_12  and  C_13
REMARK    5  A    between atoms: C_13  and  C_14
REMARK                            x       y       z     vdW  Elec       q    Type
REMARK                         _______ _______ _______ _____ _____    ______ ____
ROOT
ATOM      1  C   UNL     1       3.123   4.177  18.406  0.00  0.00    +0.000 C 
ATOM      2  C   UNL     1       3.770   3.495  17.208  0.00  0.00    +0.000 C 
ATOM      3  C   UNL     1       4.655   4.578  16.650  0.00  0.00    +0.000 C 
ATOM      4  C   UNL     1       5.121   5.320  17.905  0.00  0.00    +0.000 C 
ATOM      5  C   UNL     1       5.219   6.829  17.661  0.00  0.00    +0.000 C 
ATOM      6  C   UNL     1       6.436   7.171  16.803  0.00  0.00    +0.000 C 
ATOM      7  N   UNL     1       7.709   6.708  17.378  0.00  0.00    +0.000 NA
ATOM      8  C   UNL     1       7.660   5.253  17.604  0.00  0.00    +0.000 C 
ATOM      9  C   UNL     1       6.461   4.786  18.442  0.00  0.00    +0.000 C 
ATOM     10  O   UNL     1       4.107   5.085  18.911  0.00  0.00    +0.000 OA
ENDROOT
BRANCH   1  14
ATOM     11  C   UNL     1       1.347   2.599  21.440  0.00  0.00    +0.000 C 
ATOM     12  N   UNL     1       1.830   3.593  20.496  0.00  0.00    +0.000 N 
ATOM     13  C   UNL     1       1.505   4.990  20.728  0.00  0.00    +0.000 C 
ATOM     14  C   UNL     1       2.604   3.139  19.432  0.00  0.00    +0.000 C 
ATOM     15  O   UNL     1       2.826   1.931  19.284  0.00  0.00    +0.000 OA
ENDBRANCH   1  14
BRANCH   7  16
ATOM     16  C   UNL     1       8.074   7.418  18.628  0.00  0.00    +0.000 C 
BRANCH  16  17
ATOM     17  C   UNL     1       8.430   8.883  18.453  0.00  0.00    +0.000 A 
ATOM     18  C   UNL     1       7.855   9.640  17.441  0.00  0.00    +0.000 A 
ATOM     19  C   UNL     1       8.194  10.986  17.343  0.00  0.00    +0.000 A 
ATOM     20  C   UNL     1       9.091  11.547  18.262  0.00  0.00    +0.000 A 
ATOM     21  C   UNL     1       9.450  12.906  18.218  0.00  0.00    +0.000 A 
ATOM     22  C   UNL     1      10.329  13.432  19.164  0.00  0.00    +0.000 A 
ATOM     23  C   UNL     1      10.858  12.605  20.148  0.00  0.00    +0.000 A 
ATOM     24  C   UNL     1      10.506  11.254  20.180  0.00  0.00    +0.000 A 
ATOM     25  C   UNL     1       9.627  10.706  19.258  0.00  0.00    +0.000 A 
ATOM     26  N   UNL     1       9.308   9.405  19.349  0.00  0.00    +0.000 NA
ENDBRANCH  16  17
ENDBRANCH   7  16
TORSDOF 3
ENDMDL
MODEL 5
REMARK VINA RESULT:      -6.7      3.261      4.551
REMARK  Name = 
REMARK  5 active torsions:
REMARK  status: ('A' for Active; 'I' for Inactive)
REMARK    1  A    between atoms: C_1  and  N_2
REMARK    2  A    between atoms: N_2  and  C_3
REMARK    3  A    between atoms: C_4  and  C_6
REMARK    4  A    between atoms: N_12  and  C_13
REMARK    5  A    between atoms: C_13  and  C_14
REMARK                            x       y       z     vdW  Elec       q    Type
REMARK                         _______ _______ _______ _____ _____    ______ ____
ROOT
ATOM      1  C   UNL     1       1.505  14.301  19.088  0.00  0.00    +0.000 C 
ATOM      2  C   UNL     1      -0.005  14.122  19.005  0.00  0.00    +0.000 C 
ATOM      3  C   UNL     1      -0.146  12.675  18.614  0.00  0.00    +0.000 C 
ATOM      4  C   UNL     1       1.023  12.008  19.343  0.00  0.00    +0.000 C 
ATOM      5  C   UNL     1       1.647  10.892  18.499  0.00  0.00    +0.000 C 
ATOM      6  C   UNL     1       0.746   9.658  18.464  0.00  0.00    +0.000 C 
ATOM      7  N   UNL     1       0.438   9.118  19.799  0.00  0.00    +0.000 NA
ATOM      8  C   UNL     1      -0.187  10.160  20.632  0.00  0.00    +0.000 C 
ATOM      9  C   UNL     1       0.622  11.462  20.724  0.00  0.00    +0.000 C 
ATOM     10  O   UNL     1       2.017  13.042  19.538  0.00  0.00    +0.000 OA
ENDROOT
BRANCH   1  14
ATOM     11  C   UNL     1       2.899  17.705  20.234  0.00  0.00    +0.000 C 
ATOM     12  N   UNL     1       2.565  16.574  19.385  0.00  0.00    +0.000 N 
ATOM     13  C   UNL     1       2.984  16.599  17.993  0.00  0.00    +0.000 C 
ATOM     14  C   UNL     1       1.881  15.514  19.973  0.00  0.00    +0.000 C 
ATOM     15  O   UNL     1       1.538  15.567  21.161  0.00  0.00    +0.000 OA
ENDBRANCH   1  14
BRANCH   7  16
ATOM     16  C   UNL     1       1.625   8.546  20.481  0.00  0.00    +0.000 C 
BRANCH  16  17
ATOM     17  C   UNL     1       2.109   7.221  19.922  0.00  0.00    +0.000 A 
ATOM     18  C   UNL     1       1.680   6.019  20.468  0.00  0.00    +0.000 A 
ATOM     19  C   UNL     1       2.132   4.832  19.898  0.00  0.00    +0.000 A 
ATOM     20  C   UNL     1       2.992   4.873  18.794  0.00  0.00    +0.000 A 
ATOM     21  C   UNL     1       3.460   3.703  18.170  0.00  0.00    +0.000 A 
ATOM     22  C   UNL     1       4.299   3.784  17.059  0.00  0.00    +0.000 A 
ATOM     23  C   UNL     1       4.680   5.030  16.574  0.00  0.00    +0.000 A 
ATOM     24  C   UNL     1       4.221   6.189  17.204  0.00  0.00    +0.000 A 
ATOM     25  C   UNL     1       3.378   6.137  18.304  0.00  0.00    +0.000 A 
ATOM     26  N   UNL     1       2.950   7.283  18.857  0.00  0.00    +0.000 NA
ENDBRANCH  16  17
ENDBRANCH   7  16
TORSDOF 3
ENDMDL
MODEL 6
REMARK VINA RESULT:      -6.6      3.395      5.087
REMARK  Name = 
REMARK  5 active torsions:
REMARK  status: ('A' for Active; 'I' for Inactive)
REMARK    1  A    between atoms: C_1  and  N_2
REMARK    2  A    between atoms: N_2  and  C_3
REMARK    3  A    between atoms: C_4  and  C_6
REMARK    4  A    between atoms: N_12  and  C_13
REMARK    5  A    between atoms: C_13  and  C_14
REMARK                            x       y       z     vdW  Elec       q    Type
REMARK                         _______ _______ _______ _____ _____    ______ ____
ROOT
ATOM      1  C   UNL     1       1.377  14.089  20.376  0.00  0.00    +0.000 C 
ATOM      2  C   UNL     1      -0.123  13.840  20.451  0.00  0.00    +0.000 C 
ATOM      3  C   UNL     1      -0.277  12.527  19.732  0.00  0.00    +0.000 C 
ATOM      4  C   UNL     1       1.004  11.778  20.108  0.00  0.00    +0.000 C 
ATOM      5  C   UNL     1       1.531  10.944  18.936  0.00  0.00    +0.000 C 
ATOM      6  C   UNL     1       0.671   9.701  18.713  0.00  0.00    +0.000 C 
ATOM      7  N   UNL     1       0.575   8.833  19.898  0.00  0.00    +0.000 NA
ATOM      8  C   UNL     1       0.046   9.597  21.041  0.00  0.00    +0.000 C 
ATOM      9  C   UNL     1       0.822  10.886  21.349  0.00  0.00    +0.000 C 
ATOM     10  O   UNL     1       1.985  12.794  20.424  0.00  0.00    +0.000 OA
ENDROOT
BRANCH   1  14
ATOM     11  C   UNL     1       3.089  17.039  22.169  0.00  0.00    +0.000 C 
ATOM     12  N   UNL     1       2.674  16.126  21.117  0.00  0.00    +0.000 N 
ATOM     13  C   UNL     1       3.168  16.346  19.768  0.00  0.00    +0.000 C 
ATOM     14  C   UNL     1       1.842  15.071  21.480  0.00  0.00    +0.000 C 
ATOM     15  O   UNL     1       1.443  14.954  22.645  0.00  0.00    +0.000 OA
ENDBRANCH   1  14
BRANCH   7  16
ATOM     16  C   UNL     1       1.863   8.188  20.251  0.00  0.00    +0.000 C 
BRANCH  16  17
ATOM     17  C   UNL     1       2.182   6.923  19.476  0.00  0.00    +0.000 A 
ATOM     18  C   UNL     1       2.966   6.969  18.331  0.00  0.00    +0.000 A 
ATOM     19  C   UNL     1       3.252   5.776  17.674  0.00  0.00    +0.000 A 
ATOM     20  C   UNL     1       2.758   4.566  18.180  0.00  0.00    +0.000 A 
ATOM     21  C   UNL     1       3.036   3.332  17.565  0.00  0.00    +0.000 A 
ATOM     22  C   UNL     1       2.544   2.147  18.111  0.00  0.00    +0.000 A 
ATOM     23  C   UNL     1       1.767   2.190  19.263  0.00  0.00    +0.000 A 
ATOM     24  C   UNL     1       1.485   3.419  19.864  0.00  0.00    +0.000 A 
ATOM     25  C   UNL     1       1.970   4.612  19.347  0.00  0.00    +0.000 A 
ATOM     26  N   UNL     1       1.685   5.763  19.978  0.00  0.00    +0.000 NA
ENDBRANCH  16  17
ENDBRANCH   7  16
TORSDOF 3
ENDMDL
MODEL 7
REMARK VINA RESULT:      -6.5      3.967      9.287
REMARK  Name = 
REMARK  5 active torsions:
REMARK  status: ('A' for Active; 'I' for Inactive)
REMARK    1  A    between atoms: C_1  and  N_2
REMARK    2  A    between atoms: N_2  and  C_3
REMARK    3  A    between atoms: C_4  and  C_6
REMARK    4  A    between atoms: N_12  and  C_13
REMARK    5  A    between atoms: C_13  and  C_14
REMARK                            x       y       z     vdW  Elec       q    Type
REMARK                         _______ _______ _______ _____ _____    ______ ____
ROOT
ATOM      1  C   UNL     1       6.491   5.021  15.022  0.00  0.00    +0.000 C 
ATOM      2  C   UNL     1       7.295   4.265  16.071  0.00  0.00    +0.000 C 
ATOM      3  C   UNL     1       6.800   4.861  17.362  0.00  0.00    +0.000 C 
ATOM      4  C   UNL     1       5.323   5.139  17.066  0.00  0.00    +0.000 C 
ATOM      5  C   UNL     1       4.855   6.441  17.723  0.00  0.00    +0.000 C 
ATOM      6  C   UNL     1       4.693   6.269  19.232  0.00  0.00    +0.000 C 
ATOM      7  N   UNL     1       3.757   5.195  19.604  0.00  0.00    +0.000 NA
ATOM      8  C   UNL     1       4.191   3.920  19.008  0.00  0.00    +0.000 C 
ATOM      9  C   UNL     1       4.409   3.976  17.489  0.00  0.00    +0.000 C 
ATOM     10  O   UNL     1       5.223   5.291  15.630  0.00  0.00    +0.000 OA
ENDROOT
BRANCH   1  14
ATOM     11  C   UNL     1       7.242   3.817  11.440  0.00  0.00    +0.000 C 
ATOM     12  N   UNL     1       7.318   4.575  12.677  0.00  0.00    +0.000 N 
ATOM     13  C   UNL     1       8.291   5.649  12.778  0.00  0.00    +0.000 C 
ATOM     14  C   UNL     1       6.424   4.235  13.690  0.00  0.00    +0.000 C 
ATOM     15  O   UNL     1       5.634   3.295  13.543  0.00  0.00    +0.000 OA
ENDBRANCH   1  14
BRANCH   7  16
ATOM     16  C   UNL     1       2.353   5.494  19.232  0.00  0.00    +0.000 C 
BRANCH  16  17
ATOM     17  C   UNL     1       1.922   6.932  19.455  0.00  0.00    +0.000 A 
ATOM     18  C   UNL     1       1.963   7.856  18.419  0.00  0.00    +0.000 A 
ATOM     19  C   UNL     1       1.529   9.154  18.670  0.00  0.00    +0.000 A 
ATOM     20  C   UNL     1       1.056   9.497  19.944  0.00  0.00    +0.000 A 
ATOM     21  C   UNL     1       0.587  10.789  20.242  0.00  0.00    +0.000 A 
ATOM     22  C   UNL     1       0.104  11.086  21.516  0.00  0.00    +0.000 A 
ATOM     23  C   UNL     1       0.096  10.100  22.496  0.00  0.00    +0.000 A 
ATOM     24  C   UNL     1       0.573   8.821  22.197  0.00  0.00    +0.000 A 
ATOM     25  C   UNL     1       1.050   8.496  20.936  0.00  0.00    +0.000 A 
ATOM     26  N   UNL     1       1.476   7.246  20.699  0.00  0.00    +0.000 NA
ENDBRANCH  16  17
ENDBRANCH   7  16
TORSDOF 3
ENDMDL
MODEL 8
REMARK VINA RESULT:      -6.5      3.749      4.922
REMARK  Name = 
REMARK  5 active torsions:
REMARK  status: ('A' for Active; 'I' for Inactive)
REMARK    1  A    between atoms: C_1  and  N_2
REMARK    2  A    between atoms: N_2  and  C_3
REMARK    3  A    between atoms: C_4  and  C_6
REMARK    4  A    between atoms: N_12  and  C_13
REMARK    5  A    between atoms: C_13  and  C_14
REMARK                            x       y       z     vdW  Elec       q    Type
REMARK                         _______ _______ _______ _____ _____    ______ ____
ROOT
ATOM      1  C   UNL     1      -1.455  14.196  22.287  0.00  0.00    +0.000 C 
ATOM      2  C   UNL     1      -2.685  13.341  22.561  0.00  0.00    +0.000 C 
ATOM      3  C   UNL     1      -2.489  12.172  21.633  0.00  0.00    +0.000 C 
ATOM      4  C   UNL     1      -0.969  11.984  21.635  0.00  0.00    +0.000 C 
ATOM      5  C   UNL     1      -0.452  11.582  20.250  0.00  0.00    +0.000 C 
ATOM      6  C   UNL     1      -0.799  10.129  19.932  0.00  0.00    +0.000 C 
ATOM      7  N   UNL     1      -0.279   9.171  20.921  0.00  0.00    +0.000 NA
ATOM      8  C   UNL     1      -0.777   9.513  22.265  0.00  0.00    +0.000 C 
ATOM      9  C   UNL     1      -0.504  10.963  22.688  0.00  0.00    +0.000 C 
ATOM     10  O   UNL     1      -0.406  13.273  21.976  0.00  0.00    +0.000 OA
ENDROOT
BRANCH   1  14
ATOM     11  C   UNL     1      -1.116  17.385  24.423  0.00  0.00    +0.000 C 
ATOM     12  N   UNL     1      -1.394  16.511  23.295  0.00  0.00    +0.000 N 
ATOM     13  C   UNL     1      -1.869  17.102  22.056  0.00  0.00    +0.000 C 
ATOM     14  C   UNL     1      -1.158  15.150  23.470  0.00  0.00    +0.000 C 
ATOM     15  O   UNL     1      -0.771  14.712  24.560  0.00  0.00    +0.000 OA
ENDBRANCH   1  14
BRANCH   7  16
ATOM     16  C   UNL     1       1.202   9.083  20.921  0.00  0.00    +0.000 C 
BRANCH  16  17
ATOM     17  C   UNL     1       1.782   8.034  19.989  0.00  0.00    +0.000 A 
ATOM     18  C   UNL     1       2.159   8.363  18.694  0.00  0.00    +0.000 A 
ATOM     19  C   UNL     1       2.713   7.370  17.892  0.00  0.00    +0.000 A 
ATOM     20  C   UNL     1       2.886   6.077  18.403  0.00  0.00    +0.000 A 
ATOM     21  C   UNL     1       3.460   5.045  17.639  0.00  0.00    +0.000 A 
ATOM     22  C   UNL     1       3.636   3.776  18.190  0.00  0.00    +0.000 A 
ATOM     23  C   UNL     1       3.233   3.532  19.498  0.00  0.00    +0.000 A 
ATOM     24  C   UNL     1       2.654   4.558  20.248  0.00  0.00    +0.000 A 
ATOM     25  C   UNL     1       2.476   5.832  19.728  0.00  0.00    +0.000 A 
ATOM     26  N   UNL     1       1.934   6.785  20.501  0.00  0.00    +0.000 NA
ENDBRANCH  16  17
ENDBRANCH   7  16
TORSDOF 3
ENDMDL
MODEL 9
REMARK VINA RESULT:      -6.5      3.587      5.036
REMARK  Name = 
REMARK  5 active torsions:
REMARK  status: ('A' for Active; 'I' for Inactive)
REMARK    1  A    between atoms: C_1  and  N_2
REMARK    2  A    between atoms: N_2  and  C_3
REMARK    3  A    between atoms: C_4  and  C_6
REMARK    4  A    between atoms: N_12  and  C_13
REMARK    5  A    between atoms: C_13  and  C_14
REMARK                            x       y       z     vdW  Elec       q    Type
REMARK                         _______ _______ _______ _____ _____    ______ ____
ROOT
ATOM      1  C   UNL     1       0.610  14.546  20.829  0.00  0.00    +0.000 C 
ATOM      2  C   UNL     1      -0.793  14.204  20.345  0.00  0.00    +0.000 C 
ATOM      3  C   UNL     1      -0.553  13.020  19.445  0.00  0.00    +0.000 C 
ATOM      4  C   UNL     1       0.603  12.293  20.137  0.00  0.00    +0.000 C 
ATOM      5  C   UNL     1       1.580  11.696  19.119  0.00  0.00    +0.000 C 
ATOM      6  C   UNL     1       0.986  10.461  18.445  0.00  0.00    +0.000 C 
ATOM      7  N   UNL     1       0.596   9.404  19.392  0.00  0.00    +0.000 NA
ATOM      8  C   UNL     1      -0.365   9.938  20.374  0.00  0.00    +0.000 C 
ATOM      9  C   UNL     1       0.117  11.200  21.105  0.00  0.00    +0.000 C 
ATOM     10  O   UNL     1       1.305  13.297  20.908  0.00  0.00    +0.000 OA
ENDROOT
BRANCH   1  14
ATOM     11  C   UNL     1       1.026  17.392  23.392  0.00  0.00    +0.000 C 
ATOM     12  N   UNL     1       1.085  16.649  22.145  0.00  0.00    +0.000 N 
ATOM     13  C   UNL     1       1.699  17.277  20.987  0.00  0.00    +0.000 C 
ATOM     14  C   UNL     1       0.568  15.356  22.148  0.00  0.00    +0.000 C 
ATOM     15  O   UNL     1       0.042  14.890  23.166  0.00  0.00    +0.000 OA
ENDBRANCH   1  14
BRANCH   7  16
ATOM     16  C   UNL     1       1.755   8.784  20.080  0.00  0.00    +0.000 C 
BRANCH  16  17
ATOM     17  C   UNL     1       2.082   7.370  19.637  0.00  0.00    +0.000 A 
ATOM     18  C   UNL     1       2.685   7.131  18.409  0.00  0.00    +0.000 A 
ATOM     19  C   UNL     1       2.991   5.817  18.065  0.00  0.00    +0.000 A 
ATOM     20  C   UNL     1       2.697   4.777  18.955  0.00  0.00    +0.000 A 
ATOM     21  C   UNL     1       3.004   3.436  18.663  0.00  0.00    +0.000 A 
ATOM     22  C   UNL     1       2.715   2.430  19.584  0.00  0.00    +0.000 A 
ATOM     23  C   UNL     1       2.111   2.757  20.793  0.00  0.00    +0.000 A 
ATOM     24  C   UNL     1       1.798   4.089  21.074  0.00  0.00    +0.000 A 
ATOM     25  C   UNL     1       2.084   5.110  20.180  0.00  0.00    +0.000 A 
ATOM     26  N   UNL     1       1.780   6.375  20.511  0.00  0.00    +0.000 NA
ENDBRANCH  16  17
ENDBRANCH   7  16
TORSDOF 3
ENDMDL
