MODEL 1
REMARK VINA RESULT:      -8.7      0.000      0.000
REMARK  Name = 
REMARK  5 active torsions:
REMARK  status: ('A' for Active; 'I' for Inactive)
REMARK    1  A    between atoms: C_2  and  C_19
REMARK    2  A    between atoms: N_3  and  C_4
REMARK    3  A    between atoms: C_8  and  S_9
REMARK    4  A    between atoms: S_9  and  N_12
REMARK    5  A    between atoms: C_22  and  N_23
REMARK                            x       y       z     vdW  Elec       q    Type
REMARK                         _______ _______ _______ _____ _____    ______ ____
ROOT
ATOM      1  O   UNL     1       8.370   6.998  18.847  0.00  0.00    +0.000 OA
ATOM      2  C   UNL     1       7.888   7.860  18.119  0.00  0.00    +0.000 C 
ATOM      3  N   UNL     1       6.905   7.667  17.158  0.00  0.00    +0.000 N 
ATOM      4  H   UNL     1       6.633   8.455  16.590  0.00  0.00    +0.000 HD
ENDROOT
BRANCH   3   5
ATOM      5  C   UNL     1       6.266   6.446  16.862  0.00  0.00    +0.000 A 
ATOM      6  C   UNL     1       6.837   5.462  16.050  0.00  0.00    +0.000 A 
ATOM      7  C   UNL     1       6.161   4.272  15.780  0.00  0.00    +0.000 A 
ATOM      8  C   UNL     1       4.888   4.062  16.299  0.00  0.00    +0.000 A 
ATOM      9  C   UNL     1       4.300   5.051  17.090  0.00  0.00    +0.000 A 
ATOM     10  C   UNL     1       5.002   6.225  17.414  0.00  0.00    +0.000 A 
BRANCH   9  11
ATOM     11  S   UNL     1       2.652   4.796  17.737  0.00  0.00    +0.000 S 
ATOM     12  O   UNL     1       2.058   6.102  17.926  0.00  0.00    +0.000 OA
ATOM     13  O   UNL     1       2.017   3.799  16.900  0.00  0.00    +0.000 OA
BRANCH  11  14
ATOM     14  N   UNL     1       2.925   4.100  19.287  0.00  0.00    +0.000 NA
ATOM     15  C   UNL     1       1.830   4.306  20.268  0.00  0.00    +0.000 C 
ATOM     16  C   UNL     1       2.212   3.805  21.657  0.00  0.00    +0.000 C 
ATOM     17  C   UNL     1       2.685   2.361  21.608  0.00  0.00    +0.000 C 
ATOM     18  C   UNL     1       3.877   2.258  20.668  0.00  0.00    +0.000 C 
ATOM     19  C   UNL     1       3.510   2.733  19.266  0.00  0.00    +0.000 C 
ENDBRANCH  11  14
ENDBRANCH   9  11
ENDBRANCH   3   5
BRANCH   2  20
ATOM     20  C   UNL     1       8.414   9.249  18.253  0.00  0.00    +0.000 A 
ATOM     21  C   UNL     1       9.330   9.617  19.236  0.00  0.00    +0.000 A 
ATOM     22  C   UNL     1       9.772  10.943  19.323  0.00  0.00    +0.000 A 
ATOM     23  C   UNL     1       9.291  11.938  18.460  0.00  0.00    +0.000 A 
ATOM     24  C   UNL     1       8.356  11.555  17.488  0.00  0.00    +0.000 A 
ATOM     25  C   UNL     1       7.925  10.226  17.381  0.00  0.00    +0.000 A 
BRANCH  23  26
ATOM     26  N   UNL     1       9.710  13.290  18.582  0.00  0.00    +0.000 N 
ATOM     27  C   UNL     1       9.416  14.092  19.747  0.00  0.00    +0.000 C 
ATOM     28  C   UNL     1       9.805  15.499  19.348  0.00  0.00    +0.000 C 
ATOM     29  C   UNL     1      10.926  15.294  18.351  0.00  0.00    +0.000 C 
ATOM     30  C   UNL     1      10.602  13.960  17.729  0.00  0.00    +0.000 C 
ATOM     31  O   UNL     1      11.101  13.585  16.678  0.00  0.00    +0.000 OA
ENDBRANCH  23  26
ENDBRANCH   2  20
TORSDOF 5
ENDMDL
MODEL 2
REMARK VINA RESULT:      -8.5      0.823      1.308
REMARK  Name = 
REMARK  5 active torsions:
REMARK  status: ('A' for Active; 'I' for Inactive)
REMARK    1  A    between atoms: C_2  and  C_19
REMARK    2  A    between atoms: N_3  and  C_4
REMARK    3  A    between atoms: C_8  and  S_9
REMARK    4  A    between atoms: S_9  and  N_12
REMARK    5  A    between atoms: C_22  and  N_23
REMARK                            x       y       z     vdW  Elec       q    Type
REMARK                         _______ _______ _______ _____ _____    ______ ____
ROOT
ATOM      1  O   UNL     1       8.458   7.054  18.847  0.00  0.00    +0.000 OA
ATOM      2  C   UNL     1       7.926   7.903  18.139  0.00  0.00    +0.000 C 
ATOM      3  N   UNL     1       6.939   7.677  17.189  0.00  0.00    +0.000 N 
ATOM      4  H   UNL     1       6.622   8.459  16.636  0.00  0.00    +0.000 HD
ENDROOT
BRANCH   3   5
ATOM      5  C   UNL     1       6.354   6.431  16.883  0.00  0.00    +0.000 A 
ATOM      6  C   UNL     1       6.990   5.459  16.107  0.00  0.00    +0.000 A 
ATOM      7  C   UNL     1       6.367   4.243  15.826  0.00  0.00    +0.000 A 
ATOM      8  C   UNL     1       5.082   3.995  16.297  0.00  0.00    +0.000 A 
ATOM      9  C   UNL     1       4.429   4.973  17.051  0.00  0.00    +0.000 A 
ATOM     10  C   UNL     1       5.078   6.173  17.387  0.00  0.00    +0.000 A 
BRANCH   9  11
ATOM     11  S   UNL     1       2.766   4.668  17.635  0.00  0.00    +0.000 S 
ATOM     12  O   UNL     1       2.109   5.952  17.748  0.00  0.00    +0.000 OA
ATOM     13  O   UNL     1       2.213   3.614  16.810  0.00  0.00    +0.000 OA
BRANCH  11  14
ATOM     14  N   UNL     1       2.999   4.042  19.221  0.00  0.00    +0.000 NA
ATOM     15  C   UNL     1       1.875   4.283  20.161  0.00  0.00    +0.000 C 
ATOM     16  C   UNL     1       2.219   3.845  21.580  0.00  0.00    +0.000 C 
ATOM     17  C   UNL     1       2.702   2.404  21.608  0.00  0.00    +0.000 C 
ATOM     18  C   UNL     1       3.921   2.269  20.708  0.00  0.00    +0.000 C 
ATOM     19  C   UNL     1       3.593   2.680  19.276  0.00  0.00    +0.000 C 
ENDBRANCH  11  14
ENDBRANCH   9  11
ENDBRANCH   3   5
BRANCH   2  20
ATOM     20  C   UNL     1       8.387   9.313  18.286  0.00  0.00    +0.000 A 
ATOM     21  C   UNL     1       7.995  10.330  17.416  0.00  0.00    +0.000 A 
ATOM     22  C   UNL     1       8.478  11.631  17.595  0.00  0.00    +0.000 A 
ATOM     23  C   UNL     1       9.384  11.947  18.617  0.00  0.00    +0.000 A 
ATOM     24  C   UNL     1       9.782  10.910  19.472  0.00  0.00    +0.000 A 
ATOM     25  C   UNL     1       9.287   9.610  19.313  0.00  0.00    +0.000 A 
BRANCH  23  26
ATOM     26  N   UNL     1       9.905  13.260  18.765  0.00  0.00    +0.000 N 
ATOM     27  C   UNL     1      11.320  13.546  18.714  0.00  0.00    +0.000 C 
ATOM     28  C   UNL     1      11.435  14.983  19.172  0.00  0.00    +0.000 C 
ATOM     29  C   UNL     1      10.125  15.606  18.739  0.00  0.00    +0.000 C 
ATOM     30  C   UNL     1       9.158  14.450  18.778  0.00  0.00    +0.000 C 
ATOM     31  O   UNL     1       7.946  14.606  18.783  0.00  0.00    +0.000 OA
ENDBRANCH  23  26
ENDBRANCH   2  20
TORSDOF 5
ENDMDL
MODEL 3
REMARK VINA RESULT:      -8.5      5.699      8.078
REMARK  Name = 
REMARK  5 active torsions:
REMARK  status: ('A' for Active; 'I' for Inactive)
REMARK    1  A    between atoms: C_2  and  C_19
REMARK    2  A    between atoms: N_3  and  C_4
REMARK    3  A    between atoms: C_8  and  S_9
REMARK    4  A    between atoms: S_9  and  N_12
REMARK    5  A    between atoms: C_22  and  N_23
REMARK                            x       y       z     vdW  Elec       q    Type
REMARK                         _______ _______ _______ _____ _____    ______ ____
ROOT
ATOM      1  O   UNL     1       2.486   8.382  17.268  0.00  0.00    +0.000 OA
ATOM      2  C   UNL     1       2.294   7.974  18.409  0.00  0.00    +0.000 C 
ATOM      3  N   UNL     1       2.644   6.726  18.903  0.00  0.00    +0.000 N 
ATOM      4  H   UNL     1       2.381   6.497  19.850  0.00  0.00    +0.000 HD
ENDROOT
BRANCH   3   5
ATOM      5  C   UNL     1       3.305   5.708  18.186  0.00  0.00    +0.000 A 
ATOM      6  C   UNL     1       2.780   4.423  18.023  0.00  0.00    +0.000 A 
ATOM      7  C   UNL     1       3.477   3.447  17.311  0.00  0.00    +0.000 A 
ATOM      8  C   UNL     1       4.727   3.738  16.774  0.00  0.00    +0.000 A 
ATOM      9  C   UNL     1       5.271   5.011  16.955  0.00  0.00    +0.000 A 
ATOM     10  C   UNL     1       4.544   6.014  17.620  0.00  0.00    +0.000 A 
BRANCH   9  11
ATOM     11  S   UNL     1       6.889   5.379  16.289  0.00  0.00    +0.000 S 
ATOM     12  O   UNL     1       7.113   6.798  16.466  0.00  0.00    +0.000 OA
ATOM     13  O   UNL     1       7.806   4.403  16.838  0.00  0.00    +0.000 OA
BRANCH  11  14
ATOM     14  N   UNL     1       6.718   5.067  14.606  0.00  0.00    +0.000 NA
ATOM     15  C   UNL     1       7.903   5.416  13.781  0.00  0.00    +0.000 C 
ATOM     16  C   UNL     1       7.620   5.265  12.290  0.00  0.00    +0.000 C 
ATOM     17  C   UNL     1       7.076   3.882  11.972  0.00  0.00    +0.000 C 
ATOM     18  C   UNL     1       5.804   3.649  12.773  0.00  0.00    +0.000 C 
ATOM     19  C   UNL     1       6.070   3.772  14.270  0.00  0.00    +0.000 C 
ENDBRANCH  11  14
ENDBRANCH   9  11
ENDBRANCH   3   5
BRANCH   2  20
ATOM     20  C   UNL     1       1.600   8.888  19.361  0.00  0.00    +0.000 A 
ATOM     21  C   UNL     1       1.424   8.580  20.709  0.00  0.00    +0.000 A 
ATOM     22  C   UNL     1       0.746   9.471  21.550  0.00  0.00    +0.000 A 
ATOM     23  C   UNL     1       0.198  10.668  21.067  0.00  0.00    +0.000 A 
ATOM     24  C   UNL     1       0.367  10.954  19.705  0.00  0.00    +0.000 A 
ATOM     25  C   UNL     1       1.064  10.078  18.862  0.00  0.00    +0.000 A 
BRANCH  23  26
ATOM     26  N   UNL     1      -0.527  11.546  21.916  0.00  0.00    +0.000 N 
ATOM     27  C   UNL     1      -1.414  11.069  22.952  0.00  0.00    +0.000 C 
ATOM     28  C   UNL     1      -2.156  12.303  23.416  0.00  0.00    +0.000 C 
ATOM     29  C   UNL     1      -1.168  13.426  23.182  0.00  0.00    +0.000 C 
ATOM     30  C   UNL     1      -0.350  12.936  22.015  0.00  0.00    +0.000 C 
ATOM     31  O   UNL     1       0.350  13.679  21.343  0.00  0.00    +0.000 OA
ENDBRANCH  23  26
ENDBRANCH   2  20
TORSDOF 5
ENDMDL
MODEL 4
REMARK VINA RESULT:      -8.4      5.654      7.972
REMARK  Name = 
REMARK  5 active torsions:
REMARK  status: ('A' for Active; 'I' for Inactive)
REMARK    1  A    between atoms: C_2  and  C_19
REMARK    2  A    between atoms: N_3  and  C_4
REMARK    3  A    between atoms: C_8  and  S_9
REMARK    4  A    between atoms: S_9  and  N_12
REMARK    5  A    between atoms: C_22  and  N_23
REMARK                            x       y       z     vdW  Elec       q    Type
REMARK                         _______ _______ _______ _____ _____    ______ ____
ROOT
ATOM      1  O   UNL     1       1.900   6.048  20.656  0.00  0.00    +0.000 OA
ATOM      2  C   UNL     1       2.022   7.028  19.929  0.00  0.00    +0.000 C 
ATOM      3  N   UNL     1       2.679   7.065  18.707  0.00  0.00    +0.000 N 
ATOM      4  H   UNL     1       2.751   7.953  18.231  0.00  0.00    +0.000 HD
ENDROOT
BRANCH   3   5
ATOM      5  C   UNL     1       3.306   5.975  18.071  0.00  0.00    +0.000 A 
ATOM      6  C   UNL     1       2.724   4.708  17.978  0.00  0.00    +0.000 A 
ATOM      7  C   UNL     1       3.388   3.658  17.343  0.00  0.00    +0.000 A 
ATOM      8  C   UNL     1       4.660   3.856  16.816  0.00  0.00    +0.000 A 
ATOM      9  C   UNL     1       5.259   5.112  16.928  0.00  0.00    +0.000 A 
ATOM     10  C   UNL     1       4.568   6.188  17.513  0.00  0.00    +0.000 A 
BRANCH   9  11
ATOM     11  S   UNL     1       6.905   5.364  16.275  0.00  0.00    +0.000 S 
ATOM     12  O   UNL     1       7.232   6.761  16.464  0.00  0.00    +0.000 OA
ATOM     13  O   UNL     1       7.743   4.318  16.823  0.00  0.00    +0.000 OA
BRANCH  11  14
ATOM     14  N   UNL     1       6.723   5.077  14.588  0.00  0.00    +0.000 NA
ATOM     15  C   UNL     1       7.914   5.407  13.765  0.00  0.00    +0.000 C 
ATOM     16  C   UNL     1       7.623   5.281  12.273  0.00  0.00    +0.000 C 
ATOM     17  C   UNL     1       7.047   3.915  11.940  0.00  0.00    +0.000 C 
ATOM     18  C   UNL     1       5.771   3.703  12.742  0.00  0.00    +0.000 C 
ATOM     19  C   UNL     1       6.043   3.802  14.239  0.00  0.00    +0.000 C 
ENDBRANCH  11  14
ENDBRANCH   9  11
ENDBRANCH   3   5
BRANCH   2  20
ATOM     20  C   UNL     1       1.432   8.314  20.398  0.00  0.00    +0.000 A 
ATOM     21  C   UNL     1       1.058   8.534  21.723  0.00  0.00    +0.000 A 
ATOM     22  C   UNL     1       0.491   9.757  22.099  0.00  0.00    +0.000 A 
ATOM     23  C   UNL     1       0.251  10.776  21.166  0.00  0.00    +0.000 A 
ATOM     24  C   UNL     1       0.615  10.533  19.835  0.00  0.00    +0.000 A 
ATOM     25  C   UNL     1       1.204   9.319  19.455  0.00  0.00    +0.000 A 
BRANCH  23  26
ATOM     26  N   UNL     1      -0.366  11.998  21.546  0.00  0.00    +0.000 N 
ATOM     27  C   UNL     1      -1.728  12.065  22.025  0.00  0.00    +0.000 C 
ATOM     28  C   UNL     1      -2.047  13.544  22.057  0.00  0.00    +0.000 C 
ATOM     29  C   UNL     1      -0.707  14.197  22.320  0.00  0.00    +0.000 C 
ATOM     30  C   UNL     1       0.278  13.236  21.704  0.00  0.00    +0.000 C 
ATOM     31  O   UNL     1       1.432  13.549  21.448  0.00  0.00    +0.000 OA
ENDBRANCH  23  26
ENDBRANCH   2  20
TORSDOF 5
ENDMDL
MODEL 5
REMARK VINA RESULT:      -8.3      5.835      8.968
REMARK  Name = 
REMARK  5 active torsions:
REMARK  status: ('A' for Active; 'I' for Inactive)
REMARK    1  A    between atoms: C_2  and  C_19
REMARK    2  A    between atoms: N_3  and  C_4
REMARK    3  A    between atoms: C_8  and  S_9
REMARK    4  A    between atoms: S_9  and  N_12
REMARK    5  A    between atoms: C_22  and  N_23
REMARK                            x       y       z     vdW  Elec       q    Type
REMARK                         _______ _______ _______ _____ _____    ______ ____
ROOT
ATOM      1  O   UNL     1       3.206   5.907  19.772  0.00  0.00    +0.000 OA
ATOM      2  C   UNL     1       3.170   6.596  18.758  0.00  0.00    +0.000 C 
ATOM      3  N   UNL     1       2.473   7.785  18.598  0.00  0.00    +0.000 N 
ATOM      4  H   UNL     1       2.486   8.227  17.691  0.00  0.00    +0.000 HD
ENDROOT
BRANCH   3   5
ATOM      5  C   UNL     1       1.697   8.428  19.584  0.00  0.00    +0.000 A 
ATOM      6  C   UNL     1       1.534   7.924  20.877  0.00  0.00    +0.000 A 
ATOM      7  C   UNL     1       0.750   8.595  21.815  0.00  0.00    +0.000 A 
ATOM      8  C   UNL     1       0.093   9.769  21.462  0.00  0.00    +0.000 A 
ATOM      9  C   UNL     1       0.229  10.265  20.164  0.00  0.00    +0.000 A 
ATOM     10  C   UNL     1       1.067   9.624  19.234  0.00  0.00    +0.000 A 
BRANCH   9  11
ATOM     11  S   UNL     1      -0.636  11.759  19.698  0.00  0.00    +0.000 S 
ATOM     12  O   UNL     1      -1.046  12.415  20.921  0.00  0.00    +0.000 OA
ATOM     13  O   UNL     1       0.189  12.441  18.724  0.00  0.00    +0.000 OA
BRANCH  11  14
ATOM     14  N   UNL     1      -2.046  11.183  18.898  0.00  0.00    +0.000 NA
ATOM     15  C   UNL     1      -3.258  12.020  19.084  0.00  0.00    +0.000 C 
ATOM     16  C   UNL     1      -4.497  11.364  18.484  0.00  0.00    +0.000 C 
ATOM     17  C   UNL     1      -4.268  10.987  17.029  0.00  0.00    +0.000 C 
ATOM     18  C   UNL     1      -3.080  10.042  16.940  0.00  0.00    +0.000 C 
ATOM     19  C   UNL     1      -1.823  10.687  17.514  0.00  0.00    +0.000 C 
ENDBRANCH  11  14
ENDBRANCH   9  11
ENDBRANCH   3   5
BRANCH   2  20
ATOM     20  C   UNL     1       3.925   6.111  17.567  0.00  0.00    +0.000 A 
ATOM     21  C   UNL     1       4.458   6.973  16.609  0.00  0.00    +0.000 A 
ATOM     22  C   UNL     1       5.141   6.455  15.502  0.00  0.00    +0.000 A 
ATOM     23  C   UNL     1       5.281   5.075  15.302  0.00  0.00    +0.000 A 
ATOM     24  C   UNL     1       4.724   4.221  16.264  0.00  0.00    +0.000 A 
ATOM     25  C   UNL     1       4.058   4.732  17.386  0.00  0.00    +0.000 A 
BRANCH  23  26
ATOM     26  N   UNL     1       5.937   4.556  14.153  0.00  0.00    +0.000 N 
ATOM     27  C   UNL     1       5.255   3.749  13.168  0.00  0.00    +0.000 C 
ATOM     28  C   UNL     1       6.361   3.208  12.288  0.00  0.00    +0.000 C 
ATOM     29  C   UNL     1       7.428   4.280  12.351  0.00  0.00    +0.000 C 
ATOM     30  C   UNL     1       7.226   4.896  13.711  0.00  0.00    +0.000 C 
ATOM     31  O   UNL     1       8.074   5.591  14.253  0.00  0.00    +0.000 OA
ENDBRANCH  23  26
ENDBRANCH   2  20
TORSDOF 5
ENDMDL
MODEL 6
REMARK VINA RESULT:      -8.3      5.620      8.147
REMARK  Name = 
REMARK  5 active torsions:
REMARK  status: ('A' for Active; 'I' for Inactive)
REMARK    1  A    between atoms: C_2  and  C_19
REMARK    2  A    between atoms: N_3  and  C_4
REMARK    3  A    between atoms: C_8  and  S_9
REMARK    4  A    between atoms: S_9  and  N_12
REMARK    5  A    between atoms: C_22  and  N_23
REMARK                            x       y       z     vdW  Elec       q    Type
REMARK                         _______ _______ _______ _____ _____    ______ ____
ROOT
ATOM      1  O   UNL     1       1.580   5.835  20.370  0.00  0.00    +0.000 OA
ATOM      2  C   UNL     1       1.969   6.874  19.846  0.00  0.00    +0.000 C 
ATOM      3  N   UNL     1       2.846   6.974  18.776  0.00  0.00    +0.000 N 
ATOM      4  H   UNL     1       3.126   7.895  18.473  0.00  0.00    +0.000 HD
ENDROOT
BRANCH   3   5
ATOM      5  C   UNL     1       3.432   5.896  18.082  0.00  0.00    +0.000 A 
ATOM      6  C   UNL     1       2.811   4.652  17.939  0.00  0.00    +0.000 A 
ATOM      7  C   UNL     1       3.434   3.613  17.248  0.00  0.00    +0.000 A 
ATOM      8  C   UNL     1       4.705   3.797  16.713  0.00  0.00    +0.000 A 
ATOM      9  C   UNL     1       5.344   5.028  16.875  0.00  0.00    +0.000 A 
ATOM     10  C   UNL     1       4.693   6.096  17.517  0.00  0.00    +0.000 A 
BRANCH   9  11
ATOM     11  S   UNL     1       6.988   5.260  16.213  0.00  0.00    +0.000 S 
ATOM     12  O   UNL     1       7.343   6.647  16.421  0.00  0.00    +0.000 OA
ATOM     13  O   UNL     1       7.812   4.190  16.736  0.00  0.00    +0.000 OA
BRANCH  11  14
ATOM     14  N   UNL     1       6.788   5.004  14.523  0.00  0.00    +0.000 NA
ATOM     15  C   UNL     1       7.914   5.480  13.679  0.00  0.00    +0.000 C 
ATOM     16  C   UNL     1       7.594   5.367  12.192  0.00  0.00    +0.000 C 
ATOM     17  C   UNL     1       7.151   3.958  11.831  0.00  0.00    +0.000 C 
ATOM     18  C   UNL     1       5.928   3.592  12.659  0.00  0.00    +0.000 C 
ATOM     19  C   UNL     1       6.233   3.676  14.151  0.00  0.00    +0.000 C 
ENDBRANCH  11  14
ENDBRANCH   9  11
ENDBRANCH   3   5
BRANCH   2  20
ATOM     20  C   UNL     1       1.477   8.161  20.417  0.00  0.00    +0.000 A 
ATOM     21  C   UNL     1       1.271   8.351  21.782  0.00  0.00    +0.000 A 
ATOM     22  C   UNL     1       0.789   9.577  22.256  0.00  0.00    +0.000 A 
ATOM     23  C   UNL     1       0.469  10.628  21.385  0.00  0.00    +0.000 A 
ATOM     24  C   UNL     1       0.665  10.416  20.014  0.00  0.00    +0.000 A 
ATOM     25  C   UNL     1       1.167   9.199  19.534  0.00  0.00    +0.000 A 
BRANCH  23  26
ATOM     26  N   UNL     1      -0.061  11.854  21.869  0.00  0.00    +0.000 N 
ATOM     27  C   UNL     1       0.363  13.139  21.360  0.00  0.00    +0.000 C 
ATOM     28  C   UNL     1      -0.244  14.145  22.313  0.00  0.00    +0.000 C 
ATOM     29  C   UNL     1      -1.506  13.465  22.800  0.00  0.00    +0.000 C 
ATOM     30  C   UNL     1      -1.166  11.999  22.723  0.00  0.00    +0.000 C 
ATOM     31  O   UNL     1      -1.814  11.141  23.306  0.00  0.00    +0.000 OA
ENDBRANCH  23  26
ENDBRANCH   2  20
TORSDOF 5
ENDMDL
MODEL 7
REMARK VINA RESULT:      -8.2      6.105      9.370
REMARK  Name = 
REMARK  5 active torsions:
REMARK  status: ('A' for Active; 'I' for Inactive)
REMARK    1  A    between atoms: C_2  and  C_19
REMARK    2  A    between atoms: N_3  and  C_4
REMARK    3  A    between atoms: C_8  and  S_9
REMARK    4  A    between atoms: S_9  and  N_12
REMARK    5  A    between atoms: C_22  and  N_23
REMARK                            x       y       z     vdW  Elec       q    Type
REMARK                         _______ _______ _______ _____ _____    ______ ____
ROOT
ATOM      1  O   UNL     1       1.527   6.435  20.858  0.00  0.00    +0.000 OA
ATOM      2  C   UNL     1       1.942   7.194  19.988  0.00  0.00    +0.000 C 
ATOM      3  N   UNL     1       1.657   8.547  19.875  0.00  0.00    +0.000 N 
ATOM      4  H   UNL     1       2.023   9.047  19.079  0.00  0.00    +0.000 HD
ENDROOT
BRANCH   3   5
ATOM      5  C   UNL     1       0.855   9.300  20.757  0.00  0.00    +0.000 A 
ATOM      6  C   UNL     1       0.661   8.954  22.097  0.00  0.00    +0.000 A 
ATOM      7  C   UNL     1      -0.148   9.728  22.929  0.00  0.00    +0.000 A 
ATOM      8  C   UNL     1      -0.798  10.848  22.421  0.00  0.00    +0.000 A 
ATOM      9  C   UNL     1      -0.630  11.186  21.077  0.00  0.00    +0.000 A 
ATOM     10  C   UNL     1       0.233  10.443  20.252  0.00  0.00    +0.000 A 
BRANCH   9  11
ATOM     11  S   UNL     1      -1.485  12.610  20.414  0.00  0.00    +0.000 S 
ATOM     12  O   UNL     1      -2.093  13.302  21.530  0.00  0.00    +0.000 OA
ATOM     13  O   UNL     1      -0.561  13.286  19.528  0.00  0.00    +0.000 OA
BRANCH  11  14
ATOM     14  N   UNL     1      -2.741  11.924  19.459  0.00  0.00    +0.000 NA
ATOM     15  C   UNL     1      -4.082  12.530  19.659  0.00  0.00    +0.000 C 
ATOM     16  C   UNL     1      -5.166  11.768  18.904  0.00  0.00    +0.000 C 
ATOM     17  C   UNL     1      -4.809  11.618  17.434  0.00  0.00    +0.000 C 
ATOM     18  C   UNL     1      -3.478  10.891  17.316  0.00  0.00    +0.000 C 
ATOM     19  C   UNL     1      -2.374  11.648  18.045  0.00  0.00    +0.000 C 
ENDBRANCH  11  14
ENDBRANCH   9  11
ENDBRANCH   3   5
BRANCH   2  20
ATOM     20  C   UNL     1       2.820   6.616  18.930  0.00  0.00    +0.000 A 
ATOM     21  C   UNL     1       3.177   5.269  18.899  0.00  0.00    +0.000 A 
ATOM     22  C   UNL     1       4.022   4.790  17.890  0.00  0.00    +0.000 A 
ATOM     23  C   UNL     1       4.557   5.640  16.912  0.00  0.00    +0.000 A 
ATOM     24  C   UNL     1       4.203   6.995  16.968  0.00  0.00    +0.000 A 
ATOM     25  C   UNL     1       3.341   7.478  17.962  0.00  0.00    +0.000 A 
BRANCH  23  26
ATOM     26  N   UNL     1       5.449   5.155  15.918  0.00  0.00    +0.000 N 
ATOM     27  C   UNL     1       5.002   4.375  14.788  0.00  0.00    +0.000 C 
ATOM     28  C   UNL     1       6.275   3.862  14.152  0.00  0.00    +0.000 C 
ATOM     29  C   UNL     1       7.295   4.934  14.472  0.00  0.00    +0.000 C 
ATOM     30  C   UNL     1       6.799   5.511  15.773  0.00  0.00    +0.000 C 
ATOM     31  O   UNL     1       7.505   6.193  16.503  0.00  0.00    +0.000 OA
ENDBRANCH  23  26
ENDBRANCH   2  20
TORSDOF 5
ENDMDL
MODEL 8
REMARK VINA RESULT:      -8.2      5.905      9.318
REMARK  Name = 
REMARK  5 active torsions:
REMARK  status: ('A' for Active; 'I' for Inactive)
REMARK    1  A    between atoms: C_2  and  C_19
REMARK    2  A    between atoms: N_3  and  C_4
REMARK    3  A    between atoms: C_8  and  S_9
REMARK    4  A    between atoms: S_9  and  N_12
REMARK    5  A    between atoms: C_22  and  N_23
REMARK                            x       y       z     vdW  Elec       q    Type
REMARK                         _______ _______ _______ _____ _____    ______ ____
ROOT
ATOM      1  O   UNL     1       1.494   6.283  20.529  0.00  0.00    +0.000 OA
ATOM      2  C   UNL     1       2.021   7.100  19.781  0.00  0.00    +0.000 C 
ATOM      3  N   UNL     1       1.818   8.473  19.793  0.00  0.00    +0.000 N 
ATOM      4  H   UNL     1       2.276   9.029  19.086  0.00  0.00    +0.000 HD
ENDROOT
BRANCH   3   5
ATOM      5  C   UNL     1       0.985   9.179  20.685  0.00  0.00    +0.000 A 
ATOM      6  C   UNL     1       0.844   8.836  22.032  0.00  0.00    +0.000 A 
ATOM      7  C   UNL     1       0.001   9.562  22.873  0.00  0.00    +0.000 A 
ATOM      8  C   UNL     1      -0.736  10.628  22.369  0.00  0.00    +0.000 A 
ATOM      9  C   UNL     1      -0.622  10.960  21.017  0.00  0.00    +0.000 A 
ATOM     10  C   UNL     1       0.273  10.269  20.181  0.00  0.00    +0.000 A 
BRANCH   9  11
ATOM     11  S   UNL     1      -1.588  12.313  20.359  0.00  0.00    +0.000 S 
ATOM     12  O   UNL     1      -2.520  12.716  21.391  0.00  0.00    +0.000 OA
ATOM     13  O   UNL     1      -0.657  13.259  19.781  0.00  0.00    +0.000 OA
BRANCH  11  14
ATOM     14  N   UNL     1      -2.483  11.591  19.079  0.00  0.00    +0.000 NA
ATOM     15  C   UNL     1      -3.942  11.869  19.100  0.00  0.00    +0.000 C 
ATOM     16  C   UNL     1      -4.687  11.069  18.037  0.00  0.00    +0.000 C 
ATOM     17  C   UNL     1      -4.073  11.280  16.662  0.00  0.00    +0.000 C 
ATOM     18  C   UNL     1      -2.610  10.866  16.700  0.00  0.00    +0.000 C 
ATOM     19  C   UNL     1      -1.840  11.671  17.741  0.00  0.00    +0.000 C 
ENDBRANCH  11  14
ENDBRANCH   9  11
ENDBRANCH   3   5
BRANCH   2  20
ATOM     20  C   UNL     1       2.954   6.582  18.740  0.00  0.00    +0.000 A 
ATOM     21  C   UNL     1       3.737   7.418  17.945  0.00  0.00    +0.000 A 
ATOM     22  C   UNL     1       4.581   6.872  16.971  0.00  0.00    +0.000 A 
ATOM     23  C   UNL     1       4.642   5.490  16.740  0.00  0.00    +0.000 A 
ATOM     24  C   UNL     1       3.835   4.664  17.535  0.00  0.00    +0.000 A 
ATOM     25  C   UNL     1       3.004   5.202  18.527  0.00  0.00    +0.000 A 
BRANCH  23  26
ATOM     26  N   UNL     1       5.466   4.946  15.719  0.00  0.00    +0.000 N 
ATOM     27  C   UNL     1       4.951   4.565  14.424  0.00  0.00    +0.000 C 
ATOM     28  C   UNL     1       6.087   3.810  13.770  0.00  0.00    +0.000 C 
ATOM     29  C   UNL     1       7.329   4.436  14.369  0.00  0.00    +0.000 C 
ATOM     30  C   UNL     1       6.870   4.887  15.732  0.00  0.00    +0.000 C 
ATOM     31  O   UNL     1       7.650   5.170  16.630  0.00  0.00    +0.000 OA
ENDBRANCH  23  26
ENDBRANCH   2  20
TORSDOF 5
ENDMDL
MODEL 9
REMARK VINA RESULT:      -8.2      5.322      8.104
REMARK  Name = 
REMARK  5 active torsions:
REMARK  status: ('A' for Active; 'I' for Inactive)
REMARK    1  A    between atoms: C_2  and  C_19
REMARK    2  A    between atoms: N_3  and  C_4
REMARK    3  A    between atoms: C_8  and  S_9
REMARK    4  A    between atoms: S_9  and  N_12
REMARK    5  A    between atoms: C_22  and  N_23
REMARK                            x       y       z     vdW  Elec       q    Type
REMARK                         _______ _______ _______ _____ _____    ______ ____
ROOT
ATOM      1  O   UNL     1       2.487   7.571  19.620  0.00  0.00    +0.000 OA
ATOM      2  C   UNL     1       1.656   7.410  20.507  0.00  0.00    +0.000 C 
ATOM      3  N   UNL     1       1.326   6.206  21.114  0.00  0.00    +0.000 N 
ATOM      4  H   UNL     1       0.584   6.204  21.798  0.00  0.00    +0.000 HD
ENDROOT
BRANCH   3   5
ATOM      5  C   UNL     1       1.906   4.953  20.834  0.00  0.00    +0.000 A 
ATOM      6  C   UNL     1       2.131   3.979  21.811  0.00  0.00    +0.000 A 
ATOM      7  C   UNL     1       2.715   2.756  21.485  0.00  0.00    +0.000 A 
ATOM      8  C   UNL     1       3.109   2.500  20.176  0.00  0.00    +0.000 A 
ATOM      9  C   UNL     1       2.913   3.477  19.199  0.00  0.00    +0.000 A 
ATOM     10  C   UNL     1       2.269   4.687  19.512  0.00  0.00    +0.000 A 
BRANCH   9  11
ATOM     11  S   UNL     1       3.443   3.161  17.520  0.00  0.00    +0.000 S 
ATOM     12  O   UNL     1       3.950   1.806  17.479  0.00  0.00    +0.000 OA
ATOM     13  O   UNL     1       2.369   3.586  16.649  0.00  0.00    +0.000 OA
BRANCH  11  14
ATOM     14  N   UNL     1       4.769   4.237  17.302  0.00  0.00    +0.000 NA
ATOM     15  C   UNL     1       4.409   5.570  16.755  0.00  0.00    +0.000 C 
ATOM     16  C   UNL     1       5.646   6.405  16.438  0.00  0.00    +0.000 C 
ATOM     17  C   UNL     1       6.568   6.499  17.644  0.00  0.00    +0.000 C 
ATOM     18  C   UNL     1       6.976   5.097  18.070  0.00  0.00    +0.000 C 
ATOM     19  C   UNL     1       5.755   4.251  18.414  0.00  0.00    +0.000 C 
ENDBRANCH  11  14
ENDBRANCH   9  11
ENDBRANCH   3   5
BRANCH   2  20
ATOM     20  C   UNL     1       0.903   8.610  20.974  0.00  0.00    +0.000 A 
ATOM     21  C   UNL     1       0.457   9.606  20.107  0.00  0.00    +0.000 A 
ATOM     22  C   UNL     1      -0.228  10.719  20.609  0.00  0.00    +0.000 A 
ATOM     23  C   UNL     1      -0.455  10.887  21.982  0.00  0.00    +0.000 A 
ATOM     24  C   UNL     1       0.016   9.886  22.843  0.00  0.00    +0.000 A 
ATOM     25  C   UNL     1       0.683   8.758  22.346  0.00  0.00    +0.000 A 
BRANCH  23  26
ATOM     26  N   UNL     1      -1.111  12.040  22.488  0.00  0.00    +0.000 N 
ATOM     27  C   UNL     1      -2.410  11.981  23.118  0.00  0.00    +0.000 C 
ATOM     28  C   UNL     1      -2.831  13.428  23.259  0.00  0.00    +0.000 C 
ATOM     29  C   UNL     1      -1.521  14.172  23.403  0.00  0.00    +0.000 C 
ATOM     30  C   UNL     1      -0.546  13.317  22.634  0.00  0.00    +0.000 C 
ATOM     31  O   UNL     1       0.545  13.730  22.267  0.00  0.00    +0.000 OA
ENDBRANCH  23  26
ENDBRANCH   2  20
TORSDOF 5
ENDMDL
