MODEL 1
REMARK VINA RESULT:      -8.0      0.000      0.000
REMARK  Name = 
REMARK  7 active torsions:
REMARK  status: ('A' for Active; 'I' for Inactive)
REMARK    1  A    between atoms: C_1  and  O_2
REMARK    2  A    between atoms: O_2  and  C_3
REMARK    3  A    between atoms: C_3  and  C_5
REMARK    4  A    between atoms: C_11  and  O_12
REMARK    5  A    between atoms: C_16  and  C_18
REMARK    6  A    between atoms: C_22  and  O_23
REMARK    7  A    between atoms: C_29  and  C_30
REMARK                            x       y       z     vdW  Elec       q    Type
REMARK                         _______ _______ _______ _____ _____    ______ ____
ROOT
ATOM      1  C   UNL     1      -2.120  12.551  21.488  0.00  0.00    +0.000 A 
ATOM      2  C   UNL     1      -1.516  12.080  20.323  0.00  0.00    +0.000 A 
ATOM      3  C   UNL     1      -0.770  11.001  20.750  0.00  0.00    +0.000 A 
ATOM      4  C   UNL     1       0.012  10.181  19.913  0.00  0.00    +0.000 A 
ATOM      5  C   UNL     1       0.751   9.166  20.571  0.00  0.00    +0.000 A 
ATOM      6  C   UNL     1       0.688   8.912  21.945  0.00  0.00    +0.000 A 
ATOM      7  C   UNL     1      -0.140   9.735  22.720  0.00  0.00    +0.000 A 
ATOM      8  C   UNL     1      -0.832  10.766  22.090  0.00  0.00    +0.000 A 
ATOM      9  N   UNL     1      -1.686  11.752  22.544  0.00  0.00    +0.000 N 
ATOM     10  N   UNL     1       1.527   8.498  19.595  0.00  0.00    +0.000 N 
ATOM     11  C   UNL     1       2.333   7.363  19.808  0.00  0.00    +0.000 C 
ATOM     12  O   UNL     1       2.447   6.832  20.911  0.00  0.00    +0.000 OA
ATOM     13  C   UNL     1       1.239   9.096  18.262  0.00  0.00    +0.000 C 
ATOM     14  C   UNL     1       0.212  10.239  18.447  0.00  0.00    +0.000 C 
ATOM     15  H   UNL     1      -1.956  11.872  23.511  0.00  0.00    +0.000 HD
ENDROOT
BRANCH  11  16
ATOM     16  C   UNL     1       3.000   6.765  18.651  0.00  0.00    +0.000 A 
ATOM     17  C   UNL     1       3.736   7.419  17.669  0.00  0.00    +0.000 A 
ATOM     18  C   UNL     1       4.347   6.445  16.829  0.00  0.00    +0.000 A 
ATOM     19  C   UNL     1       5.272   6.495  15.766  0.00  0.00    +0.000 A 
ATOM     20  C   UNL     1       5.719   5.290  15.213  0.00  0.00    +0.000 A 
ATOM     21  C   UNL     1       5.246   4.063  15.660  0.00  0.00    +0.000 A 
ATOM     22  C   UNL     1       4.296   3.998  16.682  0.00  0.00    +0.000 A 
ATOM     23  C   UNL     1       3.875   5.206  17.248  0.00  0.00    +0.000 A 
ATOM     24  N   UNL     1       2.963   5.448  18.248  0.00  0.00    +0.000 N 
ATOM     25  H   UNL     1       2.388   4.727  18.656  0.00  0.00    +0.000 HD
BRANCH  20  26
ATOM     26  O   UNL     1       6.654   5.276  14.217  0.00  0.00    +0.000 OA
ATOM     27  H   UNL     1       7.031   4.382  14.162  0.00  0.00    +0.000 HD
ENDBRANCH  20  26
ENDBRANCH  11  16
BRANCH   1  28
ATOM     28  C   UNL     1      -3.041  13.660  21.606  0.00  0.00    +0.000 C 
ATOM     29  O   UNL     1      -2.935  14.580  22.409  0.00  0.00    +0.000 OA
BRANCH  28  31
ATOM     30  C   UNL     1      -5.132  12.722  21.140  0.00  0.00    +0.000 C 
ATOM     31  O   UNL     1      -4.045  13.535  20.692  0.00  0.00    +0.000 OA
ENDBRANCH  28  31
ENDBRANCH   1  28
BRANCH   7  32
ATOM     32  O   UNL     1      -0.275   9.556  24.069  0.00  0.00    +0.000 OA
ATOM     33  H   UNL     1      -1.035  10.085  24.368  0.00  0.00    +0.000 HD
ENDBRANCH   7  32
BRANCH  14  34
ATOM     34  C   UNL     1      -1.057  10.010  17.636  0.00  0.00    +0.000 C 
ATOM     35 CL   UNL     1      -1.776  11.563  17.123  0.00  0.00    +0.000 Cl
ENDBRANCH  14  34
TORSDOF 6
ENDMDL
MODEL 2
REMARK VINA RESULT:      -7.8      2.721      3.615
REMARK  Name = 
REMARK  7 active torsions:
REMARK  status: ('A' for Active; 'I' for Inactive)
REMARK    1  A    between atoms: C_1  and  O_2
REMARK    2  A    between atoms: O_2  and  C_3
REMARK    3  A    between atoms: C_3  and  C_5
REMARK    4  A    between atoms: C_11  and  O_12
REMARK    5  A    between atoms: C_16  and  C_18
REMARK    6  A    between atoms: C_22  and  O_23
REMARK    7  A    between atoms: C_29  and  C_30
REMARK                            x       y       z     vdW  Elec       q    Type
REMARK                         _______ _______ _______ _____ _____    ______ ____
ROOT
ATOM      1  C   UNL     1      -0.932  13.136  21.501  0.00  0.00    +0.000 A 
ATOM      2  C   UNL     1      -0.655  11.788  21.724  0.00  0.00    +0.000 A 
ATOM      3  C   UNL     1       0.081  11.414  20.619  0.00  0.00    +0.000 A 
ATOM      4  C   UNL     1       0.610  10.126  20.403  0.00  0.00    +0.000 A 
ATOM      5  C   UNL     1       1.279   9.942  19.167  0.00  0.00    +0.000 A 
ATOM      6  C   UNL     1       1.486  10.955  18.224  0.00  0.00    +0.000 A 
ATOM      7  C   UNL     1       0.972  12.226  18.515  0.00  0.00    +0.000 A 
ATOM      8  C   UNL     1       0.270  12.404  19.704  0.00  0.00    +0.000 A 
ATOM      9  N   UNL     1      -0.375  13.485  20.272  0.00  0.00    +0.000 N 
ATOM     10  N   UNL     1       1.675   8.586  19.090  0.00  0.00    +0.000 N 
ATOM     11  C   UNL     1       2.450   8.002  18.070  0.00  0.00    +0.000 C 
ATOM     12  O   UNL     1       2.866   8.644  17.107  0.00  0.00    +0.000 OA
ATOM     13  C   UNL     1       1.266   7.896  20.345  0.00  0.00    +0.000 C 
ATOM     14  C   UNL     1       0.543   8.918  21.256  0.00  0.00    +0.000 C 
ATOM     15  H   UNL     1      -0.431  14.402  19.850  0.00  0.00    +0.000 HD
ENDROOT
BRANCH  11  16
ATOM     16  C   UNL     1       2.824   6.594  18.209  0.00  0.00    +0.000 A 
ATOM     17  C   UNL     1       4.049   6.084  18.623  0.00  0.00    +0.000 A 
ATOM     18  C   UNL     1       3.929   4.673  18.778  0.00  0.00    +0.000 A 
ATOM     19  C   UNL     1       4.774   3.655  19.269  0.00  0.00    +0.000 A 
ATOM     20  C   UNL     1       4.273   2.352  19.345  0.00  0.00    +0.000 A 
ATOM     21  C   UNL     1       2.988   2.038  18.920  0.00  0.00    +0.000 A 
ATOM     22  C   UNL     1       2.155   3.026  18.391  0.00  0.00    +0.000 A 
ATOM     23  C   UNL     1       2.654   4.332  18.343  0.00  0.00    +0.000 A 
ATOM     24  N   UNL     1       2.072   5.488  17.878  0.00  0.00    +0.000 N 
ATOM     25  H   UNL     1       1.183   5.505  17.402  0.00  0.00    +0.000 HD
BRANCH  20  26
ATOM     26  O   UNL     1       5.027   1.336  19.860  0.00  0.00    +0.000 OA
ATOM     27  H   UNL     1       4.813   1.240  20.803  0.00  0.00    +0.000 HD
ENDBRANCH  20  26
ENDBRANCH  11  16
BRANCH   1  28
ATOM     28  C   UNL     1      -1.657  14.033  22.373  0.00  0.00    +0.000 C 
ATOM     29  O   UNL     1      -1.362  14.272  23.538  0.00  0.00    +0.000 OA
BRANCH  28  31
ATOM     30  C   UNL     1      -3.823  13.683  21.565  0.00  0.00    +0.000 C 
ATOM     31  O   UNL     1      -2.717  14.577  21.710  0.00  0.00    +0.000 OA
ENDBRANCH  28  31
ENDBRANCH   1  28
BRANCH   7  32
ATOM     32  O   UNL     1       1.135  13.281  17.660  0.00  0.00    +0.000 OA
ATOM     33  H   UNL     1       2.060  13.284  17.360  0.00  0.00    +0.000 HD
ENDBRANCH   7  32
BRANCH  14  34
ATOM     34  C   UNL     1       1.230   9.070  22.607  0.00  0.00    +0.000 C 
ATOM     35 CL   UNL     1       0.041   9.441  23.889  0.00  0.00    +0.000 Cl
ENDBRANCH  14  34
TORSDOF 6
ENDMDL
MODEL 3
REMARK VINA RESULT:      -7.7      0.716      1.041
REMARK  Name = 
REMARK  7 active torsions:
REMARK  status: ('A' for Active; 'I' for Inactive)
REMARK    1  A    between atoms: C_1  and  O_2
REMARK    2  A    between atoms: O_2  and  C_3
REMARK    3  A    between atoms: C_3  and  C_5
REMARK    4  A    between atoms: C_11  and  O_12
REMARK    5  A    between atoms: C_16  and  C_18
REMARK    6  A    between atoms: C_22  and  O_23
REMARK    7  A    between atoms: C_29  and  C_30
REMARK                            x       y       z     vdW  Elec       q    Type
REMARK                         _______ _______ _______ _____ _____    ______ ____
ROOT
ATOM      1  C   UNL     1      -2.622  12.811  21.006  0.00  0.00    +0.000 A 
ATOM      2  C   UNL     1      -1.988  12.267  19.889  0.00  0.00    +0.000 A 
ATOM      3  C   UNL     1      -1.197  11.265  20.413  0.00  0.00    +0.000 A 
ATOM      4  C   UNL     1      -0.372  10.412  19.653  0.00  0.00    +0.000 A 
ATOM      5  C   UNL     1       0.406   9.493  20.401  0.00  0.00    +0.000 A 
ATOM      6  C   UNL     1       0.343   9.357  21.792  0.00  0.00    +0.000 A 
ATOM      7  C   UNL     1      -0.528  10.206  22.488  0.00  0.00    +0.000 A 
ATOM      8  C   UNL     1      -1.259  11.145  21.767  0.00  0.00    +0.000 A 
ATOM      9  N   UNL     1      -2.161  12.127  22.129  0.00  0.00    +0.000 N 
ATOM     10  N   UNL     1       1.219   8.778  19.491  0.00  0.00    +0.000 N 
ATOM     11  C   UNL     1       2.074   7.704  19.806  0.00  0.00    +0.000 C 
ATOM     12  O   UNL     1       2.203   7.277  20.952  0.00  0.00    +0.000 OA
ATOM     13  C   UNL     1       0.916   9.244  18.109  0.00  0.00    +0.000 C 
ATOM     14  C   UNL     1      -0.163  10.351  18.188  0.00  0.00    +0.000 C 
ATOM     15  H   UNL     1      -2.444  12.319  23.081  0.00  0.00    +0.000 HD
ENDROOT
BRANCH  11  16
ATOM     16  C   UNL     1       2.777   7.038  18.708  0.00  0.00    +0.000 A 
ATOM     17  C   UNL     1       3.582   7.628  17.741  0.00  0.00    +0.000 A 
ATOM     18  C   UNL     1       4.201   6.602  16.971  0.00  0.00    +0.000 A 
ATOM     19  C   UNL     1       5.179   6.578  15.956  0.00  0.00    +0.000 A 
ATOM     20  C   UNL     1       5.611   5.338  15.473  0.00  0.00    +0.000 A 
ATOM     21  C   UNL     1       5.075   4.146  15.943  0.00  0.00    +0.000 A 
ATOM     22  C   UNL     1       4.074   4.153  16.917  0.00  0.00    +0.000 A 
ATOM     23  C   UNL     1       3.667   5.396  17.413  0.00  0.00    +0.000 A 
ATOM     24  N   UNL     1       2.715   5.707  18.356  0.00  0.00    +0.000 N 
ATOM     25  H   UNL     1       2.095   5.023  18.761  0.00  0.00    +0.000 HD
BRANCH  20  26
ATOM     26  O   UNL     1       6.593   5.253  14.528  0.00  0.00    +0.000 OA
ATOM     27  H   UNL     1       7.352   4.784  14.913  0.00  0.00    +0.000 HD
ENDBRANCH  20  26
ENDBRANCH  11  16
BRANCH   1  28
ATOM     28  C   UNL     1      -3.592  13.882  21.022  0.00  0.00    +0.000 C 
ATOM     29  O   UNL     1      -4.786  13.747  21.268  0.00  0.00    +0.000 OA
BRANCH  28  31
ATOM     30  C   UNL     1      -2.189  15.589  21.789  0.00  0.00    +0.000 C 
ATOM     31  O   UNL     1      -2.987  15.067  20.724  0.00  0.00    +0.000 OA
ENDBRANCH  28  31
ENDBRANCH   1  28
BRANCH   7  32
ATOM     32  O   UNL     1      -0.665  10.139  23.847  0.00  0.00    +0.000 OA
ATOM     33  H   UNL     1       0.165  10.450  24.249  0.00  0.00    +0.000 HD
ENDBRANCH   7  32
BRANCH  14  34
ATOM     34  C   UNL     1      -1.413   9.994  17.395  0.00  0.00    +0.000 C 
ATOM     35 CL   UNL     1      -2.151  11.454  16.677  0.00  0.00    +0.000 Cl
ENDBRANCH  14  34
TORSDOF 6
ENDMDL
MODEL 4
REMARK VINA RESULT:      -7.5      2.520      3.271
REMARK  Name = 
REMARK  7 active torsions:
REMARK  status: ('A' for Active; 'I' for Inactive)
REMARK    1  A    between atoms: C_1  and  O_2
REMARK    2  A    between atoms: O_2  and  C_3
REMARK    3  A    between atoms: C_3  and  C_5
REMARK    4  A    between atoms: C_11  and  O_12
REMARK    5  A    between atoms: C_16  and  C_18
REMARK    6  A    between atoms: C_22  and  O_23
REMARK    7  A    between atoms: C_29  and  C_30
REMARK                            x       y       z     vdW  Elec       q    Type
REMARK                         _______ _______ _______ _____ _____    ______ ____
ROOT
ATOM      1  C   UNL     1      -2.359  12.486  22.371  0.00  0.00    +0.000 A 
ATOM      2  C   UNL     1      -1.567  11.342  22.464  0.00  0.00    +0.000 A 
ATOM      3  C   UNL     1      -0.981  11.242  21.220  0.00  0.00    +0.000 A 
ATOM      4  C   UNL     1      -0.070  10.238  20.837  0.00  0.00    +0.000 A 
ATOM      5  C   UNL     1       0.361  10.287  19.488  0.00  0.00    +0.000 A 
ATOM      6  C   UNL     1      -0.010  11.284  18.579  0.00  0.00    +0.000 A 
ATOM      7  C   UNL     1      -0.886  12.279  19.030  0.00  0.00    +0.000 A 
ATOM      8  C   UNL     1      -1.354  12.212  20.339  0.00  0.00    +0.000 A 
ATOM      9  N   UNL     1      -2.224  12.989  21.078  0.00  0.00    +0.000 N 
ATOM     10  N   UNL     1       1.203   9.173  19.264  0.00  0.00    +0.000 N 
ATOM     11  C   UNL     1       1.920   8.895  18.084  0.00  0.00    +0.000 C 
ATOM     12  O   UNL     1       1.871   9.624  17.095  0.00  0.00    +0.000 OA
ATOM     13  C   UNL     1       1.335   8.409  20.536  0.00  0.00    +0.000 C 
ATOM     14  C   UNL     1       0.483   9.110  21.622  0.00  0.00    +0.000 C 
ATOM     15  H   UNL     1      -2.697  13.810  20.724  0.00  0.00    +0.000 HD
ENDROOT
BRANCH  11  16
ATOM     16  C   UNL     1       2.805   7.730  18.074  0.00  0.00    +0.000 A 
ATOM     17  C   UNL     1       3.982   7.571  17.352  0.00  0.00    +0.000 A 
ATOM     18  C   UNL     1       4.612   6.361  17.763  0.00  0.00    +0.000 A 
ATOM     19  C   UNL     1       5.848   5.743  17.481  0.00  0.00    +0.000 A 
ATOM     20  C   UNL     1       6.170   4.559  18.151  0.00  0.00    +0.000 A 
ATOM     21  C   UNL     1       5.292   3.968  19.051  0.00  0.00    +0.000 A 
ATOM     22  C   UNL     1       4.046   4.544  19.309  0.00  0.00    +0.000 A 
ATOM     23  C   UNL     1       3.743   5.743  18.654  0.00  0.00    +0.000 A 
ATOM     24  N   UNL     1       2.611   6.521  18.707  0.00  0.00    +0.000 N 
ATOM     25  H   UNL     1       1.774   6.245  19.197  0.00  0.00    +0.000 HD
BRANCH  20  26
ATOM     26  O   UNL     1       7.374   3.944  17.957  0.00  0.00    +0.000 OA
ATOM     27  H   UNL     1       7.336   3.449  17.121  0.00  0.00    +0.000 HD
ENDBRANCH  20  26
ENDBRANCH  11  16
BRANCH   1  28
ATOM     28  C   UNL     1      -3.174  13.070  23.412  0.00  0.00    +0.000 C 
ATOM     29  O   UNL     1      -2.826  13.989  24.145  0.00  0.00    +0.000 OA
BRANCH  28  31
ATOM     30  C   UNL     1      -4.858  12.216  24.792  0.00  0.00    +0.000 C 
ATOM     31  O   UNL     1      -4.387  12.449  23.462  0.00  0.00    +0.000 OA
ENDBRANCH  28  31
ENDBRANCH   1  28
BRANCH   7  32
ATOM     32  O   UNL     1      -1.296  13.301  18.218  0.00  0.00    +0.000 OA
ATOM     33  H   UNL     1      -1.272  12.981  17.298  0.00  0.00    +0.000 HD
ENDBRANCH   7  32
BRANCH  14  34
ATOM     34  C   UNL     1       1.319   9.536  22.822  0.00  0.00    +0.000 C 
ATOM     35 CL   UNL     1       0.433   9.255  24.348  0.00  0.00    +0.000 Cl
ENDBRANCH  14  34
TORSDOF 6
ENDMDL
MODEL 5
REMARK VINA RESULT:      -7.5      2.809      3.466
REMARK  Name = 
REMARK  7 active torsions:
REMARK  status: ('A' for Active; 'I' for Inactive)
REMARK    1  A    between atoms: C_1  and  O_2
REMARK    2  A    between atoms: O_2  and  C_3
REMARK    3  A    between atoms: C_3  and  C_5
REMARK    4  A    between atoms: C_11  and  O_12
REMARK    5  A    between atoms: C_16  and  C_18
REMARK    6  A    between atoms: C_22  and  O_23
REMARK    7  A    between atoms: C_29  and  C_30
REMARK                            x       y       z     vdW  Elec       q    Type
REMARK                         _______ _______ _______ _____ _____    ______ ____
ROOT
ATOM      1  C   UNL     1      -2.267  13.120  22.120  0.00  0.00    +0.000 A 
ATOM      2  C   UNL     1      -1.814  11.805  22.227  0.00  0.00    +0.000 A 
ATOM      3  C   UNL     1      -1.020  11.636  21.112  0.00  0.00    +0.000 A 
ATOM      4  C   UNL     1      -0.320  10.456  20.793  0.00  0.00    +0.000 A 
ATOM      5  C   UNL     1       0.385  10.478  19.564  0.00  0.00    +0.000 A 
ATOM      6  C   UNL     1       0.468  11.593  18.723  0.00  0.00    +0.000 A 
ATOM      7  C   UNL     1      -0.216  12.752  19.115  0.00  0.00    +0.000 A 
ATOM      8  C   UNL     1      -0.952  12.725  20.296  0.00  0.00    +0.000 A 
ATOM      9  N   UNL     1      -1.744  13.653  20.943  0.00  0.00    +0.000 N 
ATOM     10  N   UNL     1       0.959   9.199  19.374  0.00  0.00    +0.000 N 
ATOM     11  C   UNL     1       1.820   8.821  18.326  0.00  0.00    +0.000 C 
ATOM     12  O   UNL     1       2.159   9.600  17.437  0.00  0.00    +0.000 OA
ATOM     13  C   UNL     1       0.629   8.347  20.550  0.00  0.00    +0.000 C 
ATOM     14  C   UNL     1      -0.237   9.174  21.531  0.00  0.00    +0.000 C 
ATOM     15  H   UNL     1      -1.917  14.590  20.605  0.00  0.00    +0.000 HD
ENDROOT
BRANCH  11  16
ATOM     16  C   UNL     1       2.377   7.468  18.346  0.00  0.00    +0.000 A 
ATOM     17  C   UNL     1       3.618   7.074  18.834  0.00  0.00    +0.000 A 
ATOM     18  C   UNL     1       3.687   5.651  18.815  0.00  0.00    +0.000 A 
ATOM     19  C   UNL     1       4.618   4.699  19.278  0.00  0.00    +0.000 A 
ATOM     20  C   UNL     1       4.304   3.342  19.150  0.00  0.00    +0.000 A 
ATOM     21  C   UNL     1       3.125   2.919  18.552  0.00  0.00    +0.000 A 
ATOM     22  C   UNL     1       2.212   3.849  18.048  0.00  0.00    +0.000 A 
ATOM     23  C   UNL     1       2.521   5.204  18.204  0.00  0.00    +0.000 A 
ATOM     24  N   UNL     1       1.827   6.324  17.810  0.00  0.00    +0.000 N 
ATOM     25  H   UNL     1       0.994   6.286  17.243  0.00  0.00    +0.000 HD
BRANCH  20  26
ATOM     26  O   UNL     1       5.145   2.376  19.628  0.00  0.00    +0.000 OA
ATOM     27  H   UNL     1       4.615   1.714  20.103  0.00  0.00    +0.000 HD
ENDBRANCH  20  26
ENDBRANCH  11  16
BRANCH   1  28
ATOM     28  C   UNL     1      -3.117  13.828  23.050  0.00  0.00    +0.000 C 
ATOM     29  O   UNL     1      -2.862  14.920  23.545  0.00  0.00    +0.000 OA
BRANCH  28  31
ATOM     30  C   UNL     1      -4.334  12.623  24.643  0.00  0.00    +0.000 C 
ATOM     31  O   UNL     1      -4.245  13.104  23.299  0.00  0.00    +0.000 OA
ENDBRANCH  28  31
ENDBRANCH   1  28
BRANCH   7  32
ATOM     32  O   UNL     1      -0.184  13.895  18.364  0.00  0.00    +0.000 OA
ATOM     33  H   UNL     1       0.223  14.597  18.902  0.00  0.00    +0.000 HD
ENDBRANCH   7  32
BRANCH  14  34
ATOM     34  C   UNL     1       0.405   9.289  22.908  0.00  0.00    +0.000 C 
ATOM     35 CL   UNL     1       2.187   9.324  22.781  0.00  0.00    +0.000 Cl
ENDBRANCH  14  34
TORSDOF 6
ENDMDL
MODEL 6
REMARK VINA RESULT:      -7.4      3.419      9.631
REMARK  Name = 
REMARK  7 active torsions:
REMARK  status: ('A' for Active; 'I' for Inactive)
REMARK    1  A    between atoms: C_1  and  O_2
REMARK    2  A    between atoms: O_2  and  C_3
REMARK    3  A    between atoms: C_3  and  C_5
REMARK    4  A    between atoms: C_11  and  O_12
REMARK    5  A    between atoms: C_16  and  C_18
REMARK    6  A    between atoms: C_22  and  O_23
REMARK    7  A    between atoms: C_29  and  C_30
REMARK                            x       y       z     vdW  Elec       q    Type
REMARK                         _______ _______ _______ _____ _____    ______ ____
ROOT
ATOM      1  C   UNL     1       4.836   2.352  20.042  0.00  0.00    +0.000 A 
ATOM      2  C   UNL     1       3.821   3.194  20.495  0.00  0.00    +0.000 A 
ATOM      3  C   UNL     1       3.862   4.262  19.623  0.00  0.00    +0.000 A 
ATOM      4  C   UNL     1       2.998   5.374  19.671  0.00  0.00    +0.000 A 
ATOM      5  C   UNL     1       3.258   6.389  18.716  0.00  0.00    +0.000 A 
ATOM      6  C   UNL     1       4.247   6.308  17.730  0.00  0.00    +0.000 A 
ATOM      7  C   UNL     1       5.047   5.158  17.707  0.00  0.00    +0.000 A 
ATOM      8  C   UNL     1       4.832   4.178  18.671  0.00  0.00    +0.000 A 
ATOM      9  N   UNL     1       5.440   2.969  18.948  0.00  0.00    +0.000 N 
ATOM     10  N   UNL     1       2.353   7.449  18.958  0.00  0.00    +0.000 N 
ATOM     11  C   UNL     1       2.207   8.612  18.179  0.00  0.00    +0.000 C 
ATOM     12  O   UNL     1       2.889   8.826  17.178  0.00  0.00    +0.000 OA
ATOM     13  C   UNL     1       1.463   7.070  20.091  0.00  0.00    +0.000 C 
ATOM     14  C   UNL     1       1.877   5.665  20.593  0.00  0.00    +0.000 C 
ATOM     15  H   UNL     1       6.217   2.588  18.424  0.00  0.00    +0.000 HD
ENDROOT
BRANCH  11  16
ATOM     16  C   UNL     1       1.155   9.561  18.547  0.00  0.00    +0.000 A 
ATOM     17  C   UNL     1      -0.003   9.853  17.836  0.00  0.00    +0.000 A 
ATOM     18  C   UNL     1      -0.827  10.701  18.630  0.00  0.00    +0.000 A 
ATOM     19  C   UNL     1      -2.131  11.221  18.498  0.00  0.00    +0.000 A 
ATOM     20  C   UNL     1      -2.657  11.979  19.550  0.00  0.00    +0.000 A 
ATOM     21  C   UNL     1      -1.916  12.255  20.692  0.00  0.00    +0.000 A 
ATOM     22  C   UNL     1      -0.607  11.783  20.820  0.00  0.00    +0.000 A 
ATOM     23  C   UNL     1      -0.099  11.004  19.775  0.00  0.00    +0.000 A 
ATOM     24  N   UNL     1       1.136  10.419  19.624  0.00  0.00    +0.000 N 
ATOM     25  H   UNL     1       1.901  10.573  20.263  0.00  0.00    +0.000 HD
BRANCH  20  26
ATOM     26  O   UNL     1      -3.933  12.464  19.499  0.00  0.00    +0.000 OA
ATOM     27  H   UNL     1      -4.394  12.206  20.315  0.00  0.00    +0.000 HD
ENDBRANCH  20  26
ENDBRANCH  11  16
BRANCH   1  28
ATOM     28  C   UNL     1       5.207   1.065  20.584  0.00  0.00    +0.000 C 
ATOM     29  O   UNL     1       5.177   0.006  19.967  0.00  0.00    +0.000 OA
BRANCH  28  31
ATOM     30  C   UNL     1       6.347   0.084  22.376  0.00  0.00    +0.000 C 
ATOM     31  O   UNL     1       5.598   1.198  21.883  0.00  0.00    +0.000 OA
ENDBRANCH  28  31
ENDBRANCH   1  28
BRANCH   7  32
ATOM     32  O   UNL     1       6.032   4.984  16.773  0.00  0.00    +0.000 OA
ATOM     33  H   UNL     1       5.818   5.541  16.004  0.00  0.00    +0.000 HD
ENDBRANCH   7  32
BRANCH  14  34
ATOM     34  C   UNL     1       0.730   4.666  20.515  0.00  0.00    +0.000 C 
ATOM     35 CL   UNL     1       0.795   3.738  18.989  0.00  0.00    +0.000 Cl
ENDBRANCH  14  34
TORSDOF 6
ENDMDL
MODEL 7
REMARK VINA RESULT:      -7.3      2.898      3.753
REMARK  Name = 
REMARK  7 active torsions:
REMARK  status: ('A' for Active; 'I' for Inactive)
REMARK    1  A    between atoms: C_1  and  O_2
REMARK    2  A    between atoms: O_2  and  C_3
REMARK    3  A    between atoms: C_3  and  C_5
REMARK    4  A    between atoms: C_11  and  O_12
REMARK    5  A    between atoms: C_16  and  C_18
REMARK    6  A    between atoms: C_22  and  O_23
REMARK    7  A    between atoms: C_29  and  C_30
REMARK                            x       y       z     vdW  Elec       q    Type
REMARK                         _______ _______ _______ _____ _____    ______ ____
ROOT
ATOM      1  C   UNL     1      -0.615  13.394  21.317  0.00  0.00    +0.000 A 
ATOM      2  C   UNL     1      -0.450  12.045  21.631  0.00  0.00    +0.000 A 
ATOM      3  C   UNL     1       0.294  11.550  20.581  0.00  0.00    +0.000 A 
ATOM      4  C   UNL     1       0.730  10.215  20.463  0.00  0.00    +0.000 A 
ATOM      5  C   UNL     1       1.427   9.904  19.268  0.00  0.00    +0.000 A 
ATOM      6  C   UNL     1       1.746  10.839  18.277  0.00  0.00    +0.000 A 
ATOM      7  C   UNL     1       1.320  12.160  18.471  0.00  0.00    +0.000 A 
ATOM      8  C   UNL     1       0.592  12.464  19.617  0.00  0.00    +0.000 A 
ATOM      9  N   UNL     1       0.012  13.623  20.093  0.00  0.00    +0.000 N 
ATOM     10  N   UNL     1       1.720   8.521  19.288  0.00  0.00    +0.000 N 
ATOM     11  C   UNL     1       2.484   7.818  18.337  0.00  0.00    +0.000 C 
ATOM     12  O   UNL     1       2.982   8.367  17.355  0.00  0.00    +0.000 OA
ATOM     13  C   UNL     1       1.214   7.942  20.565  0.00  0.00    +0.000 C 
ATOM     14  C   UNL     1       0.540   9.070  21.383  0.00  0.00    +0.000 C 
ATOM     15  H   UNL     1       0.041  14.514  19.615  0.00  0.00    +0.000 HD
ENDROOT
BRANCH  11  16
ATOM     16  C   UNL     1       2.744   6.398  18.575  0.00  0.00    +0.000 A 
ATOM     17  C   UNL     1       2.273   5.319  17.836  0.00  0.00    +0.000 A 
ATOM     18  C   UNL     1       2.901   4.131  18.308  0.00  0.00    +0.000 A 
ATOM     19  C   UNL     1       2.912   2.784  17.890  0.00  0.00    +0.000 A 
ATOM     20  C   UNL     1       3.734   1.881  18.573  0.00  0.00    +0.000 A 
ATOM     21  C   UNL     1       4.501   2.272  19.663  0.00  0.00    +0.000 A 
ATOM     22  C   UNL     1       4.467   3.593  20.116  0.00  0.00    +0.000 A 
ATOM     23  C   UNL     1       3.664   4.496  19.411  0.00  0.00    +0.000 A 
ATOM     24  N   UNL     1       3.434   5.834  19.626  0.00  0.00    +0.000 N 
ATOM     25  H   UNL     1       3.779   6.331  20.432  0.00  0.00    +0.000 HD
BRANCH  20  26
ATOM     26  O   UNL     1       3.825   0.575  18.181  0.00  0.00    +0.000 OA
ATOM     27  H   UNL     1       4.022   0.032  18.962  0.00  0.00    +0.000 HD
ENDBRANCH  20  26
ENDBRANCH  11  16
BRANCH   1  28
ATOM     28  C   UNL     1      -1.299  14.395  22.104  0.00  0.00    +0.000 C 
ATOM     29  O   UNL     1      -0.775  15.398  22.576  0.00  0.00    +0.000 OA
BRANCH  28  31
ATOM     30  C   UNL     1      -3.032  13.943  23.608  0.00  0.00    +0.000 C 
ATOM     31  O   UNL     1      -2.613  14.063  22.246  0.00  0.00    +0.000 OA
ENDBRANCH  28  31
ENDBRANCH   1  28
BRANCH   7  32
ATOM     32  O   UNL     1       1.594  13.145  17.562  0.00  0.00    +0.000 OA
ATOM     33  H   UNL     1       1.371  12.808  16.676  0.00  0.00    +0.000 HD
ENDBRANCH   7  32
BRANCH  14  34
ATOM     34  C   UNL     1       1.187   9.255  22.749  0.00  0.00    +0.000 C 
ATOM     35 CL   UNL     1      -0.053   9.461  24.020  0.00  0.00    +0.000 Cl
ENDBRANCH  14  34
TORSDOF 6
ENDMDL
MODEL 8
REMARK VINA RESULT:      -7.3      2.534      3.481
REMARK  Name = 
REMARK  7 active torsions:
REMARK  status: ('A' for Active; 'I' for Inactive)
REMARK    1  A    between atoms: C_1  and  O_2
REMARK    2  A    between atoms: O_2  and  C_3
REMARK    3  A    between atoms: C_3  and  C_5
REMARK    4  A    between atoms: C_11  and  O_12
REMARK    5  A    between atoms: C_16  and  C_18
REMARK    6  A    between atoms: C_22  and  O_23
REMARK    7  A    between atoms: C_29  and  C_30
REMARK                            x       y       z     vdW  Elec       q    Type
REMARK                         _______ _______ _______ _____ _____    ______ ____
ROOT
ATOM      1  C   UNL     1      -1.998  12.776  22.444  0.00  0.00    +0.000 A 
ATOM      2  C   UNL     1      -1.357  11.538  22.490  0.00  0.00    +0.000 A 
ATOM      3  C   UNL     1      -0.760  11.429  21.251  0.00  0.00    +0.000 A 
ATOM      4  C   UNL     1       0.027  10.338  20.831  0.00  0.00    +0.000 A 
ATOM      5  C   UNL     1       0.490  10.400  19.493  0.00  0.00    +0.000 A 
ATOM      6  C   UNL     1       0.266  11.480  18.631  0.00  0.00    +0.000 A 
ATOM      7  C   UNL     1      -0.490  12.554  19.121  0.00  0.00    +0.000 A 
ATOM      8  C   UNL     1      -0.990  12.480  20.417  0.00  0.00    +0.000 A 
ATOM      9  N   UNL     1      -1.774  13.322  21.181  0.00  0.00    +0.000 N 
ATOM     10  N   UNL     1       1.192   9.202  19.224  0.00  0.00    +0.000 N 
ATOM     11  C   UNL     1       1.894   8.896  18.043  0.00  0.00    +0.000 C 
ATOM     12  O   UNL     1       1.957   9.674  17.092  0.00  0.00    +0.000 OA
ATOM     13  C   UNL     1       1.199   8.365  20.456  0.00  0.00    +0.000 C 
ATOM     14  C   UNL     1       0.418   9.112  21.564  0.00  0.00    +0.000 C 
ATOM     15  H   UNL     1      -2.132  14.213  20.863  0.00  0.00    +0.000 HD
ENDROOT
BRANCH  11  16
ATOM     16  C   UNL     1       2.627   7.630  17.985  0.00  0.00    +0.000 A 
ATOM     17  C   UNL     1       2.189   6.381  18.409  0.00  0.00    +0.000 A 
ATOM     18  C   UNL     1       3.145   5.402  18.015  0.00  0.00    +0.000 A 
ATOM     19  C   UNL     1       3.197   3.993  18.061  0.00  0.00    +0.000 A 
ATOM     20  C   UNL     1       4.298   3.347  17.491  0.00  0.00    +0.000 A 
ATOM     21  C   UNL     1       5.346   4.058  16.920  0.00  0.00    +0.000 A 
ATOM     22  C   UNL     1       5.331   5.455  16.906  0.00  0.00    +0.000 A 
ATOM     23  C   UNL     1       4.214   6.093  17.454  0.00  0.00    +0.000 A 
ATOM     24  N   UNL     1       3.930   7.432  17.581  0.00  0.00    +0.000 N 
ATOM     25  H   UNL     1       4.589   8.160  17.354  0.00  0.00    +0.000 HD
BRANCH  20  26
ATOM     26  O   UNL     1       4.377   1.983  17.460  0.00  0.00    +0.000 OA
ATOM     27  H   UNL     1       4.924   1.724  16.700  0.00  0.00    +0.000 HD
ENDBRANCH  20  26
ENDBRANCH  11  16
BRANCH   1  28
ATOM     28  C   UNL     1      -2.756  13.405  23.502  0.00  0.00    +0.000 C 
ATOM     29  O   UNL     1      -3.607  12.846  24.185  0.00  0.00    +0.000 OA
BRANCH  28  31
ATOM     30  C   UNL     1      -1.236  14.905  24.456  0.00  0.00    +0.000 C 
ATOM     31  O   UNL     1      -2.388  14.711  23.630  0.00  0.00    +0.000 OA
ENDBRANCH  28  31
ENDBRANCH   1  28
BRANCH   7  32
ATOM     32  O   UNL     1      -0.751  13.657  18.356  0.00  0.00    +0.000 OA
ATOM     33  H   UNL     1      -0.423  14.439  18.834  0.00  0.00    +0.000 HD
ENDBRANCH   7  32
BRANCH  14  34
ATOM     34  C   UNL     1       1.274   9.370  22.797  0.00  0.00    +0.000 C 
ATOM     35 CL   UNL     1       0.298   9.243  24.289  0.00  0.00    +0.000 Cl
ENDBRANCH  14  34
TORSDOF 6
ENDMDL
MODEL 9
REMARK VINA RESULT:      -7.3      2.512      3.400
REMARK  Name = 
REMARK  7 active torsions:
REMARK  status: ('A' for Active; 'I' for Inactive)
REMARK    1  A    between atoms: C_1  and  O_2
REMARK    2  A    between atoms: O_2  and  C_3
REMARK    3  A    between atoms: C_3  and  C_5
REMARK    4  A    between atoms: C_11  and  O_12
REMARK    5  A    between atoms: C_16  and  C_18
REMARK    6  A    between atoms: C_22  and  O_23
REMARK    7  A    between atoms: C_29  and  C_30
REMARK                            x       y       z     vdW  Elec       q    Type
REMARK                         _______ _______ _______ _____ _____    ______ ____
ROOT
ATOM      1  C   UNL     1      -2.616  12.863  22.445  0.00  0.00    +0.000 A 
ATOM      2  C   UNL     1      -2.001  11.612  22.489  0.00  0.00    +0.000 A 
ATOM      3  C   UNL     1      -1.245  11.574  21.336  0.00  0.00    +0.000 A 
ATOM      4  C   UNL     1      -0.422  10.498  20.949  0.00  0.00    +0.000 A 
ATOM      5  C   UNL     1       0.217  10.641  19.691  0.00  0.00    +0.000 A 
ATOM      6  C   UNL     1       0.122  11.781  18.885  0.00  0.00    +0.000 A 
ATOM      7  C   UNL     1      -0.680  12.835  19.344  0.00  0.00    +0.000 A 
ATOM      8  C   UNL     1      -1.350  12.684  20.554  0.00  0.00    +0.000 A 
ATOM      9  N   UNL     1      -2.219  13.489  21.264  0.00  0.00    +0.000 N 
ATOM     10  N   UNL     1       0.935   9.450  19.435  0.00  0.00    +0.000 N 
ATOM     11  C   UNL     1       1.785   9.210  18.339  0.00  0.00    +0.000 C 
ATOM     12  O   UNL     1       1.984  10.049  17.461  0.00  0.00    +0.000 OA
ATOM     13  C   UNL     1       0.768   8.531  20.596  0.00  0.00    +0.000 C 
ATOM     14  C   UNL     1      -0.146   9.218  21.640  0.00  0.00    +0.000 C 
ATOM     15  H   UNL     1      -2.521  14.406  20.965  0.00  0.00    +0.000 HD
ENDROOT
BRANCH  11  16
ATOM     16  C   UNL     1       2.505   7.936  18.291  0.00  0.00    +0.000 A 
ATOM     17  C   UNL     1       2.285   6.813  19.079  0.00  0.00    +0.000 A 
ATOM     18  C   UNL     1       3.090   5.745  18.589  0.00  0.00    +0.000 A 
ATOM     19  C   UNL     1       3.209   4.373  18.896  0.00  0.00    +0.000 A 
ATOM     20  C   UNL     1       4.078   3.591  18.128  0.00  0.00    +0.000 A 
ATOM     21  C   UNL     1       4.842   4.139  17.106  0.00  0.00    +0.000 A 
ATOM     22  C   UNL     1       4.768   5.504  16.818  0.00  0.00    +0.000 A 
ATOM     23  C   UNL     1       3.877   6.274  17.573  0.00  0.00    +0.000 A 
ATOM     24  N   UNL     1       3.601   7.619  17.518  0.00  0.00    +0.000 N 
ATOM     25  H   UNL     1       4.116   8.265  16.940  0.00  0.00    +0.000 HD
BRANCH  20  26
ATOM     26  O   UNL     1       4.195   2.247  18.346  0.00  0.00    +0.000 OA
ATOM     27  H   UNL     1       4.448   2.106  19.273  0.00  0.00    +0.000 HD
ENDBRANCH  20  26
ENDBRANCH  11  16
BRANCH   1  28
ATOM     28  C   UNL     1      -3.502  13.434  23.434  0.00  0.00    +0.000 C 
ATOM     29  O   UNL     1      -3.491  14.606  23.795  0.00  0.00    +0.000 OA
BRANCH  28  31
ATOM     30  C   UNL     1      -5.699  12.935  24.062  0.00  0.00    +0.000 C 
ATOM     31  O   UNL     1      -4.352  12.480  23.909  0.00  0.00    +0.000 OA
ENDBRANCH  28  31
ENDBRANCH   1  28
BRANCH   7  32
ATOM     32  O   UNL     1      -0.824  13.993  18.630  0.00  0.00    +0.000 OA
ATOM     33  H   UNL     1      -1.731  14.018  18.278  0.00  0.00    +0.000 HD
ENDBRANCH   7  32
BRANCH  14  34
ATOM     34  C   UNL     1       0.540   9.374  22.991  0.00  0.00    +0.000 C 
ATOM     35 CL   UNL     1       2.317   9.410  22.803  0.00  0.00    +0.000 Cl
ENDBRANCH  14  34
TORSDOF 6
ENDMDL
