MODEL 1
REMARK VINA RESULT:      -9.3      0.000      0.000
REMARK  Name = 
REMARK  5 active torsions:
REMARK  status: ('A' for Active; 'I' for Inactive)
REMARK    1  A    between atoms: C_1  and  S_2
REMARK    2  A    between atoms: S_2  and  N_5
REMARK    3  A    between atoms: C_8  and  C_9
REMARK    4  A    between atoms: C_9  and  C_10
REMARK    5  A    between atoms: C_13  and  C_14
REMARK                            x       y       z     vdW  Elec       q    Type
REMARK                         _______ _______ _______ _____ _____    ______ ____
ROOT
ATOM      1  C   UNL     1       2.784   5.692  19.385  0.00  0.00    +0.000 C 
ATOM      2  C   UNL     1       1.956   4.624  18.570  0.00  0.00    +0.000 C 
ATOM      3  C   UNL     1       1.313   4.184  19.895  0.00  0.00    +0.000 C 
ATOM      4  C   UNL     1       2.596   4.673  20.585  0.00  0.00    +0.000 C 
ENDROOT
BRANCH   1   8
ATOM      5  N   UNL     1       6.787   6.374  16.643  0.00  0.00    +0.000 N 
ATOM      6  C   UNL     1       5.961   6.032  17.733  0.00  0.00    +0.000 A 
ATOM      7  N   UNL     1       4.679   6.314  17.736  0.00  0.00    +0.000 NA
ATOM      8  C   UNL     1       4.271   5.773  18.936  0.00  0.00    +0.000 A 
ATOM      9  N   UNL     1       5.274   5.291  19.688  0.00  0.00    +0.000 NA
ATOM     10  O   UNL     1       6.395   5.444  18.881  0.00  0.00    +0.000 OA
ATOM     11  H   UNL     1       6.236   6.971  16.025  0.00  0.00    +0.000 HD
BRANCH   5  13
ATOM     12  C   UNL     1       5.589   4.196  15.653  0.00  0.00    +0.000 C 
ATOM     13  S   UNL     1       7.177   4.977  15.782  0.00  0.00    +0.000 S 
ATOM     14  O   UNL     1       7.989   4.180  16.679  0.00  0.00    +0.000 OA
ATOM     15  O   UNL     1       7.618   5.298  14.441  0.00  0.00    +0.000 OA
ENDBRANCH   5  13
ENDBRANCH   1   8
BRANCH   1  16
ATOM     16  C   UNL     1       2.181   7.170  19.576  0.00  0.00    +0.000 A 
ATOM     17  C   UNL     1       1.603   7.595  20.786  0.00  0.00    +0.000 A 
ATOM     18  C   UNL     1       0.926   8.817  20.899  0.00  0.00    +0.000 A 
ATOM     19  C   UNL     1       0.799   9.687  19.806  0.00  0.00    +0.000 A 
ATOM     20  C   UNL     1       1.415   9.295  18.609  0.00  0.00    +0.000 A 
ATOM     21  C   UNL     1       2.084   8.072  18.500  0.00  0.00    +0.000 A 
BRANCH  19  22
ATOM     22  C   UNL     1       0.040  10.945  19.895  0.00  0.00    +0.000 A 
ATOM     23  C   UNL     1      -0.273  11.737  18.804  0.00  0.00    +0.000 A 
ATOM     24  N   UNL     1      -0.992  12.881  18.859  0.00  0.00    +0.000 NA
ATOM     25  C   UNL     1      -1.442  13.242  20.061  0.00  0.00    +0.000 A 
ATOM     26  N   UNL     1      -2.199  14.390  20.144  0.00  0.00    +0.000 N 
ATOM     27  N   UNL     1      -1.179  12.595  21.196  0.00  0.00    +0.000 NA
ATOM     28  C   UNL     1      -0.445  11.464  21.083  0.00  0.00    +0.000 A 
ATOM     29  H   UNL     1      -1.972  15.001  19.375  0.00  0.00    +0.000 HD
ATOM     30  H   UNL     1      -2.135  14.767  21.079  0.00  0.00    +0.000 HD
ENDBRANCH  19  22
ENDBRANCH   1  16
TORSDOF 4
ENDMDL
MODEL 2
REMARK VINA RESULT:      -9.2      1.006      1.482
REMARK  Name = 
REMARK  5 active torsions:
REMARK  status: ('A' for Active; 'I' for Inactive)
REMARK    1  A    between atoms: C_1  and  S_2
REMARK    2  A    between atoms: S_2  and  N_5
REMARK    3  A    between atoms: C_8  and  C_9
REMARK    4  A    between atoms: C_9  and  C_10
REMARK    5  A    between atoms: C_13  and  C_14
REMARK                            x       y       z     vdW  Elec       q    Type
REMARK                         _______ _______ _______ _____ _____    ______ ____
ROOT
ATOM      1  C   UNL     1       2.706   5.728  19.280  0.00  0.00    +0.000 C 
ATOM      2  C   UNL     1       1.972   4.477  18.657  0.00  0.00    +0.000 C 
ATOM      3  C   UNL     1       1.297   4.257  20.020  0.00  0.00    +0.000 C 
ATOM      4  C   UNL     1       2.520   4.944  20.646  0.00  0.00    +0.000 C 
ENDROOT
BRANCH   1   8
ATOM      5  N   UNL     1       6.781   6.398  16.642  0.00  0.00    +0.000 N 
ATOM      6  C   UNL     1       5.927   6.067  17.714  0.00  0.00    +0.000 A 
ATOM      7  N   UNL     1       4.643   6.339  17.676  0.00  0.00    +0.000 NA
ATOM      8  C   UNL     1       4.204   5.813  18.872  0.00  0.00    +0.000 A 
ATOM      9  N   UNL     1       5.189   5.349  19.660  0.00  0.00    +0.000 NA
ATOM     10  O   UNL     1       6.331   5.499  18.883  0.00  0.00    +0.000 OA
ATOM     11  H   UNL     1       6.243   6.981  16.000  0.00  0.00    +0.000 HD
BRANCH   5  13
ATOM     12  C   UNL     1       5.624   4.202  15.643  0.00  0.00    +0.000 C 
ATOM     13  S   UNL     1       7.205   4.992  15.814  0.00  0.00    +0.000 S 
ATOM     14  O   UNL     1       7.989   4.210  16.748  0.00  0.00    +0.000 OA
ATOM     15  O   UNL     1       7.688   5.296  14.484  0.00  0.00    +0.000 OA
ENDBRANCH   5  13
ENDBRANCH   1   8
BRANCH   1  16
ATOM     16  C   UNL     1       2.017   7.176  19.166  0.00  0.00    +0.000 A 
ATOM     17  C   UNL     1       1.916   7.867  17.945  0.00  0.00    +0.000 A 
ATOM     18  C   UNL     1       1.475   9.195  17.874  0.00  0.00    +0.000 A 
ATOM     19  C   UNL     1       1.099   9.904  19.025  0.00  0.00    +0.000 A 
ATOM     20  C   UNL     1       1.148   9.208  20.242  0.00  0.00    +0.000 A 
ATOM     21  C   UNL     1       1.596   7.884  20.307  0.00  0.00    +0.000 A 
BRANCH  19  22
ATOM     22  C   UNL     1       0.691  11.317  18.972  0.00  0.00    +0.000 A 
ATOM     23  C   UNL     1       1.542  12.377  19.232  0.00  0.00    +0.000 A 
ATOM     24  N   UNL     1       1.196  13.682  19.163  0.00  0.00    +0.000 NA
ATOM     25  C   UNL     1      -0.058  13.944  18.793  0.00  0.00    +0.000 A 
ATOM     26  N   UNL     1      -0.432  15.266  18.689  0.00  0.00    +0.000 N 
ATOM     27  N   UNL     1      -0.988  13.021  18.555  0.00  0.00    +0.000 NA
ATOM     28  C   UNL     1      -0.590  11.731  18.652  0.00  0.00    +0.000 A 
ATOM     29  H   UNL     1       0.154  15.832  19.284  0.00  0.00    +0.000 HD
ATOM     30  H   UNL     1      -1.433  15.342  18.805  0.00  0.00    +0.000 HD
ENDBRANCH  19  22
ENDBRANCH   1  16
TORSDOF 4
ENDMDL
MODEL 3
REMARK VINA RESULT:      -9.0      1.685      2.015
REMARK  Name = 
REMARK  5 active torsions:
REMARK  status: ('A' for Active; 'I' for Inactive)
REMARK    1  A    between atoms: C_1  and  S_2
REMARK    2  A    between atoms: S_2  and  N_5
REMARK    3  A    between atoms: C_8  and  C_9
REMARK    4  A    between atoms: C_9  and  C_10
REMARK    5  A    between atoms: C_13  and  C_14
REMARK                            x       y       z     vdW  Elec       q    Type
REMARK                         _______ _______ _______ _____ _____    ______ ____
ROOT
ATOM      1  C   UNL     1       2.417   4.539  19.519  0.00  0.00    +0.000 C 
ATOM      2  C   UNL     1       1.170   3.576  19.610  0.00  0.00    +0.000 C 
ATOM      3  C   UNL     1       1.253   3.693  21.140  0.00  0.00    +0.000 C 
ATOM      4  C   UNL     1       2.755   3.960  20.957  0.00  0.00    +0.000 C 
ENDROOT
BRANCH   1   8
ATOM      5  N   UNL     1       6.501   4.247  16.827  0.00  0.00    +0.000 N 
ATOM      6  C   UNL     1       5.196   4.000  17.300  0.00  0.00    +0.000 A 
ATOM      7  N   UNL     1       4.757   4.538  18.414  0.00  0.00    +0.000 NA
ATOM      8  C   UNL     1       3.459   4.077  18.461  0.00  0.00    +0.000 A 
ATOM      9  N   UNL     1       3.153   3.203  17.488  0.00  0.00    +0.000 NA
ATOM     10  O   UNL     1       4.300   3.166  16.705  0.00  0.00    +0.000 OA
ATOM     11  H   UNL     1       7.000   4.742  17.569  0.00  0.00    +0.000 HD
BRANCH   5  13
ATOM     12  C   UNL     1       6.328   4.114  14.161  0.00  0.00    +0.000 C 
ATOM     13  S   UNL     1       6.425   5.279  15.496  0.00  0.00    +0.000 S 
ATOM     14  O   UNL     1       7.721   5.923  15.426  0.00  0.00    +0.000 OA
ATOM     15  O   UNL     1       5.196   6.044  15.500  0.00  0.00    +0.000 OA
ENDBRANCH   5  13
ENDBRANCH   1   8
BRANCH   1  16
ATOM     16  C   UNL     1       2.176   6.124  19.405  0.00  0.00    +0.000 A 
ATOM     17  C   UNL     1       1.803   6.909  20.512  0.00  0.00    +0.000 A 
ATOM     18  C   UNL     1       1.426   8.252  20.378  0.00  0.00    +0.000 A 
ATOM     19  C   UNL     1       1.411   8.888  19.128  0.00  0.00    +0.000 A 
ATOM     20  C   UNL     1       1.829   8.128  18.026  0.00  0.00    +0.000 A 
ATOM     21  C   UNL     1       2.198   6.786  18.164  0.00  0.00    +0.000 A 
BRANCH  19  22
ATOM     22  C   UNL     1       0.960  10.280  18.966  0.00  0.00    +0.000 A 
ATOM     23  C   UNL     1       1.806  11.338  18.686  0.00  0.00    +0.000 A 
ATOM     24  N   UNL     1       1.412  12.618  18.506  0.00  0.00    +0.000 NA
ATOM     25  C   UNL     1       0.101  12.852  18.588  0.00  0.00    +0.000 A 
ATOM     26  N   UNL     1      -0.334  14.143  18.385  0.00  0.00    +0.000 N 
ATOM     27  N   UNL     1      -0.816  11.935  18.893  0.00  0.00    +0.000 NA
ATOM     28  C   UNL     1      -0.363  10.673  19.075  0.00  0.00    +0.000 A 
ATOM     29  H   UNL     1       0.410  14.789  18.600  0.00  0.00    +0.000 HD
ATOM     30  H   UNL     1      -1.221  14.276  18.850  0.00  0.00    +0.000 HD
ENDBRANCH  19  22
ENDBRANCH   1  16
TORSDOF 4
ENDMDL
MODEL 4
REMARK VINA RESULT:      -9.0      1.076      1.590
REMARK  Name = 
REMARK  5 active torsions:
REMARK  status: ('A' for Active; 'I' for Inactive)
REMARK    1  A    between atoms: C_1  and  S_2
REMARK    2  A    between atoms: S_2  and  N_5
REMARK    3  A    between atoms: C_8  and  C_9
REMARK    4  A    between atoms: C_9  and  C_10
REMARK    5  A    between atoms: C_13  and  C_14
REMARK                            x       y       z     vdW  Elec       q    Type
REMARK                         _______ _______ _______ _____ _____    ______ ____
ROOT
ATOM      1  C   UNL     1       2.748   5.407  18.907  0.00  0.00    +0.000 C 
ATOM      2  C   UNL     1       1.887   4.674  17.806  0.00  0.00    +0.000 C 
ATOM      3  C   UNL     1       1.312   3.784  18.920  0.00  0.00    +0.000 C 
ATOM      4  C   UNL     1       2.624   4.029  19.681  0.00  0.00    +0.000 C 
ENDROOT
BRANCH   1   8
ATOM      5  N   UNL     1       6.632   6.479  16.117  0.00  0.00    +0.000 N 
ATOM      6  C   UNL     1       5.856   6.094  17.230  0.00  0.00    +0.000 A 
ATOM      7  N   UNL     1       4.546   6.186  17.216  0.00  0.00    +0.000 NA
ATOM      8  C   UNL     1       4.212   5.673  18.450  0.00  0.00    +0.000 A 
ATOM      9  N   UNL     1       5.268   5.392  19.231  0.00  0.00    +0.000 NA
ATOM     10  O   UNL     1       6.361   5.653  18.414  0.00  0.00    +0.000 OA
ATOM     11  H   UNL     1       6.005   6.947  15.462  0.00  0.00    +0.000 HD
BRANCH   5  13
ATOM     12  C   UNL     1       5.721   4.239  14.972  0.00  0.00    +0.000 C 
ATOM     13  S   UNL     1       7.227   5.100  15.350  0.00  0.00    +0.000 S 
ATOM     14  O   UNL     1       7.917   4.349  16.379  0.00  0.00    +0.000 OA
ATOM     15  O   UNL     1       7.866   5.436  14.097  0.00  0.00    +0.000 OA
ENDBRANCH   5  13
ENDBRANCH   1   8
BRANCH   1  16
ATOM     16  C   UNL     1       2.148   6.711  19.630  0.00  0.00    +0.000 A 
ATOM     17  C   UNL     1       1.612   6.670  20.930  0.00  0.00    +0.000 A 
ATOM     18  C   UNL     1       0.935   7.762  21.491  0.00  0.00    +0.000 A 
ATOM     19  C   UNL     1       0.766   8.961  20.783  0.00  0.00    +0.000 A 
ATOM     20  C   UNL     1       1.341   9.029  19.506  0.00  0.00    +0.000 A 
ATOM     21  C   UNL     1       2.010   7.935  18.948  0.00  0.00    +0.000 A 
BRANCH  19  22
ATOM     22  C   UNL     1       0.006  10.094  21.338  0.00  0.00    +0.000 A 
ATOM     23  C   UNL     1      -0.322  10.222  22.676  0.00  0.00    +0.000 A 
ATOM     24  N   UNL     1      -0.995  11.265  23.212  0.00  0.00    +0.000 NA
ATOM     25  C   UNL     1      -1.338  12.243  22.372  0.00  0.00    +0.000 A 
ATOM     26  N   UNL     1      -2.002  13.331  22.894  0.00  0.00    +0.000 N 
ATOM     27  N   UNL     1      -1.121  12.226  21.058  0.00  0.00    +0.000 NA
ATOM     28  C   UNL     1      -0.455  11.152  20.575  0.00  0.00    +0.000 A 
ATOM     29  H   UNL     1      -2.485  13.061  23.737  0.00  0.00    +0.000 HD
ATOM     30  H   UNL     1      -2.543  13.776  22.164  0.00  0.00    +0.000 HD
ENDBRANCH  19  22
ENDBRANCH   1  16
TORSDOF 4
ENDMDL
MODEL 5
REMARK VINA RESULT:      -9.0      1.698      2.248
REMARK  Name = 
REMARK  5 active torsions:
REMARK  status: ('A' for Active; 'I' for Inactive)
REMARK    1  A    between atoms: C_1  and  S_2
REMARK    2  A    between atoms: S_2  and  N_5
REMARK    3  A    between atoms: C_8  and  C_9
REMARK    4  A    between atoms: C_9  and  C_10
REMARK    5  A    between atoms: C_13  and  C_14
REMARK                            x       y       z     vdW  Elec       q    Type
REMARK                         _______ _______ _______ _____ _____    ______ ____
ROOT
ATOM      1  C   UNL     1       2.343   4.204  19.552  0.00  0.00    +0.000 C 
ATOM      2  C   UNL     1       1.079   3.265  19.451  0.00  0.00    +0.000 C 
ATOM      3  C   UNL     1       1.170   3.062  20.972  0.00  0.00    +0.000 C 
ATOM      4  C   UNL     1       2.676   3.335  20.836  0.00  0.00    +0.000 C 
ENDROOT
BRANCH   1   8
ATOM      5  N   UNL     1       6.515   4.123  16.982  0.00  0.00    +0.000 N 
ATOM      6  C   UNL     1       5.155   3.966  17.321  0.00  0.00    +0.000 A 
ATOM      7  N   UNL     1       4.728   4.162  18.547  0.00  0.00    +0.000 NA
ATOM      8  C   UNL     1       3.373   3.953  18.413  0.00  0.00    +0.000 A 
ATOM      9  N   UNL     1       3.002   3.532  17.192  0.00  0.00    +0.000 NA
ATOM     10  O   UNL     1       4.183   3.560  16.461  0.00  0.00    +0.000 OA
ATOM     11  H   UNL     1       7.030   4.237  17.856  0.00  0.00    +0.000 HD
BRANCH   5  13
ATOM     12  C   UNL     1       7.329   6.647  17.336  0.00  0.00    +0.000 C 
ATOM     13  S   UNL     1       6.707   5.543  16.093  0.00  0.00    +0.000 S 
ATOM     14  O   UNL     1       5.367   5.973  15.752  0.00  0.00    +0.000 OA
ATOM     15  O   UNL     1       7.736   5.392  15.087  0.00  0.00    +0.000 OA
ENDBRANCH   5  13
ENDBRANCH   1   8
BRANCH   1  16
ATOM     16  C   UNL     1       2.131   5.782  19.768  0.00  0.00    +0.000 A 
ATOM     17  C   UNL     1       1.523   6.307  20.924  0.00  0.00    +0.000 A 
ATOM     18  C   UNL     1       1.182   7.662  21.036  0.00  0.00    +0.000 A 
ATOM     19  C   UNL     1       1.442   8.571  19.999  0.00  0.00    +0.000 A 
ATOM     20  C   UNL     1       2.093   8.067  18.864  0.00  0.00    +0.000 A 
ATOM     21  C   UNL     1       2.425   6.712  18.754  0.00  0.00    +0.000 A 
BRANCH  19  22
ATOM     22  C   UNL     1       1.036   9.983  20.080  0.00  0.00    +0.000 A 
ATOM     23  C   UNL     1       0.864  10.670  21.268  0.00  0.00    +0.000 A 
ATOM     24  N   UNL     1       0.518  11.974  21.366  0.00  0.00    +0.000 NA
ATOM     25  C   UNL     1       0.359  12.632  20.218  0.00  0.00    +0.000 A 
ATOM     26  N   UNL     1       0.031  13.969  20.286  0.00  0.00    +0.000 N 
ATOM     27  N   UNL     1       0.453  12.083  19.008  0.00  0.00    +0.000 NA
ATOM     28  C   UNL     1       0.789  10.773  18.970  0.00  0.00    +0.000 A 
ATOM     29  H   UNL     1      -0.430  14.160  21.162  0.00  0.00    +0.000 HD
ATOM     30  H   UNL     1      -0.442  14.242  19.436  0.00  0.00    +0.000 HD
ENDBRANCH  19  22
ENDBRANCH   1  16
TORSDOF 4
ENDMDL
MODEL 6
REMARK VINA RESULT:      -9.0      1.775      2.197
REMARK  Name = 
REMARK  5 active torsions:
REMARK  status: ('A' for Active; 'I' for Inactive)
REMARK    1  A    between atoms: C_1  and  S_2
REMARK    2  A    between atoms: S_2  and  N_5
REMARK    3  A    between atoms: C_8  and  C_9
REMARK    4  A    between atoms: C_9  and  C_10
REMARK    5  A    between atoms: C_13  and  C_14
REMARK                            x       y       z     vdW  Elec       q    Type
REMARK                         _______ _______ _______ _____ _____    ______ ____
ROOT
ATOM      1  C   UNL     1       2.310   4.257  19.641  0.00  0.00    +0.000 C 
ATOM      2  C   UNL     1       1.038   3.322  19.646  0.00  0.00    +0.000 C 
ATOM      3  C   UNL     1       1.192   3.205  21.172  0.00  0.00    +0.000 C 
ATOM      4  C   UNL     1       2.692   3.460  20.958  0.00  0.00    +0.000 C 
ENDROOT
BRANCH   1   8
ATOM      5  N   UNL     1       6.340   4.097  16.858  0.00  0.00    +0.000 N 
ATOM      6  C   UNL     1       5.010   3.915  17.289  0.00  0.00    +0.000 A 
ATOM      7  N   UNL     1       4.638   4.219  18.511  0.00  0.00    +0.000 NA
ATOM      8  C   UNL     1       3.290   3.935  18.477  0.00  0.00    +0.000 A 
ATOM      9  N   UNL     1       2.878   3.370  17.329  0.00  0.00    +0.000 NA
ATOM     10  O   UNL     1       4.016   3.376  16.532  0.00  0.00    +0.000 OA
ATOM     11  H   UNL     1       6.894   4.327  17.685  0.00  0.00    +0.000 HD
BRANCH   5  13
ATOM     12  C   UNL     1       6.696   4.624  14.259  0.00  0.00    +0.000 C 
ATOM     13  S   UNL     1       6.411   5.423  15.818  0.00  0.00    +0.000 S 
ATOM     14  O   UNL     1       7.621   6.134  16.176  0.00  0.00    +0.000 OA
ATOM     15  O   UNL     1       5.131   6.093  15.740  0.00  0.00    +0.000 OA
ENDBRANCH   5  13
ENDBRANCH   1   8
BRANCH   1  16
ATOM     16  C   UNL     1       2.114   5.846  19.776  0.00  0.00    +0.000 A 
ATOM     17  C   UNL     1       1.548   6.439  20.920  0.00  0.00    +0.000 A 
ATOM     18  C   UNL     1       1.219   7.801  20.967  0.00  0.00    +0.000 A 
ATOM     19  C   UNL     1       1.449   8.648  19.873  0.00  0.00    +0.000 A 
ATOM     20  C   UNL     1       2.059   8.077  18.747  0.00  0.00    +0.000 A 
ATOM     21  C   UNL     1       2.379   6.717  18.703  0.00  0.00    +0.000 A 
BRANCH  19  22
ATOM     22  C   UNL     1       1.054  10.066  19.889  0.00  0.00    +0.000 A 
ATOM     23  C   UNL     1       0.591  10.727  21.013  0.00  0.00    +0.000 A 
ATOM     24  N   UNL     1       0.249  12.034  21.057  0.00  0.00    +0.000 NA
ATOM     25  C   UNL     1       0.397  12.724  19.926  0.00  0.00    +0.000 A 
ATOM     26  N   UNL     1       0.080  14.065  19.947  0.00  0.00    +0.000 N 
ATOM     27  N   UNL     1       0.792  12.203  18.765  0.00  0.00    +0.000 NA
ATOM     28  C   UNL     1       1.109  10.888  18.776  0.00  0.00    +0.000 A 
ATOM     29  H   UNL     1      -0.588  14.243  20.681  0.00  0.00    +0.000 HD
ATOM     30  H   UNL     1      -0.156  14.368  19.012  0.00  0.00    +0.000 HD
ENDBRANCH  19  22
ENDBRANCH   1  16
TORSDOF 4
ENDMDL
MODEL 7
REMARK VINA RESULT:      -9.0      1.199      1.286
REMARK  Name = 
REMARK  5 active torsions:
REMARK  status: ('A' for Active; 'I' for Inactive)
REMARK    1  A    between atoms: C_1  and  S_2
REMARK    2  A    between atoms: S_2  and  N_5
REMARK    3  A    between atoms: C_8  and  C_9
REMARK    4  A    between atoms: C_9  and  C_10
REMARK    5  A    between atoms: C_13  and  C_14
REMARK                            x       y       z     vdW  Elec       q    Type
REMARK                         _______ _______ _______ _____ _____    ______ ____
ROOT
ATOM      1  C   UNL     1       2.476   4.970  19.909  0.00  0.00    +0.000 C 
ATOM      2  C   UNL     1       1.540   3.961  19.137  0.00  0.00    +0.000 C 
ATOM      3  C   UNL     1       0.772   3.745  20.451  0.00  0.00    +0.000 C 
ATOM      4  C   UNL     1       2.076   4.107  21.178  0.00  0.00    +0.000 C 
ENDROOT
BRANCH   1   8
ATOM      5  N   UNL     1       7.112   5.957  18.666  0.00  0.00    +0.000 N 
ATOM      6  C   UNL     1       5.941   5.237  18.981  0.00  0.00    +0.000 A 
ATOM      7  N   UNL     1       4.864   5.843  19.426  0.00  0.00    +0.000 NA
ATOM      8  C   UNL     1       3.979   4.794  19.551  0.00  0.00    +0.000 A 
ATOM      9  N   UNL     1       4.521   3.588  19.310  0.00  0.00    +0.000 NA
ATOM     10  O   UNL     1       5.819   3.884  18.912  0.00  0.00    +0.000 OA
ATOM     11  H   UNL     1       6.975   6.913  18.998  0.00  0.00    +0.000 HD
BRANCH   5  13
ATOM     12  C   UNL     1       5.596   6.143  16.469  0.00  0.00    +0.000 C 
ATOM     13  S   UNL     1       7.289   6.026  16.990  0.00  0.00    +0.000 S 
ATOM     14  O   UNL     1       7.782   4.722  16.597  0.00  0.00    +0.000 OA
ATOM     15  O   UNL     1       7.956   7.244  16.587  0.00  0.00    +0.000 OA
ENDBRANCH   5  13
ENDBRANCH   1   8
BRANCH   1  16
ATOM     16  C   UNL     1       2.091   6.531  19.933  0.00  0.00    +0.000 A 
ATOM     17  C   UNL     1       1.510   7.145  21.058  0.00  0.00    +0.000 A 
ATOM     18  C   UNL     1       1.018   8.457  21.019  0.00  0.00    +0.000 A 
ATOM     19  C   UNL     1       1.092   9.232  19.853  0.00  0.00    +0.000 A 
ATOM     20  C   UNL     1       1.715   8.647  18.742  0.00  0.00    +0.000 A 
ATOM     21  C   UNL     1       2.198   7.335  18.783  0.00  0.00    +0.000 A 
BRANCH  19  22
ATOM     22  C   UNL     1       0.526  10.589  19.782  0.00  0.00    +0.000 A 
ATOM     23  C   UNL     1       0.156  11.211  18.602  0.00  0.00    +0.000 A 
ATOM     24  N   UNL     1      -0.390  12.445  18.515  0.00  0.00    +0.000 NA
ATOM     25  C   UNL     1      -0.599  13.083  19.668  0.00  0.00    +0.000 A 
ATOM     26  N   UNL     1      -1.178  14.332  19.612  0.00  0.00    +0.000 N 
ATOM     27  N   UNL     1      -0.253  12.618  20.867  0.00  0.00    +0.000 NA
ATOM     28  C   UNL     1       0.302  11.384  20.893  0.00  0.00    +0.000 A 
ATOM     29  H   UNL     1      -0.994  14.751  18.714  0.00  0.00    +0.000 HD
ATOM     30  H   UNL     1      -0.923  14.857  20.438  0.00  0.00    +0.000 HD
ENDBRANCH  19  22
ENDBRANCH   1  16
TORSDOF 4
ENDMDL
MODEL 8
REMARK VINA RESULT:      -9.0      1.569      1.908
REMARK  Name = 
REMARK  5 active torsions:
REMARK  status: ('A' for Active; 'I' for Inactive)
REMARK    1  A    between atoms: C_1  and  S_2
REMARK    2  A    between atoms: S_2  and  N_5
REMARK    3  A    between atoms: C_8  and  C_9
REMARK    4  A    between atoms: C_9  and  C_10
REMARK    5  A    between atoms: C_13  and  C_14
REMARK                            x       y       z     vdW  Elec       q    Type
REMARK                         _______ _______ _______ _____ _____    ______ ____
ROOT
ATOM      1  C   UNL     1       2.487   4.719  19.475  0.00  0.00    +0.000 C 
ATOM      2  C   UNL     1       1.275   3.715  19.363  0.00  0.00    +0.000 C 
ATOM      3  C   UNL     1       1.123   3.806  20.890  0.00  0.00    +0.000 C 
ATOM      4  C   UNL     1       2.625   4.125  20.939  0.00  0.00    +0.000 C 
ENDROOT
BRANCH   1   8
ATOM      5  N   UNL     1       6.962   4.558  17.484  0.00  0.00    +0.000 N 
ATOM      6  C   UNL     1       5.598   4.290  17.720  0.00  0.00    +0.000 A 
ATOM      7  N   UNL     1       4.978   4.769  18.774  0.00  0.00    +0.000 NA
ATOM      8  C   UNL     1       3.693   4.312  18.580  0.00  0.00    +0.000 A 
ATOM      9  N   UNL     1       3.556   3.493  17.524  0.00  0.00    +0.000 NA
ATOM     10  O   UNL     1       4.817   3.494  16.940  0.00  0.00    +0.000 OA
ATOM     11  H   UNL     1       7.328   5.009  18.324  0.00  0.00    +0.000 HD
BRANCH   5  13
ATOM     12  C   UNL     1       5.402   6.097  15.949  0.00  0.00    +0.000 C 
ATOM     13  S   UNL     1       7.101   5.661  16.216  0.00  0.00    +0.000 S 
ATOM     14  O   UNL     1       7.543   4.888  15.074  0.00  0.00    +0.000 OA
ATOM     15  O   UNL     1       7.799   6.856  16.640  0.00  0.00    +0.000 OA
ENDBRANCH   5  13
ENDBRANCH   1   8
BRANCH   1  16
ATOM     16  C   UNL     1       2.211   6.298  19.348  0.00  0.00    +0.000 A 
ATOM     17  C   UNL     1       1.769   7.074  20.435  0.00  0.00    +0.000 A 
ATOM     18  C   UNL     1       1.363   8.407  20.282  0.00  0.00    +0.000 A 
ATOM     19  C   UNL     1       1.389   9.041  19.031  0.00  0.00    +0.000 A 
ATOM     20  C   UNL     1       1.875   8.291  17.951  0.00  0.00    +0.000 A 
ATOM     21  C   UNL     1       2.272   6.960  18.107  0.00  0.00    +0.000 A 
BRANCH  19  22
ATOM     22  C   UNL     1       0.910  10.421  18.847  0.00  0.00    +0.000 A 
ATOM     23  C   UNL     1      -0.427  10.775  18.802  0.00  0.00    +0.000 A 
ATOM     24  N   UNL     1      -0.889  12.038  18.661  0.00  0.00    +0.000 NA
ATOM     25  C   UNL     1       0.030  13.000  18.584  0.00  0.00    +0.000 A 
ATOM     26  N   UNL     1      -0.411  14.300  18.465  0.00  0.00    +0.000 N 
ATOM     27  N   UNL     1       1.346  12.794  18.572  0.00  0.00    +0.000 NA
ATOM     28  C   UNL     1       1.752  11.510  18.703  0.00  0.00    +0.000 A 
ATOM     29  H   UNL     1      -1.332  14.309  18.053  0.00  0.00    +0.000 HD
ATOM     30  H   UNL     1       0.306  14.859  18.024  0.00  0.00    +0.000 HD
ENDBRANCH  19  22
ENDBRANCH   1  16
TORSDOF 4
ENDMDL
MODEL 9
REMARK VINA RESULT:      -8.9      1.524      2.110
REMARK  Name = 
REMARK  5 active torsions:
REMARK  status: ('A' for Active; 'I' for Inactive)
REMARK    1  A    between atoms: C_1  and  S_2
REMARK    2  A    between atoms: S_2  and  N_5
REMARK    3  A    between atoms: C_8  and  C_9
REMARK    4  A    between atoms: C_9  and  C_10
REMARK    5  A    between atoms: C_13  and  C_14
REMARK                            x       y       z     vdW  Elec       q    Type
REMARK                         _______ _______ _______ _____ _____    ______ ____
ROOT
ATOM      1  C   UNL     1       2.470   4.812  19.842  0.00  0.00    +0.000 C 
ATOM      2  C   UNL     1       1.596   3.632  19.264  0.00  0.00    +0.000 C 
ATOM      3  C   UNL     1       0.832   3.612  20.598  0.00  0.00    +0.000 C 
ATOM      4  C   UNL     1       2.109   4.168  21.245  0.00  0.00    +0.000 C 
ENDROOT
BRANCH   1   8
ATOM      5  N   UNL     1       7.106   5.860  18.650  0.00  0.00    +0.000 N 
ATOM      6  C   UNL     1       5.945   5.126  18.967  0.00  0.00    +0.000 A 
ATOM      7  N   UNL     1       4.848   5.721  19.373  0.00  0.00    +0.000 NA
ATOM      8  C   UNL     1       3.983   4.657  19.517  0.00  0.00    +0.000 A 
ATOM      9  N   UNL     1       4.555   3.457  19.325  0.00  0.00    +0.000 NA
ATOM     10  O   UNL     1       5.854   3.768  18.941  0.00  0.00    +0.000 OA
ATOM     11  H   UNL     1       6.943   6.823  18.949  0.00  0.00    +0.000 HD
BRANCH   5  13
ATOM     12  C   UNL     1       5.627   5.870  16.421  0.00  0.00    +0.000 C 
ATOM     13  S   UNL     1       7.313   5.879  16.977  0.00  0.00    +0.000 S 
ATOM     14  O   UNL     1       7.894   4.595  16.642  0.00  0.00    +0.000 OA
ATOM     15  O   UNL     1       7.912   7.121  16.540  0.00  0.00    +0.000 OA
ENDBRANCH   5  13
ENDBRANCH   1   8
BRANCH   1  16
ATOM     16  C   UNL     1       2.001   6.329  19.589  0.00  0.00    +0.000 A 
ATOM     17  C   UNL     1       2.143   6.961  18.340  0.00  0.00    +0.000 A 
ATOM     18  C   UNL     1       1.896   8.330  18.167  0.00  0.00    +0.000 A 
ATOM     19  C   UNL     1       1.482   9.141  19.234  0.00  0.00    +0.000 A 
ATOM     20  C   UNL     1       1.290   8.509  20.471  0.00  0.00    +0.000 A 
ATOM     21  C   UNL     1       1.544   7.145  20.641  0.00  0.00    +0.000 A 
BRANCH  19  22
ATOM     22  C   UNL     1       1.277  10.590  19.078  0.00  0.00    +0.000 A 
ATOM     23  C   UNL     1       0.231  11.288  19.655  0.00  0.00    +0.000 A 
ATOM     24  N   UNL     1       0.038  12.622  19.549  0.00  0.00    +0.000 NA
ATOM     25  C   UNL     1       0.949  13.299  18.849  0.00  0.00    +0.000 A 
ATOM     26  N   UNL     1       0.793  14.664  18.744  0.00  0.00    +0.000 N 
ATOM     27  N   UNL     1       1.979  12.746  18.209  0.00  0.00    +0.000 NA
ATOM     28  C   UNL     1       2.115  11.407  18.339  0.00  0.00    +0.000 A 
ATOM     29  H   UNL     1      -0.180  14.903  18.861  0.00  0.00    +0.000 HD
ATOM     30  H   UNL     1       1.261  14.992  17.910  0.00  0.00    +0.000 HD
ENDBRANCH  19  22
ENDBRANCH   1  16
TORSDOF 4
ENDMDL
