MODEL 1
REMARK VINA RESULT:      -8.5      0.000      0.000
REMARK  Name = 
REMARK  11 active torsions:
REMARK  status: ('A' for Active; 'I' for Inactive)
REMARK    1  A    between atoms: C_1  and  C_2
REMARK    2  A    between atoms: C_2  and  N_3
REMARK    3  A    between atoms: N_3  and  C_4
REMARK    4  A    between atoms: N_3  and  C_6
REMARK    5  A    between atoms: C_4  and  C_5
REMARK    6  A    between atoms: C_6  and  C_7
REMARK    7  A    between atoms: C_7  and  C_8
REMARK    8  A    between atoms: C_8  and  C_9
REMARK    9  A    between atoms: C_9  and  C_10
REMARK   10  A    between atoms: C_9  and  N_11
REMARK   11  A    between atoms: N_11  and  C_12
REMARK                            x       y       z     vdW  Elec       q    Type
REMARK                         _______ _______ _______ _____ _____    ______ ____
ROOT
ATOM      1  C   UNL     1       5.585   6.243  16.803  0.00  0.00    +0.000 A 
ATOM      2  C   UNL     1       5.938   5.397  15.664  0.00  0.00    +0.000 A 
ATOM      3  C   UNL     1       7.036   5.584  14.762  0.00  0.00    +0.000 A 
ATOM      4  C   UNL     1       7.244   4.781  13.650  0.00  0.00    +0.000 A 
ATOM      5  C   UNL     1       6.382   3.740  13.371  0.00  0.00    +0.000 A 
ATOM      6  C   UNL     1       5.339   3.467  14.244  0.00  0.00    +0.000 A 
ATOM      7  C   UNL     1       5.128   4.261  15.381  0.00  0.00    +0.000 A 
ATOM      8  N   UNL     1       4.131   3.904  16.207  0.00  0.00    +0.000 NA
ATOM      9  C   UNL     1       3.809   4.575  17.328  0.00  0.00    +0.000 A 
ATOM     10  C   UNL     1       4.496   5.781  17.653  0.00  0.00    +0.000 A 
ATOM     11  C   UNL     1       4.071   6.458  18.830  0.00  0.00    +0.000 A 
ATOM     12  C   UNL     1       3.052   5.946  19.646  0.00  0.00    +0.000 A 
ATOM     13  C   UNL     1       2.420   4.742  19.334  0.00  0.00    +0.000 A 
ATOM     14  C   UNL     1       1.429   4.213  20.183  0.00  0.00    +0.000 A 
ATOM     15  C   UNL     1       0.817   2.994  19.878  0.00  0.00    +0.000 A 
ATOM     16  C   UNL     1       1.177   2.302  18.721  0.00  0.00    +0.000 A 
ATOM     17  C   UNL     1       2.151   2.824  17.865  0.00  0.00    +0.000 A 
ATOM     18  C   UNL     1       2.792   4.050  18.162  0.00  0.00    +0.000 A 
ENDROOT
BRANCH   1  19
ATOM     19  N   UNL     1       6.226   7.525  17.105  0.00  0.00    +0.000 N 
ATOM     20  H   UNL     1       5.751   8.394  16.845  0.00  0.00    +0.000 HD
BRANCH  19  21
ATOM     21  C   UNL     1       7.633   7.706  17.444  0.00  0.00    +0.000 C 
ATOM     22  C   UNL     1       7.984   6.772  18.628  0.00  0.00    +0.000 C 
BRANCH  21  23
ATOM     23  C   UNL     1       8.032   9.162  17.775  0.00  0.00    +0.000 C 
BRANCH  23  24
ATOM     24  C   UNL     1       8.993   9.280  19.002  0.00  0.00    +0.000 C 
BRANCH  24  25
ATOM     25  C   UNL     1       9.405  10.740  19.359  0.00  0.00    +0.000 C 
BRANCH  25  26
ATOM     26  N   UNL     1      10.025  11.504  18.240  0.00  0.00    +0.000 NA
BRANCH  26  28
ATOM     27  C   UNL     1       8.037  12.861  17.409  0.00  0.00    +0.000 C 
ATOM     28  C   UNL     1       9.380  12.845  18.153  0.00  0.00    +0.000 C 
ENDBRANCH  26  28
BRANCH  26  29
ATOM     29  C   UNL     1      11.509  11.532  18.261  0.00  0.00    +0.000 C 
ATOM     30  C   UNL     1      12.117  11.872  19.627  0.00  0.00    +0.000 C 
ENDBRANCH  26  29
ENDBRANCH  25  26
ENDBRANCH  24  25
ENDBRANCH  23  24
ENDBRANCH  21  23
ENDBRANCH  19  21
ENDBRANCH   1  19
TORSDOF 8
ENDMDL
MODEL 2
REMARK VINA RESULT:      -8.2      3.722      7.084
REMARK  Name = 
REMARK  11 active torsions:
REMARK  status: ('A' for Active; 'I' for Inactive)
REMARK    1  A    between atoms: C_1  and  C_2
REMARK    2  A    between atoms: C_2  and  N_3
REMARK    3  A    between atoms: N_3  and  C_4
REMARK    4  A    between atoms: N_3  and  C_6
REMARK    5  A    between atoms: C_4  and  C_5
REMARK    6  A    between atoms: C_6  and  C_7
REMARK    7  A    between atoms: C_7  and  C_8
REMARK    8  A    between atoms: C_8  and  C_9
REMARK    9  A    between atoms: C_9  and  C_10
REMARK   10  A    between atoms: C_9  and  N_11
REMARK   11  A    between atoms: N_11  and  C_12
REMARK                            x       y       z     vdW  Elec       q    Type
REMARK                         _______ _______ _______ _____ _____    ______ ____
ROOT
ATOM      1  C   UNL     1       3.591   5.615  18.482  0.00  0.00    +0.000 A 
ATOM      2  C   UNL     1       3.396   4.585  19.501  0.00  0.00    +0.000 A 
ATOM      3  C   UNL     1       4.091   3.335  19.603  0.00  0.00    +0.000 A 
ATOM      4  C   UNL     1       3.777   2.373  20.553  0.00  0.00    +0.000 A 
ATOM      5  C   UNL     1       2.764   2.597  21.464  0.00  0.00    +0.000 A 
ATOM      6  C   UNL     1       2.099   3.815  21.457  0.00  0.00    +0.000 A 
ATOM      7  C   UNL     1       2.419   4.802  20.513  0.00  0.00    +0.000 A 
ATOM      8  N   UNL     1       1.771   5.975  20.603  0.00  0.00    +0.000 NA
ATOM      9  C   UNL     1       1.969   7.007  19.763  0.00  0.00    +0.000 A 
ATOM     10  C   UNL     1       2.856   6.860  18.657  0.00  0.00    +0.000 A 
ATOM     11  C   UNL     1       2.981   7.980  17.788  0.00  0.00    +0.000 A 
ATOM     12  C   UNL     1       2.291   9.177  18.026  0.00  0.00    +0.000 A 
ATOM     13  C   UNL     1       1.460   9.316  19.137  0.00  0.00    +0.000 A 
ATOM     14  C   UNL     1       0.806  10.537  19.394  0.00  0.00    +0.000 A 
ATOM     15  C   UNL     1      -0.006  10.679  20.522  0.00  0.00    +0.000 A 
ATOM     16  C   UNL     1      -0.184   9.604  21.393  0.00  0.00    +0.000 A 
ATOM     17  C   UNL     1       0.450   8.383  21.142  0.00  0.00    +0.000 A 
ATOM     18  C   UNL     1       1.287   8.223  20.013  0.00  0.00    +0.000 A 
ENDROOT
BRANCH   1  19
ATOM     19  N   UNL     1       4.437   5.450  17.297  0.00  0.00    +0.000 N 
ATOM     20  H   UNL     1       3.995   5.304  16.386  0.00  0.00    +0.000 HD
BRANCH  19  21
ATOM     21  C   UNL     1       5.862   5.138  17.314  0.00  0.00    +0.000 C 
ATOM     22  C   UNL     1       6.596   6.204  18.163  0.00  0.00    +0.000 C 
BRANCH  21  23
ATOM     23  C   UNL     1       6.511   5.028  15.916  0.00  0.00    +0.000 C 
BRANCH  23  24
ATOM     24  C   UNL     1       6.020   3.792  15.096  0.00  0.00    +0.000 C 
BRANCH  24  25
ATOM     25  C   UNL     1       5.563   4.122  13.644  0.00  0.00    +0.000 C 
BRANCH  25  26
ATOM     26  N   UNL     1       6.358   3.457  12.574  0.00  0.00    +0.000 NA
BRANCH  26  28
ATOM     27  C   UNL     1       4.157   3.207  11.318  0.00  0.00    +0.000 C 
ATOM     28  C   UNL     1       5.463   2.556  11.794  0.00  0.00    +0.000 C 
ENDBRANCH  26  28
BRANCH  26  29
ATOM     29  C   UNL     1       7.176   4.382  11.749  0.00  0.00    +0.000 C 
ATOM     30  C   UNL     1       7.964   5.420  12.554  0.00  0.00    +0.000 C 
ENDBRANCH  26  29
ENDBRANCH  25  26
ENDBRANCH  24  25
ENDBRANCH  23  24
ENDBRANCH  21  23
ENDBRANCH  19  21
ENDBRANCH   1  19
TORSDOF 8
ENDMDL
MODEL 3
REMARK VINA RESULT:      -7.9      3.959      7.386
REMARK  Name = 
REMARK  11 active torsions:
REMARK  status: ('A' for Active; 'I' for Inactive)
REMARK    1  A    between atoms: C_1  and  C_2
REMARK    2  A    between atoms: C_2  and  N_3
REMARK    3  A    between atoms: N_3  and  C_4
REMARK    4  A    between atoms: N_3  and  C_6
REMARK    5  A    between atoms: C_4  and  C_5
REMARK    6  A    between atoms: C_6  and  C_7
REMARK    7  A    between atoms: C_7  and  C_8
REMARK    8  A    between atoms: C_8  and  C_9
REMARK    9  A    between atoms: C_9  and  C_10
REMARK   10  A    between atoms: C_9  and  N_11
REMARK   11  A    between atoms: N_11  and  C_12
REMARK                            x       y       z     vdW  Elec       q    Type
REMARK                         _______ _______ _______ _____ _____    ______ ____
ROOT
ATOM      1  C   UNL     1       3.558   5.332  18.427  0.00  0.00    +0.000 A 
ATOM      2  C   UNL     1       3.357   4.370  19.509  0.00  0.00    +0.000 A 
ATOM      3  C   UNL     1       3.989   3.091  19.650  0.00  0.00    +0.000 A 
ATOM      4  C   UNL     1       3.669   2.199  20.664  0.00  0.00    +0.000 A 
ATOM      5  C   UNL     1       2.712   2.527  21.604  0.00  0.00    +0.000 A 
ATOM      6  C   UNL     1       2.113   3.777  21.559  0.00  0.00    +0.000 A 
ATOM      7  C   UNL     1       2.440   4.694  20.549  0.00  0.00    +0.000 A 
ATOM      8  N   UNL     1       1.860   5.904  20.601  0.00  0.00    +0.000 NA
ATOM      9  C   UNL     1       2.072   6.878  19.698  0.00  0.00    +0.000 A 
ATOM     10  C   UNL     1       2.898   6.623  18.564  0.00  0.00    +0.000 A 
ATOM     11  C   UNL     1       3.041   7.687  17.630  0.00  0.00    +0.000 A 
ATOM     12  C   UNL     1       2.427   8.931  17.831  0.00  0.00    +0.000 A 
ATOM     13  C   UNL     1       1.656   9.175  18.968  0.00  0.00    +0.000 A 
ATOM     14  C   UNL     1       1.080  10.442  19.185  0.00  0.00    +0.000 A 
ATOM     15  C   UNL     1       0.329  10.687  20.338  0.00  0.00    +0.000 A 
ATOM     16  C   UNL     1       0.136   9.671  21.273  0.00  0.00    +0.000 A 
ATOM     17  C   UNL     1       0.692   8.406  21.063  0.00  0.00    +0.000 A 
ATOM     18  C   UNL     1       1.467   8.141  19.909  0.00  0.00    +0.000 A 
ENDROOT
BRANCH   1  19
ATOM     19  N   UNL     1       4.338   5.059  17.218  0.00  0.00    +0.000 N 
ATOM     20  H   UNL     1       3.864   4.684  16.392  0.00  0.00    +0.000 HD
BRANCH  19  21
ATOM     21  C   UNL     1       5.791   4.949  17.158  0.00  0.00    +0.000 C 
ATOM     22  C   UNL     1       6.394   5.617  18.418  0.00  0.00    +0.000 C 
BRANCH  21  23
ATOM     23  C   UNL     1       6.429   5.544  15.881  0.00  0.00    +0.000 C 
BRANCH  23  24
ATOM     24  C   UNL     1       5.641   5.202  14.575  0.00  0.00    +0.000 C 
BRANCH  24  25
ATOM     25  C   UNL     1       6.000   3.821  13.950  0.00  0.00    +0.000 C 
BRANCH  25  26
ATOM     26  N   UNL     1       5.852   3.749  12.469  0.00  0.00    +0.000 NA
BRANCH  26  28
ATOM     27  C   UNL     1       7.261   2.059  11.187  0.00  0.00    +0.000 C 
ATOM     28  C   UNL     1       7.177   3.434  11.864  0.00  0.00    +0.000 C 
ENDBRANCH  26  28
BRANCH  26  29
ATOM     29  C   UNL     1       4.739   2.885  12.002  0.00  0.00    +0.000 C 
ATOM     30  C   UNL     1       3.836   3.531  10.945  0.00  0.00    +0.000 C 
ENDBRANCH  26  29
ENDBRANCH  25  26
ENDBRANCH  24  25
ENDBRANCH  23  24
ENDBRANCH  21  23
ENDBRANCH  19  21
ENDBRANCH   1  19
TORSDOF 8
ENDMDL
MODEL 4
REMARK VINA RESULT:      -7.9      3.895      7.413
REMARK  Name = 
REMARK  11 active torsions:
REMARK  status: ('A' for Active; 'I' for Inactive)
REMARK    1  A    between atoms: C_1  and  C_2
REMARK    2  A    between atoms: C_2  and  N_3
REMARK    3  A    between atoms: N_3  and  C_4
REMARK    4  A    between atoms: N_3  and  C_6
REMARK    5  A    between atoms: C_4  and  C_5
REMARK    6  A    between atoms: C_6  and  C_7
REMARK    7  A    between atoms: C_7  and  C_8
REMARK    8  A    between atoms: C_8  and  C_9
REMARK    9  A    between atoms: C_9  and  C_10
REMARK   10  A    between atoms: C_9  and  N_11
REMARK   11  A    between atoms: N_11  and  C_12
REMARK                            x       y       z     vdW  Elec       q    Type
REMARK                         _______ _______ _______ _____ _____    ______ ____
ROOT
ATOM      1  C   UNL     1       3.305   5.534  18.273  0.00  0.00    +0.000 A 
ATOM      2  C   UNL     1       3.216   4.529  19.332  0.00  0.00    +0.000 A 
ATOM      3  C   UNL     1       3.843   3.241  19.349  0.00  0.00    +0.000 A 
ATOM      4  C   UNL     1       3.630   2.311  20.357  0.00  0.00    +0.000 A 
ATOM      5  C   UNL     1       2.790   2.607  21.412  0.00  0.00    +0.000 A 
ATOM      6  C   UNL     1       2.206   3.862  21.485  0.00  0.00    +0.000 A 
ATOM      7  C   UNL     1       2.427   4.817  20.482  0.00  0.00    +0.000 A 
ATOM      8  N   UNL     1       1.871   6.029  20.649  0.00  0.00    +0.000 NA
ATOM      9  C   UNL     1       1.992   7.037  19.766  0.00  0.00    +0.000 A 
ATOM     10  C   UNL     1       2.681   6.823  18.537  0.00  0.00    +0.000 A 
ATOM     11  C   UNL     1       2.730   7.923  17.635  0.00  0.00    +0.000 A 
ATOM     12  C   UNL     1       2.158   9.163  17.955  0.00  0.00    +0.000 A 
ATOM     13  C   UNL     1       1.525   9.365  19.181  0.00  0.00    +0.000 A 
ATOM     14  C   UNL     1       0.993  10.627  19.513  0.00  0.00    +0.000 A 
ATOM     15  C   UNL     1       0.381  10.830  20.752  0.00  0.00    +0.000 A 
ATOM     16  C   UNL     1       0.282   9.778  21.663  0.00  0.00    +0.000 A 
ATOM     17  C   UNL     1       0.796   8.519  21.340  0.00  0.00    +0.000 A 
ATOM     18  C   UNL     1       1.430   8.295  20.096  0.00  0.00    +0.000 A 
ENDROOT
BRANCH   1  19
ATOM     19  N   UNL     1       3.939   5.304  16.973  0.00  0.00    +0.000 N 
ATOM     20  H   UNL     1       3.373   4.950  16.198  0.00  0.00    +0.000 HD
BRANCH  19  21
ATOM     21  C   UNL     1       5.376   5.209  16.740  0.00  0.00    +0.000 C 
ATOM     22  C   UNL     1       6.102   6.182  17.702  0.00  0.00    +0.000 C 
BRANCH  21  23
ATOM     23  C   UNL     1       5.809   5.478  15.281  0.00  0.00    +0.000 C 
BRANCH  23  24
ATOM     24  C   UNL     1       6.799   4.408  14.718  0.00  0.00    +0.000 C 
BRANCH  24  25
ATOM     25  C   UNL     1       6.860   4.342  13.163  0.00  0.00    +0.000 C 
BRANCH  25  26
ATOM     26  N   UNL     1       6.160   3.173  12.561  0.00  0.00    +0.000 NA
BRANCH  26  28
ATOM     27  C   UNL     1       4.068   3.171  11.109  0.00  0.00    +0.000 C 
ATOM     28  C   UNL     1       4.702   3.472  12.474  0.00  0.00    +0.000 C 
ENDBRANCH  26  28
BRANCH  26  29
ATOM     29  C   UNL     1       6.765   2.675  11.300  0.00  0.00    +0.000 C 
ATOM     30  C   UNL     1       6.730   1.151  11.139  0.00  0.00    +0.000 C 
ENDBRANCH  26  29
ENDBRANCH  25  26
ENDBRANCH  24  25
ENDBRANCH  23  24
ENDBRANCH  21  23
ENDBRANCH  19  21
ENDBRANCH   1  19
TORSDOF 8
ENDMDL
MODEL 5
REMARK VINA RESULT:      -7.9      0.756      1.450
REMARK  Name = 
REMARK  11 active torsions:
REMARK  status: ('A' for Active; 'I' for Inactive)
REMARK    1  A    between atoms: C_1  and  C_2
REMARK    2  A    between atoms: C_2  and  N_3
REMARK    3  A    between atoms: N_3  and  C_4
REMARK    4  A    between atoms: N_3  and  C_6
REMARK    5  A    between atoms: C_4  and  C_5
REMARK    6  A    between atoms: C_6  and  C_7
REMARK    7  A    between atoms: C_7  and  C_8
REMARK    8  A    between atoms: C_8  and  C_9
REMARK    9  A    between atoms: C_9  and  C_10
REMARK   10  A    between atoms: C_9  and  N_11
REMARK   11  A    between atoms: N_11  and  C_12
REMARK                            x       y       z     vdW  Elec       q    Type
REMARK                         _______ _______ _______ _____ _____    ______ ____
ROOT
ATOM      1  C   UNL     1       5.821   6.012  17.175  0.00  0.00    +0.000 A 
ATOM      2  C   UNL     1       6.066   5.287  15.930  0.00  0.00    +0.000 A 
ATOM      3  C   UNL     1       7.178   5.456  15.042  0.00  0.00    +0.000 A 
ATOM      4  C   UNL     1       7.285   4.787  13.830  0.00  0.00    +0.000 A 
ATOM      5  C   UNL     1       6.301   3.905  13.432  0.00  0.00    +0.000 A 
ATOM      6  C   UNL     1       5.233   3.649  14.279  0.00  0.00    +0.000 A 
ATOM      7  C   UNL     1       5.122   4.305  15.514  0.00  0.00    +0.000 A 
ATOM      8  N   UNL     1       4.090   3.966  16.304  0.00  0.00    +0.000 NA
ATOM      9  C   UNL     1       3.854   4.518  17.508  0.00  0.00    +0.000 A 
ATOM     10  C   UNL     1       4.684   5.578  17.976  0.00  0.00    +0.000 A 
ATOM     11  C   UNL     1       4.346   6.140  19.239  0.00  0.00    +0.000 A 
ATOM     12  C   UNL     1       3.273   5.653  19.998  0.00  0.00    +0.000 A 
ATOM     13  C   UNL     1       2.498   4.588  19.542  0.00  0.00    +0.000 A 
ATOM     14  C   UNL     1       1.449   4.075  20.331  0.00  0.00    +0.000 A 
ATOM     15  C   UNL     1       0.692   2.992  19.880  0.00  0.00    +0.000 A 
ATOM     16  C   UNL     1       0.963   2.420  18.637  0.00  0.00    +0.000 A 
ATOM     17  C   UNL     1       1.993   2.927  17.839  0.00  0.00    +0.000 A 
ATOM     18  C   UNL     1       2.780   4.015  18.283  0.00  0.00    +0.000 A 
ENDROOT
BRANCH   1  19
ATOM     19  N   UNL     1       6.615   7.155  17.632  0.00  0.00    +0.000 N 
ATOM     20  H   UNL     1       6.318   8.102  17.380  0.00  0.00    +0.000 HD
BRANCH  19  21
ATOM     21  C   UNL     1       7.983   7.085  18.134  0.00  0.00    +0.000 C 
ATOM     22  C   UNL     1       8.046   6.029  19.264  0.00  0.00    +0.000 C 
BRANCH  21  23
ATOM     23  C   UNL     1       8.555   8.433  18.629  0.00  0.00    +0.000 C 
BRANCH  23  24
ATOM     24  C   UNL     1       8.029   9.665  17.824  0.00  0.00    +0.000 C 
BRANCH  24  25
ATOM     25  C   UNL     1       8.841  10.976  18.050  0.00  0.00    +0.000 C 
BRANCH  25  26
ATOM     26  N   UNL     1       9.882  10.888  19.113  0.00  0.00    +0.000 NA
BRANCH  26  28
ATOM     27  C   UNL     1      12.308  11.536  19.537  0.00  0.00    +0.000 C 
ATOM     28  C   UNL     1      11.007  11.802  18.766  0.00  0.00    +0.000 C 
ENDBRANCH  26  28
BRANCH  26  29
ATOM     29  C   UNL     1       9.365  11.043  20.496  0.00  0.00    +0.000 C 
ATOM     30  C   UNL     1       9.110  12.494  20.919  0.00  0.00    +0.000 C 
ENDBRANCH  26  29
ENDBRANCH  25  26
ENDBRANCH  24  25
ENDBRANCH  23  24
ENDBRANCH  21  23
ENDBRANCH  19  21
ENDBRANCH   1  19
TORSDOF 8
ENDMDL
MODEL 6
REMARK VINA RESULT:      -7.8      0.777      1.126
REMARK  Name = 
REMARK  11 active torsions:
REMARK  status: ('A' for Active; 'I' for Inactive)
REMARK    1  A    between atoms: C_1  and  C_2
REMARK    2  A    between atoms: C_2  and  N_3
REMARK    3  A    between atoms: N_3  and  C_4
REMARK    4  A    between atoms: N_3  and  C_6
REMARK    5  A    between atoms: C_4  and  C_5
REMARK    6  A    between atoms: C_6  and  C_7
REMARK    7  A    between atoms: C_7  and  C_8
REMARK    8  A    between atoms: C_8  and  C_9
REMARK    9  A    between atoms: C_9  and  C_10
REMARK   10  A    between atoms: C_9  and  N_11
REMARK   11  A    between atoms: N_11  and  C_12
REMARK                            x       y       z     vdW  Elec       q    Type
REMARK                         _______ _______ _______ _____ _____    ______ ____
ROOT
ATOM      1  C   UNL     1       5.625   6.345  16.591  0.00  0.00    +0.000 A 
ATOM      2  C   UNL     1       6.029   5.466  15.495  0.00  0.00    +0.000 A 
ATOM      3  C   UNL     1       7.119   5.670  14.587  0.00  0.00    +0.000 A 
ATOM      4  C   UNL     1       7.376   4.827  13.514  0.00  0.00    +0.000 A 
ATOM      5  C   UNL     1       6.573   3.729  13.284  0.00  0.00    +0.000 A 
ATOM      6  C   UNL     1       5.542   3.442  14.166  0.00  0.00    +0.000 A 
ATOM      7  C   UNL     1       5.284   4.275  15.264  0.00  0.00    +0.000 A 
ATOM      8  N   UNL     1       4.304   3.904  16.105  0.00  0.00    +0.000 NA
ATOM      9  C   UNL     1       3.941   4.609  17.192  0.00  0.00    +0.000 A 
ATOM     10  C   UNL     1       4.560   5.864  17.460  0.00  0.00    +0.000 A 
ATOM     11  C   UNL     1       4.093   6.572  18.604  0.00  0.00    +0.000 A 
ATOM     12  C   UNL     1       3.101   6.045  19.441  0.00  0.00    +0.000 A 
ATOM     13  C   UNL     1       2.536   4.795  19.186  0.00  0.00    +0.000 A 
ATOM     14  C   UNL     1       1.572   4.253  20.057  0.00  0.00    +0.000 A 
ATOM     15  C   UNL     1       1.028   2.990  19.809  0.00  0.00    +0.000 A 
ATOM     16  C   UNL     1       1.430   2.265  18.687  0.00  0.00    +0.000 A 
ATOM     17  C   UNL     1       2.378   2.797  17.809  0.00  0.00    +0.000 A 
ATOM     18  C   UNL     1       2.950   4.069  18.048  0.00  0.00    +0.000 A 
ENDROOT
BRANCH   1  19
ATOM     19  N   UNL     1       6.195   7.672  16.834  0.00  0.00    +0.000 N 
ATOM     20  H   UNL     1       5.772   8.487  16.380  0.00  0.00    +0.000 HD
BRANCH  19  21
ATOM     21  C   UNL     1       7.516   7.934  17.394  0.00  0.00    +0.000 C 
ATOM     22  C   UNL     1       7.832   6.850  18.453  0.00  0.00    +0.000 C 
BRANCH  21  23
ATOM     23  C   UNL     1       7.686   9.344  18.005  0.00  0.00    +0.000 C 
BRANCH  23  24
ATOM     24  C   UNL     1       9.133   9.626  18.525  0.00  0.00    +0.000 C 
BRANCH  24  25
ATOM     25  C   UNL     1       9.668  11.052  18.195  0.00  0.00    +0.000 C 
BRANCH  25  26
ATOM     26  N   UNL     1       9.817  11.950  19.375  0.00  0.00    +0.000 NA
BRANCH  26  28
ATOM     27  C   UNL     1       8.889  12.011  21.745  0.00  0.00    +0.000 C 
ATOM     28  C   UNL     1       9.507  11.180  20.612  0.00  0.00    +0.000 C 
ENDBRANCH  26  28
BRANCH  26  29
ATOM     29  C   UNL     1      11.095  12.704  19.418  0.00  0.00    +0.000 C 
ATOM     30  C   UNL     1      12.301  11.879  19.882  0.00  0.00    +0.000 C 
ENDBRANCH  26  29
ENDBRANCH  25  26
ENDBRANCH  24  25
ENDBRANCH  23  24
ENDBRANCH  21  23
ENDBRANCH  19  21
ENDBRANCH   1  19
TORSDOF 8
ENDMDL
MODEL 7
REMARK VINA RESULT:      -7.7      0.818      1.537
REMARK  Name = 
REMARK  11 active torsions:
REMARK  status: ('A' for Active; 'I' for Inactive)
REMARK    1  A    between atoms: C_1  and  C_2
REMARK    2  A    between atoms: C_2  and  N_3
REMARK    3  A    between atoms: N_3  and  C_4
REMARK    4  A    between atoms: N_3  and  C_6
REMARK    5  A    between atoms: C_4  and  C_5
REMARK    6  A    between atoms: C_6  and  C_7
REMARK    7  A    between atoms: C_7  and  C_8
REMARK    8  A    between atoms: C_8  and  C_9
REMARK    9  A    between atoms: C_9  and  C_10
REMARK   10  A    between atoms: C_9  and  N_11
REMARK   11  A    between atoms: N_11  and  C_12
REMARK                            x       y       z     vdW  Elec       q    Type
REMARK                         _______ _______ _______ _____ _____    ______ ____
ROOT
ATOM      1  C   UNL     1       5.833   6.023  17.069  0.00  0.00    +0.000 A 
ATOM      2  C   UNL     1       6.074   5.284  15.831  0.00  0.00    +0.000 A 
ATOM      3  C   UNL     1       7.178   5.449  14.932  0.00  0.00    +0.000 A 
ATOM      4  C   UNL     1       7.280   4.765  13.729  0.00  0.00    +0.000 A 
ATOM      5  C   UNL     1       6.299   3.871  13.350  0.00  0.00    +0.000 A 
ATOM      6  C   UNL     1       5.239   3.619  14.208  0.00  0.00    +0.000 A 
ATOM      7  C   UNL     1       5.134   4.290  15.436  0.00  0.00    +0.000 A 
ATOM      8  N   UNL     1       4.110   3.955  16.237  0.00  0.00    +0.000 NA
ATOM      9  C   UNL     1       3.879   4.520  17.436  0.00  0.00    +0.000 A 
ATOM     10  C   UNL     1       4.706   5.591  17.884  0.00  0.00    +0.000 A 
ATOM     11  C   UNL     1       4.374   6.167  19.143  0.00  0.00    +0.000 A 
ATOM     12  C   UNL     1       3.310   5.683  19.916  0.00  0.00    +0.000 A 
ATOM     13  C   UNL     1       2.538   4.606  19.480  0.00  0.00    +0.000 A 
ATOM     14  C   UNL     1       1.500   4.097  20.283  0.00  0.00    +0.000 A 
ATOM     15  C   UNL     1       0.746   3.003  19.852  0.00  0.00    +0.000 A 
ATOM     16  C   UNL     1       1.011   2.417  18.614  0.00  0.00    +0.000 A 
ATOM     17  C   UNL     1       2.032   2.921  17.802  0.00  0.00    +0.000 A 
ATOM     18  C   UNL     1       2.815   4.020  18.226  0.00  0.00    +0.000 A 
ENDROOT
BRANCH   1  19
ATOM     19  N   UNL     1       6.623   7.177  17.505  0.00  0.00    +0.000 N 
ATOM     20  H   UNL     1       6.354   8.113  17.190  0.00  0.00    +0.000 HD
BRANCH  19  21
ATOM     21  C   UNL     1       7.963   7.114  18.077  0.00  0.00    +0.000 C 
ATOM     22  C   UNL     1       8.031   5.917  19.057  0.00  0.00    +0.000 C 
BRANCH  21  23
ATOM     23  C   UNL     1       8.421   8.410  18.785  0.00  0.00    +0.000 C 
BRANCH  23  24
ATOM     24  C   UNL     1       8.352   9.676  17.870  0.00  0.00    +0.000 C 
BRANCH  24  25
ATOM     25  C   UNL     1       9.466  10.730  18.146  0.00  0.00    +0.000 C 
BRANCH  25  26
ATOM     26  N   UNL     1       9.120  11.747  19.179  0.00  0.00    +0.000 NA
BRANCH  26  28
ATOM     27  C   UNL     1       9.685  12.474  21.552  0.00  0.00    +0.000 C 
ATOM     28  C   UNL     1       9.888  11.456  20.422  0.00  0.00    +0.000 C 
ENDBRANCH  26  28
BRANCH  26  29
ATOM     29  C   UNL     1       9.209  13.153  18.712  0.00  0.00    +0.000 C 
ATOM     30  C   UNL     1       8.043  13.601  17.824  0.00  0.00    +0.000 C 
ENDBRANCH  26  29
ENDBRANCH  25  26
ENDBRANCH  24  25
ENDBRANCH  23  24
ENDBRANCH  21  23
ENDBRANCH  19  21
ENDBRANCH   1  19
TORSDOF 8
ENDMDL
MODEL 8
REMARK VINA RESULT:      -7.6      3.566      7.222
REMARK  Name = 
REMARK  11 active torsions:
REMARK  status: ('A' for Active; 'I' for Inactive)
REMARK    1  A    between atoms: C_1  and  C_2
REMARK    2  A    between atoms: C_2  and  N_3
REMARK    3  A    between atoms: N_3  and  C_4
REMARK    4  A    between atoms: N_3  and  C_6
REMARK    5  A    between atoms: C_4  and  C_5
REMARK    6  A    between atoms: C_6  and  C_7
REMARK    7  A    between atoms: C_7  and  C_8
REMARK    8  A    between atoms: C_8  and  C_9
REMARK    9  A    between atoms: C_9  and  C_10
REMARK   10  A    between atoms: C_9  and  N_11
REMARK   11  A    between atoms: N_11  and  C_12
REMARK                            x       y       z     vdW  Elec       q    Type
REMARK                         _______ _______ _______ _____ _____    ______ ____
ROOT
ATOM      1  C   UNL     1       3.118   6.442  18.364  0.00  0.00    +0.000 A 
ATOM      2  C   UNL     1       3.106   5.278  19.248  0.00  0.00    +0.000 A 
ATOM      3  C   UNL     1       3.856   4.067  19.084  0.00  0.00    +0.000 A 
ATOM      4  C   UNL     1       3.714   2.972  19.926  0.00  0.00    +0.000 A 
ATOM      5  C   UNL     1       2.829   3.017  20.984  0.00  0.00    +0.000 A 
ATOM      6  C   UNL     1       2.124   4.185  21.233  0.00  0.00    +0.000 A 
ATOM      7  C   UNL     1       2.271   5.304  20.401  0.00  0.00    +0.000 A 
ATOM      8  N   UNL     1       1.597   6.417  20.736  0.00  0.00    +0.000 NA
ATOM      9  C   UNL     1       1.636   7.560  20.028  0.00  0.00    +0.000 A 
ATOM     10  C   UNL     1       2.367   7.609  18.804  0.00  0.00    +0.000 A 
ATOM     11  C   UNL     1       2.326   8.839  18.089  0.00  0.00    +0.000 A 
ATOM     12  C   UNL     1       1.631   9.953  18.579  0.00  0.00    +0.000 A 
ATOM     13  C   UNL     1       0.957   9.898  19.799  0.00  0.00    +0.000 A 
ATOM     14  C   UNL     1       0.299  11.036  20.306  0.00  0.00    +0.000 A 
ATOM     15  C   UNL     1      -0.354  10.981  21.540  0.00  0.00    +0.000 A 
ATOM     16  C   UNL     1      -0.368   9.793  22.270  0.00  0.00    +0.000 A 
ATOM     17  C   UNL     1       0.271   8.654  21.772  0.00  0.00    +0.000 A 
ATOM     18  C   UNL     1       0.949   8.692  20.531  0.00  0.00    +0.000 A 
ENDROOT
BRANCH   1  19
ATOM     19  N   UNL     1       3.797   6.483  17.067  0.00  0.00    +0.000 N 
ATOM     20  H   UNL     1       3.240   6.601  16.216  0.00  0.00    +0.000 HD
BRANCH  19  21
ATOM     21  C   UNL     1       5.163   6.039  16.815  0.00  0.00    +0.000 C 
ATOM     22  C   UNL     1       6.138   7.169  17.226  0.00  0.00    +0.000 C 
BRANCH  21  23
ATOM     23  C   UNL     1       5.438   5.600  15.358  0.00  0.00    +0.000 C 
BRANCH  23  24
ATOM     24  C   UNL     1       5.435   4.050  15.164  0.00  0.00    +0.000 C 
BRANCH  24  25
ATOM     25  C   UNL     1       6.359   3.543  14.016  0.00  0.00    +0.000 C 
BRANCH  25  26
ATOM     26  N   UNL     1       6.004   4.050  12.661  0.00  0.00    +0.000 NA
BRANCH  26  28
ATOM     27  C   UNL     1       8.110   5.473  12.814  0.00  0.00    +0.000 C 
ATOM     28  C   UNL     1       7.243   4.521  11.979  0.00  0.00    +0.000 C 
ENDBRANCH  26  28
BRANCH  26  29
ATOM     29  C   UNL     1       5.170   3.123  11.856  0.00  0.00    +0.000 C 
ATOM     30  C   UNL     1       5.864   1.808  11.481  0.00  0.00    +0.000 C 
ENDBRANCH  26  29
ENDBRANCH  25  26
ENDBRANCH  24  25
ENDBRANCH  23  24
ENDBRANCH  21  23
ENDBRANCH  19  21
ENDBRANCH   1  19
TORSDOF 8
ENDMDL
MODEL 9
REMARK VINA RESULT:      -7.5      3.968      7.629
REMARK  Name = 
REMARK  11 active torsions:
REMARK  status: ('A' for Active; 'I' for Inactive)
REMARK    1  A    between atoms: C_1  and  C_2
REMARK    2  A    between atoms: C_2  and  N_3
REMARK    3  A    between atoms: N_3  and  C_4
REMARK    4  A    between atoms: N_3  and  C_6
REMARK    5  A    between atoms: C_4  and  C_5
REMARK    6  A    between atoms: C_6  and  C_7
REMARK    7  A    between atoms: C_7  and  C_8
REMARK    8  A    between atoms: C_8  and  C_9
REMARK    9  A    between atoms: C_9  and  C_10
REMARK   10  A    between atoms: C_9  and  N_11
REMARK   11  A    between atoms: N_11  and  C_12
REMARK                            x       y       z     vdW  Elec       q    Type
REMARK                         _______ _______ _______ _____ _____    ______ ____
ROOT
ATOM      1  C   UNL     1       2.987   5.743  19.079  0.00  0.00    +0.000 A 
ATOM      2  C   UNL     1       2.223   4.502  19.189  0.00  0.00    +0.000 A 
ATOM      3  C   UNL     1       1.104   4.255  20.050  0.00  0.00    +0.000 A 
ATOM      4  C   UNL     1       0.494   3.013  20.157  0.00  0.00    +0.000 A 
ATOM      5  C   UNL     1       0.949   1.946  19.409  0.00  0.00    +0.000 A 
ATOM      6  C   UNL     1       1.986   2.139  18.508  0.00  0.00    +0.000 A 
ATOM      7  C   UNL     1       2.600   3.394  18.378  0.00  0.00    +0.000 A 
ATOM      8  N   UNL     1       3.560   3.518  17.447  0.00  0.00    +0.000 NA
ATOM      9  C   UNL     1       4.240   4.657  17.218  0.00  0.00    +0.000 A 
ATOM     10  C   UNL     1       4.005   5.798  18.039  0.00  0.00    +0.000 A 
ATOM     11  C   UNL     1       4.793   6.952  17.764  0.00  0.00    +0.000 A 
ATOM     12  C   UNL     1       5.725   6.974  16.718  0.00  0.00    +0.000 A 
ATOM     13  C   UNL     1       5.910   5.861  15.898  0.00  0.00    +0.000 A 
ATOM     14  C   UNL     1       6.817   5.906  14.822  0.00  0.00    +0.000 A 
ATOM     15  C   UNL     1       6.980   4.796  13.989  0.00  0.00    +0.000 A 
ATOM     16  C   UNL     1       6.253   3.630  14.230  0.00  0.00    +0.000 A 
ATOM     17  C   UNL     1       5.359   3.569  15.303  0.00  0.00    +0.000 A 
ATOM     18  C   UNL     1       5.170   4.686  16.150  0.00  0.00    +0.000 A 
ENDROOT
BRANCH   1  19
ATOM     19  N   UNL     1       2.814   6.897  19.965  0.00  0.00    +0.000 N 
ATOM     20  H   UNL     1       3.422   6.992  20.783  0.00  0.00    +0.000 HD
BRANCH  19  21
ATOM     21  C   UNL     1       1.644   7.766  20.001  0.00  0.00    +0.000 C 
ATOM     22  C   UNL     1       1.758   8.803  18.857  0.00  0.00    +0.000 C 
BRANCH  21  23
ATOM     23  C   UNL     1       1.419   8.483  21.352  0.00  0.00    +0.000 C 
BRANCH  23  24
ATOM     24  C   UNL     1      -0.090   8.651  21.723  0.00  0.00    +0.000 C 
BRANCH  24  25
ATOM     25  C   UNL     1      -0.388   9.840  22.685  0.00  0.00    +0.000 C 
BRANCH  25  26
ATOM     26  N   UNL     1      -1.082  10.996  22.051  0.00  0.00    +0.000 NA
BRANCH  26  28
ATOM     27  C   UNL     1      -2.949  12.362  23.115  0.00  0.00    +0.000 C 
ATOM     28  C   UNL     1      -1.465  11.973  23.110  0.00  0.00    +0.000 C 
ENDBRANCH  26  28
BRANCH  26  29
ATOM     29  C   UNL     1      -0.362  11.589  20.895  0.00  0.00    +0.000 C 
ATOM     30  C   UNL     1      -1.107  11.476  19.560  0.00  0.00    +0.000 C 
ENDBRANCH  26  29
ENDBRANCH  25  26
ENDBRANCH  24  25
ENDBRANCH  23  24
ENDBRANCH  21  23
ENDBRANCH  19  21
ENDBRANCH   1  19
TORSDOF 8
ENDMDL
