MODEL 1
REMARK VINA RESULT:      -8.5      0.000      0.000
REMARK  Name = 
REMARK  10 active torsions:
REMARK  status: ('A' for Active; 'I' for Inactive)
REMARK    1  A    between atoms: C_1  and  O_2
REMARK    2  A    between atoms: O_2  and  C_3
REMARK    3  A    between atoms: C_9  and  C_10
REMARK    4  A    between atoms: C_10  and  C_11
REMARK    5  A    between atoms: C_11  and  C_12
REMARK    6  A    between atoms: C_11  and  N_13
REMARK    7  A    between atoms: N_13  and  C_14
REMARK    8  A    between atoms: C_14  and  C_15
REMARK    9  A    between atoms: C_18  and  C_19
REMARK   10  A    between atoms: C_22  and  O_23
REMARK                            x       y       z     vdW  Elec       q    Type
REMARK                         _______ _______ _______ _____ _____    ______ ____
ROOT
ATOM      1  N   UNL     1       4.119   5.784  18.303  0.00  0.00    +0.000 NA
ATOM      2  H   UNL     1       4.359   6.671  17.858  0.00  0.00    +0.000 HD
ENDROOT
BRANCH   1   3
ATOM      3  C   UNL     1       3.706   4.812  17.265  0.00  0.00    +0.000 C 
ATOM      4  C   UNL     1       2.484   4.006  17.738  0.00  0.00    +0.000 C 
BRANCH   3   5
ATOM      5  C   UNL     1       4.886   3.875  16.892  0.00  0.00    +0.000 C 
BRANCH   5  12
ATOM      6  C   UNL     1       5.776   3.406  12.249  0.00  0.00    +0.000 A 
ATOM      7  C   UNL     1       6.932   4.089  11.873  0.00  0.00    +0.000 A 
ATOM      8  C   UNL     1       7.630   4.884  12.788  0.00  0.00    +0.000 A 
ATOM      9  C   UNL     1       7.144   4.956  14.098  0.00  0.00    +0.000 A 
ATOM     10  N   UNL     1       7.628   5.650  15.177  0.00  0.00    +0.000 N 
ATOM     11  C   UNL     1       6.872   5.388  16.290  0.00  0.00    +0.000 A 
ATOM     12  C   UNL     1       5.870   4.502  15.936  0.00  0.00    +0.000 A 
ATOM     13  C   UNL     1       6.009   4.267  14.526  0.00  0.00    +0.000 A 
ATOM     14  C   UNL     1       5.308   3.499  13.569  0.00  0.00    +0.000 A 
ATOM     15  H   UNL     1       8.447   6.243  15.161  0.00  0.00    +0.000 HD
BRANCH   6  17
ATOM     16  C   UNL     1       3.793   3.151  10.959  0.00  0.00    +0.000 C 
ATOM     17  O   UNL     1       5.019   2.607  11.431  0.00  0.00    +0.000 OA
ENDBRANCH   6  17
ENDBRANCH   5  12
ENDBRANCH   3   5
ENDBRANCH   1   3
BRANCH   1  18
ATOM     18  C   UNL     1       3.042   6.043  19.268  0.00  0.00    +0.000 C 
BRANCH  18  19
ATOM     19  C   UNL     1       2.373   7.342  19.005  0.00  0.00    +0.000 A 
ATOM     20  C   UNL     1       2.337   8.183  17.913  0.00  0.00    +0.000 A 
ATOM     21  C   UNL     1       1.580   9.312  18.306  0.00  0.00    +0.000 A 
ATOM     22  C   UNL     1       1.187   9.091  19.612  0.00  0.00    +0.000 A 
ATOM     23  O   UNL     1       1.675   7.889  20.040  0.00  0.00    +0.000 OA
BRANCH  22  24
ATOM     24  C   UNL     1       0.374   9.835  20.565  0.00  0.00    +0.000 A 
ATOM     25  C   UNL     1      -0.082  11.129  20.265  0.00  0.00    +0.000 A 
ATOM     26  C   UNL     1      -0.780  11.881  21.212  0.00  0.00    +0.000 A 
ATOM     27  C   UNL     1      -1.038  11.332  22.463  0.00  0.00    +0.000 A 
ATOM     28  C   UNL     1      -0.628  10.041  22.772  0.00  0.00    +0.000 A 
ATOM     29  C   UNL     1       0.076   9.293  21.824  0.00  0.00    +0.000 A 
BRANCH  27  30
ATOM     30  O   UNL     1      -1.688  12.040  23.429  0.00  0.00    +0.000 OA
ATOM     31  H   UNL     1      -2.625  12.108  23.183  0.00  0.00    +0.000 HD
ENDBRANCH  27  30
ENDBRANCH  22  24
ENDBRANCH  18  19
ENDBRANCH   1  18
TORSDOF 8
ENDMDL
MODEL 2
REMARK VINA RESULT:      -8.1      6.450      8.433
REMARK  Name = 
REMARK  10 active torsions:
REMARK  status: ('A' for Active; 'I' for Inactive)
REMARK    1  A    between atoms: C_1  and  O_2
REMARK    2  A    between atoms: O_2  and  C_3
REMARK    3  A    between atoms: C_9  and  C_10
REMARK    4  A    between atoms: C_10  and  C_11
REMARK    5  A    between atoms: C_11  and  C_12
REMARK    6  A    between atoms: C_11  and  N_13
REMARK    7  A    between atoms: N_13  and  C_14
REMARK    8  A    between atoms: C_14  and  C_15
REMARK    9  A    between atoms: C_18  and  C_19
REMARK   10  A    between atoms: C_22  and  O_23
REMARK                            x       y       z     vdW  Elec       q    Type
REMARK                         _______ _______ _______ _____ _____    ______ ____
ROOT
ATOM      1  N   UNL     1       8.657   7.952  18.641  0.00  0.00    +0.000 NA
ATOM      2  H   UNL     1       9.501   7.632  18.164  0.00  0.00    +0.000 HD
ENDROOT
BRANCH   1   3
ATOM      3  C   UNL     1       7.580   6.953  18.455  0.00  0.00    +0.000 C 
ATOM      4  C   UNL     1       7.938   5.636  19.164  0.00  0.00    +0.000 C 
BRANCH   3   5
ATOM      5  C   UNL     1       7.306   6.720  16.944  0.00  0.00    +0.000 C 
BRANCH   5  12
ATOM      6  C   UNL     1       3.004   5.415  18.483  0.00  0.00    +0.000 A 
ATOM      7  C   UNL     1       2.675   4.127  18.063  0.00  0.00    +0.000 A 
ATOM      8  C   UNL     1       3.514   3.411  17.204  0.00  0.00    +0.000 A 
ATOM      9  C   UNL     1       4.706   4.019  16.794  0.00  0.00    +0.000 A 
ATOM     10  N   UNL     1       5.694   3.547  15.969  0.00  0.00    +0.000 N 
ATOM     11  C   UNL     1       6.718   4.455  15.886  0.00  0.00    +0.000 A 
ATOM     12  C   UNL     1       6.398   5.546  16.674  0.00  0.00    +0.000 A 
ATOM     13  C   UNL     1       5.091   5.294  17.212  0.00  0.00    +0.000 A 
ATOM     14  C   UNL     1       4.204   6.003  18.054  0.00  0.00    +0.000 A 
ATOM     15  H   UNL     1       5.684   2.644  15.515  0.00  0.00    +0.000 HD
BRANCH   6  17
ATOM     16  C   UNL     1       1.792   5.601  20.522  0.00  0.00    +0.000 C 
ATOM     17  O   UNL     1       2.251   6.200  19.317  0.00  0.00    +0.000 OA
ENDBRANCH   6  17
ENDBRANCH   5  12
ENDBRANCH   3   5
ENDBRANCH   1   3
BRANCH   1  18
ATOM     18  C   UNL     1       8.292   9.258  18.075  0.00  0.00    +0.000 C 
BRANCH  18  19
ATOM     19  C   UNL     1       8.965  10.372  18.792  0.00  0.00    +0.000 A 
ATOM     20  C   UNL     1       9.458  10.511  20.072  0.00  0.00    +0.000 A 
ATOM     21  C   UNL     1       9.920  11.844  20.177  0.00  0.00    +0.000 A 
ATOM     22  C   UNL     1       9.693  12.440  18.951  0.00  0.00    +0.000 A 
ATOM     23  O   UNL     1       9.106  11.541  18.107  0.00  0.00    +0.000 OA
BRANCH  22  24
ATOM     24  C   UNL     1       9.967  13.761  18.401  0.00  0.00    +0.000 A 
ATOM     25  C   UNL     1       9.123  14.847  18.685  0.00  0.00    +0.000 A 
ATOM     26  C   UNL     1       9.328  16.091  18.083  0.00  0.00    +0.000 A 
ATOM     27  C   UNL     1      10.391  16.255  17.203  0.00  0.00    +0.000 A 
ATOM     28  C   UNL     1      11.260  15.206  16.933  0.00  0.00    +0.000 A 
ATOM     29  C   UNL     1      11.049  13.961  17.532  0.00  0.00    +0.000 A 
BRANCH  27  30
ATOM     30  O   UNL     1      10.611  17.442  16.569  0.00  0.00    +0.000 OA
ATOM     31  H   UNL     1       9.810  17.986  16.647  0.00  0.00    +0.000 HD
ENDBRANCH  27  30
ENDBRANCH  22  24
ENDBRANCH  18  19
ENDBRANCH   1  18
TORSDOF 8
ENDMDL
MODEL 3
REMARK VINA RESULT:      -7.9      1.525      2.479
REMARK  Name = 
REMARK  10 active torsions:
REMARK  status: ('A' for Active; 'I' for Inactive)
REMARK    1  A    between atoms: C_1  and  O_2
REMARK    2  A    between atoms: O_2  and  C_3
REMARK    3  A    between atoms: C_9  and  C_10
REMARK    4  A    between atoms: C_10  and  C_11
REMARK    5  A    between atoms: C_11  and  C_12
REMARK    6  A    between atoms: C_11  and  N_13
REMARK    7  A    between atoms: N_13  and  C_14
REMARK    8  A    between atoms: C_14  and  C_15
REMARK    9  A    between atoms: C_18  and  C_19
REMARK   10  A    between atoms: C_22  and  O_23
REMARK                            x       y       z     vdW  Elec       q    Type
REMARK                         _______ _______ _______ _____ _____    ______ ____
ROOT
ATOM      1  N   UNL     1       1.738   3.680  19.792  0.00  0.00    +0.000 NA
ATOM      2  H   UNL     1       1.611   2.804  20.300  0.00  0.00    +0.000 HD
ENDROOT
BRANCH   1   3
ATOM      3  C   UNL     1       2.648   3.454  18.645  0.00  0.00    +0.000 C 
ATOM      4  C   UNL     1       2.143   2.288  17.780  0.00  0.00    +0.000 C 
BRANCH   3   5
ATOM      5  C   UNL     1       4.097   3.200  19.140  0.00  0.00    +0.000 C 
BRANCH   5  12
ATOM      6  C   UNL     1       5.957   4.136  14.869  0.00  0.00    +0.000 A 
ATOM      7  C   UNL     1       6.992   5.066  14.950  0.00  0.00    +0.000 A 
ATOM      8  C   UNL     1       7.313   5.687  16.161  0.00  0.00    +0.000 A 
ATOM      9  C   UNL     1       6.576   5.329  17.296  0.00  0.00    +0.000 A 
ATOM     10  N   UNL     1       6.681   5.775  18.588  0.00  0.00    +0.000 N 
ATOM     11  C   UNL     1       5.795   5.110  19.395  0.00  0.00    +0.000 A 
ATOM     12  C   UNL     1       5.093   4.206  18.618  0.00  0.00    +0.000 A 
ATOM     13  C   UNL     1       5.552   4.382  17.269  0.00  0.00    +0.000 A 
ATOM     14  C   UNL     1       5.232   3.798  16.022  0.00  0.00    +0.000 A 
ATOM     15  H   UNL     1       7.343   6.471  18.906  0.00  0.00    +0.000 HD
BRANCH   6  17
ATOM     16  C   UNL     1       6.403   3.602  12.594  0.00  0.00    +0.000 C 
ATOM     17  O   UNL     1       5.562   3.477  13.734  0.00  0.00    +0.000 OA
ENDBRANCH   6  17
ENDBRANCH   5  12
ENDBRANCH   3   5
ENDBRANCH   1   3
BRANCH   1  18
ATOM     18  C   UNL     1       2.283   4.668  20.734  0.00  0.00    +0.000 C 
BRANCH  18  19
ATOM     19  C   UNL     1       2.088   6.056  20.244  0.00  0.00    +0.000 A 
ATOM     20  C   UNL     1       2.469   6.716  19.095  0.00  0.00    +0.000 A 
ATOM     21  C   UNL     1       2.044   8.057  19.247  0.00  0.00    +0.000 A 
ATOM     22  C   UNL     1       1.417   8.137  20.476  0.00  0.00    +0.000 A 
ATOM     23  O   UNL     1       1.447   6.916  21.085  0.00  0.00    +0.000 OA
BRANCH  22  24
ATOM     24  C   UNL     1       0.739   9.205  21.200  0.00  0.00    +0.000 A 
ATOM     25  C   UNL     1       0.201   8.979  22.477  0.00  0.00    +0.000 A 
ATOM     26  C   UNL     1      -0.531   9.971  23.132  0.00  0.00    +0.000 A 
ATOM     27  C   UNL     1      -0.714  11.203  22.515  0.00  0.00    +0.000 A 
ATOM     28  C   UNL     1      -0.162  11.463  21.268  0.00  0.00    +0.000 A 
ATOM     29  C   UNL     1       0.565  10.466  20.611  0.00  0.00    +0.000 A 
BRANCH  27  30
ATOM     30  O   UNL     1      -1.447  12.190  23.104  0.00  0.00    +0.000 OA
ATOM     31  H   UNL     1      -2.000  11.792  23.796  0.00  0.00    +0.000 HD
ENDBRANCH  27  30
ENDBRANCH  22  24
ENDBRANCH  18  19
ENDBRANCH   1  18
TORSDOF 8
ENDMDL
MODEL 4
REMARK VINA RESULT:      -7.9      4.613      8.166
REMARK  Name = 
REMARK  10 active torsions:
REMARK  status: ('A' for Active; 'I' for Inactive)
REMARK    1  A    between atoms: C_1  and  O_2
REMARK    2  A    between atoms: O_2  and  C_3
REMARK    3  A    between atoms: C_9  and  C_10
REMARK    4  A    between atoms: C_10  and  C_11
REMARK    5  A    between atoms: C_11  and  C_12
REMARK    6  A    between atoms: C_11  and  N_13
REMARK    7  A    between atoms: N_13  and  C_14
REMARK    8  A    between atoms: C_14  and  C_15
REMARK    9  A    between atoms: C_18  and  C_19
REMARK   10  A    between atoms: C_22  and  O_23
REMARK                            x       y       z     vdW  Elec       q    Type
REMARK                         _______ _______ _______ _____ _____    ______ ____
ROOT
ATOM      1  N   UNL     1       6.465   4.788  18.430  0.00  0.00    +0.000 NA
ATOM      2  H   UNL     1       6.449   4.163  19.237  0.00  0.00    +0.000 HD
ENDROOT
BRANCH   1   3
ATOM      3  C   UNL     1       6.266   3.997  17.194  0.00  0.00    +0.000 C 
ATOM      4  C   UNL     1       7.279   4.418  16.116  0.00  0.00    +0.000 C 
BRANCH   3   5
ATOM      5  C   UNL     1       4.808   4.142  16.681  0.00  0.00    +0.000 C 
BRANCH   5  12
ATOM      6  C   UNL     1       2.068   6.273  19.926  0.00  0.00    +0.000 A 
ATOM      7  C   UNL     1       1.401   5.347  20.726  0.00  0.00    +0.000 A 
ATOM      8  C   UNL     1       1.492   3.974  20.472  0.00  0.00    +0.000 A 
ATOM      9  C   UNL     1       2.291   3.558  19.402  0.00  0.00    +0.000 A 
ATOM     10  N   UNL     1       2.552   2.293  18.940  0.00  0.00    +0.000 N 
ATOM     11  C   UNL     1       3.442   2.341  17.899  0.00  0.00    +0.000 A 
ATOM     12  C   UNL     1       3.775   3.663  17.670  0.00  0.00    +0.000 A 
ATOM     13  C   UNL     1       3.001   4.446  18.592  0.00  0.00    +0.000 A 
ATOM     14  C   UNL     1       2.860   5.828  18.856  0.00  0.00    +0.000 A 
ATOM     15  H   UNL     1       2.169   1.445  19.336  0.00  0.00    +0.000 HD
BRANCH   6  17
ATOM     16  C   UNL     1       1.196   8.142  21.111  0.00  0.00    +0.000 C 
ATOM     17  O   UNL     1       2.040   7.634  20.086  0.00  0.00    +0.000 OA
ENDBRANCH   6  17
ENDBRANCH   5  12
ENDBRANCH   3   5
ENDBRANCH   1   3
BRANCH   1  18
ATOM     18  C   UNL     1       7.759   5.485  18.429  0.00  0.00    +0.000 C 
BRANCH  18  19
ATOM     19  C   UNL     1       7.602   6.930  18.127  0.00  0.00    +0.000 A 
ATOM     20  C   UNL     1       6.702   7.645  17.367  0.00  0.00    +0.000 A 
ATOM     21  C   UNL     1       7.124   8.994  17.414  0.00  0.00    +0.000 A 
ATOM     22  C   UNL     1       8.254   9.028  18.210  0.00  0.00    +0.000 A 
ATOM     23  O   UNL     1       8.547   7.767  18.642  0.00  0.00    +0.000 OA
BRANCH  22  24
ATOM     24  C   UNL     1       9.132  10.093  18.678  0.00  0.00    +0.000 A 
ATOM     25  C   UNL     1       9.943  10.803  17.779  0.00  0.00    +0.000 A 
ATOM     26  C   UNL     1      10.855  11.757  18.235  0.00  0.00    +0.000 A 
ATOM     27  C   UNL     1      10.946  12.016  19.598  0.00  0.00    +0.000 A 
ATOM     28  C   UNL     1      10.128  11.353  20.504  0.00  0.00    +0.000 A 
ATOM     29  C   UNL     1       9.222  10.394  20.045  0.00  0.00    +0.000 A 
BRANCH  27  30
ATOM     30  O   UNL     1      11.842  12.916  20.092  0.00  0.00    +0.000 OA
ATOM     31  H   UNL     1      11.504  13.255  20.937  0.00  0.00    +0.000 HD
ENDBRANCH  27  30
ENDBRANCH  22  24
ENDBRANCH  18  19
ENDBRANCH   1  18
TORSDOF 8
ENDMDL
MODEL 5
REMARK VINA RESULT:      -7.9      3.288      4.795
REMARK  Name = 
REMARK  10 active torsions:
REMARK  status: ('A' for Active; 'I' for Inactive)
REMARK    1  A    between atoms: C_1  and  O_2
REMARK    2  A    between atoms: O_2  and  C_3
REMARK    3  A    between atoms: C_9  and  C_10
REMARK    4  A    between atoms: C_10  and  C_11
REMARK    5  A    between atoms: C_11  and  C_12
REMARK    6  A    between atoms: C_11  and  N_13
REMARK    7  A    between atoms: N_13  and  C_14
REMARK    8  A    between atoms: C_14  and  C_15
REMARK    9  A    between atoms: C_18  and  C_19
REMARK   10  A    between atoms: C_22  and  O_23
REMARK                            x       y       z     vdW  Elec       q    Type
REMARK                         _______ _______ _______ _____ _____    ______ ____
ROOT
ATOM      1  N   UNL     1       2.771   7.987  18.699  0.00  0.00    +0.000 NA
ATOM      2  H   UNL     1       3.637   7.670  18.259  0.00  0.00    +0.000 HD
ENDROOT
BRANCH   1   3
ATOM      3  C   UNL     1       2.175   6.869  19.467  0.00  0.00    +0.000 C 
ATOM      4  C   UNL     1       1.538   7.388  20.766  0.00  0.00    +0.000 C 
BRANCH   3   5
ATOM      5  C   UNL     1       3.239   5.778  19.759  0.00  0.00    +0.000 C 
BRANCH   5  12
ATOM      6  C   UNL     1       6.736   5.876  16.544  0.00  0.00    +0.000 A 
ATOM      7  C   UNL     1       6.504   4.982  15.501  0.00  0.00    +0.000 A 
ATOM      8  C   UNL     1       5.406   4.115  15.524  0.00  0.00    +0.000 A 
ATOM      9  C   UNL     1       4.537   4.188  16.618  0.00  0.00    +0.000 A 
ATOM     10  N   UNL     1       3.402   3.466  16.888  0.00  0.00    +0.000 N 
ATOM     11  C   UNL     1       2.822   3.908  18.049  0.00  0.00    +0.000 A 
ATOM     12  C   UNL     1       3.589   4.943  18.552  0.00  0.00    +0.000 A 
ATOM     13  C   UNL     1       4.713   5.088  17.670  0.00  0.00    +0.000 A 
ATOM     14  C   UNL     1       5.850   5.926  17.631  0.00  0.00    +0.000 A 
ATOM     15  H   UNL     1       3.029   2.736  16.296  0.00  0.00    +0.000 HD
BRANCH   6  17
ATOM     16  C   UNL     1       7.638   7.847  17.527  0.00  0.00    +0.000 C 
ATOM     17  O   UNL     1       7.781   6.761  16.620  0.00  0.00    +0.000 OA
ENDBRANCH   6  17
ENDBRANCH   5  12
ENDBRANCH   3   5
ENDBRANCH   1   3
BRANCH   1  18
ATOM     18  C   UNL     1       1.874   8.458  17.635  0.00  0.00    +0.000 C 
BRANCH  18  19
ATOM     19  C   UNL     1       1.039   9.598  18.089  0.00  0.00    +0.000 A 
ATOM     20  C   UNL     1       1.270  10.662  18.935  0.00  0.00    +0.000 A 
ATOM     21  C   UNL     1       0.050  11.373  19.022  0.00  0.00    +0.000 A 
ATOM     22  C   UNL     1      -0.854  10.709  18.215  0.00  0.00    +0.000 A 
ATOM     23  O   UNL     1      -0.251   9.624  17.648  0.00  0.00    +0.000 OA
BRANCH  22  24
ATOM     24  C   UNL     1      -2.244  10.943  17.845  0.00  0.00    +0.000 A 
ATOM     25  C   UNL     1      -2.699  10.665  16.546  0.00  0.00    +0.000 A 
ATOM     26  C   UNL     1      -4.005  10.978  16.161  0.00  0.00    +0.000 A 
ATOM     27  C   UNL     1      -4.867  11.557  17.085  0.00  0.00    +0.000 A 
ATOM     28  C   UNL     1      -4.451  11.809  18.386  0.00  0.00    +0.000 A 
ATOM     29  C   UNL     1      -3.143  11.501  18.766  0.00  0.00    +0.000 A 
BRANCH  27  30
ATOM     30  O   UNL     1      -6.140  11.907  16.745  0.00  0.00    +0.000 OA
ATOM     31  H   UNL     1      -6.148  12.172  15.811  0.00  0.00    +0.000 HD
ENDBRANCH  27  30
ENDBRANCH  22  24
ENDBRANCH  18  19
ENDBRANCH   1  18
TORSDOF 8
ENDMDL
MODEL 6
REMARK VINA RESULT:      -7.9      0.855      1.261
REMARK  Name = 
REMARK  10 active torsions:
REMARK  status: ('A' for Active; 'I' for Inactive)
REMARK    1  A    between atoms: C_1  and  O_2
REMARK    2  A    between atoms: O_2  and  C_3
REMARK    3  A    between atoms: C_9  and  C_10
REMARK    4  A    between atoms: C_10  and  C_11
REMARK    5  A    between atoms: C_11  and  C_12
REMARK    6  A    between atoms: C_11  and  N_13
REMARK    7  A    between atoms: N_13  and  C_14
REMARK    8  A    between atoms: C_14  and  C_15
REMARK    9  A    between atoms: C_18  and  C_19
REMARK   10  A    between atoms: C_22  and  O_23
REMARK                            x       y       z     vdW  Elec       q    Type
REMARK                         _______ _______ _______ _____ _____    ______ ____
ROOT
ATOM      1  N   UNL     1       2.499   4.792  17.946  0.00  0.00    +0.000 NA
ATOM      2  H   UNL     1       1.928   4.242  18.590  0.00  0.00    +0.000 HD
ENDROOT
BRANCH   1   3
ATOM      3  C   UNL     1       3.405   3.887  17.202  0.00  0.00    +0.000 C 
ATOM      4  C   UNL     1       2.902   2.436  17.281  0.00  0.00    +0.000 C 
BRANCH   3   5
ATOM      5  C   UNL     1       4.858   4.007  17.737  0.00  0.00    +0.000 C 
BRANCH   5  12
ATOM      6  C   UNL     1       5.911   3.579  13.124  0.00  0.00    +0.000 A 
ATOM      7  C   UNL     1       6.989   4.385  12.764  0.00  0.00    +0.000 A 
ATOM      8  C   UNL     1       7.568   5.269  13.681  0.00  0.00    +0.000 A 
ATOM      9  C   UNL     1       7.045   5.304  14.978  0.00  0.00    +0.000 A 
ATOM     10  N   UNL     1       7.418   6.064  16.056  0.00  0.00    +0.000 N 
ATOM     11  C   UNL     1       6.670   5.731  17.155  0.00  0.00    +0.000 A 
ATOM     12  C   UNL     1       5.786   4.731  16.794  0.00  0.00    +0.000 A 
ATOM     13  C   UNL     1       5.986   4.493  15.391  0.00  0.00    +0.000 A 
ATOM     14  C   UNL     1       5.403   3.636  14.432  0.00  0.00    +0.000 A 
ATOM     15  H   UNL     1       8.164   6.748  16.048  0.00  0.00    +0.000 HD
BRANCH   6  17
ATOM     16  C   UNL     1       4.333   3.223  11.379  0.00  0.00    +0.000 C 
ATOM     17  O   UNL     1       5.272   2.686  12.303  0.00  0.00    +0.000 OA
ENDBRANCH   6  17
ENDBRANCH   5  12
ENDBRANCH   3   5
ENDBRANCH   1   3
BRANCH   1  18
ATOM     18  C   UNL     1       3.245   5.778  18.740  0.00  0.00    +0.000 C 
BRANCH  18  19
ATOM     19  C   UNL     1       2.629   7.127  18.654  0.00  0.00    +0.000 A 
ATOM     20  C   UNL     1       2.564   8.074  17.655  0.00  0.00    +0.000 A 
ATOM     21  C   UNL     1       1.898   9.192  18.209  0.00  0.00    +0.000 A 
ATOM     22  C   UNL     1       1.583   8.859  19.513  0.00  0.00    +0.000 A 
ATOM     23  O   UNL     1       2.034   7.599  19.785  0.00  0.00    +0.000 OA
BRANCH  22  24
ATOM     24  C   UNL     1       0.877   9.540  20.590  0.00  0.00    +0.000 A 
ATOM     25  C   UNL     1       0.391   8.825  21.697  0.00  0.00    +0.000 A 
ATOM     26  C   UNL     1      -0.368   9.458  22.683  0.00  0.00    +0.000 A 
ATOM     27  C   UNL     1      -0.632  10.818  22.572  0.00  0.00    +0.000 A 
ATOM     28  C   UNL     1      -0.132  11.555  21.506  0.00  0.00    +0.000 A 
ATOM     29  C   UNL     1       0.622  10.918  20.517  0.00  0.00    +0.000 A 
BRANCH  27  30
ATOM     30  O   UNL     1      -1.394  11.472  23.494  0.00  0.00    +0.000 OA
ATOM     31  H   UNL     1      -1.198  12.422  23.437  0.00  0.00    +0.000 HD
ENDBRANCH  27  30
ENDBRANCH  22  24
ENDBRANCH  18  19
ENDBRANCH   1  18
TORSDOF 8
ENDMDL
MODEL 7
REMARK VINA RESULT:      -7.8      1.578      2.488
REMARK  Name = 
REMARK  10 active torsions:
REMARK  status: ('A' for Active; 'I' for Inactive)
REMARK    1  A    between atoms: C_1  and  O_2
REMARK    2  A    between atoms: O_2  and  C_3
REMARK    3  A    between atoms: C_9  and  C_10
REMARK    4  A    between atoms: C_10  and  C_11
REMARK    5  A    between atoms: C_11  and  C_12
REMARK    6  A    between atoms: C_11  and  N_13
REMARK    7  A    between atoms: N_13  and  C_14
REMARK    8  A    between atoms: C_14  and  C_15
REMARK    9  A    between atoms: C_18  and  C_19
REMARK   10  A    between atoms: C_22  and  O_23
REMARK                            x       y       z     vdW  Elec       q    Type
REMARK                         _______ _______ _______ _____ _____    ______ ____
ROOT
ATOM      1  N   UNL     1       1.943   5.575  17.853  0.00  0.00    +0.000 NA
ATOM      2  H   UNL     1       1.152   6.032  17.397  0.00  0.00    +0.000 HD
ENDROOT
BRANCH   1   3
ATOM      3  C   UNL     1       1.544   4.212  18.276  0.00  0.00    +0.000 C 
ATOM      4  C   UNL     1       1.313   4.166  19.795  0.00  0.00    +0.000 C 
BRANCH   3   5
ATOM      5  C   UNL     1       2.609   3.171  17.837  0.00  0.00    +0.000 C 
BRANCH   5  12
ATOM      6  C   UNL     1       6.203   4.599  15.079  0.00  0.00    +0.000 A 
ATOM      7  C   UNL     1       7.388   4.730  15.801  0.00  0.00    +0.000 A 
ATOM      8  C   UNL     1       7.412   4.551  17.188  0.00  0.00    +0.000 A 
ATOM      9  C   UNL     1       6.212   4.216  17.826  0.00  0.00    +0.000 A 
ATOM     10  N   UNL     1       5.958   3.986  19.154  0.00  0.00    +0.000 N 
ATOM     11  C   UNL     1       4.647   3.626  19.331  0.00  0.00    +0.000 A 
ATOM     12  C   UNL     1       4.026   3.617  18.096  0.00  0.00    +0.000 A 
ATOM     13  C   UNL     1       5.009   4.045  17.140  0.00  0.00    +0.000 A 
ATOM     14  C   UNL     1       5.013   4.266  15.744  0.00  0.00    +0.000 A 
ATOM     15  H   UNL     1       6.648   4.041  19.891  0.00  0.00    +0.000 HD
BRANCH   6  17
ATOM     16  C   UNL     1       5.959   3.573  12.946  0.00  0.00    +0.000 C 
ATOM     17  O   UNL     1       6.073   4.758  13.723  0.00  0.00    +0.000 OA
ENDBRANCH   6  17
ENDBRANCH   5  12
ENDBRANCH   3   5
ENDBRANCH   1   3
BRANCH   1  18
ATOM     18  C   UNL     1       2.340   6.406  18.998  0.00  0.00    +0.000 C 
BRANCH  18  19
ATOM     19  C   UNL     1       1.952   7.826  18.804  0.00  0.00    +0.000 A 
ATOM     20  C   UNL     1       2.114   8.717  17.764  0.00  0.00    +0.000 A 
ATOM     21  C   UNL     1       1.589   9.951  18.213  0.00  0.00    +0.000 A 
ATOM     22  C   UNL     1       1.125   9.741  19.497  0.00  0.00    +0.000 A 
ATOM     23  O   UNL     1       1.351   8.444  19.859  0.00  0.00    +0.000 OA
BRANCH  22  24
ATOM     24  C   UNL     1       0.452  10.579  20.482  0.00  0.00    +0.000 A 
ATOM     25  C   UNL     1       0.506  11.980  20.389  0.00  0.00    +0.000 A 
ATOM     26  C   UNL     1      -0.056  12.785  21.382  0.00  0.00    +0.000 A 
ATOM     27  C   UNL     1      -0.689  12.189  22.467  0.00  0.00    +0.000 A 
ATOM     28  C   UNL     1      -0.786  10.807  22.562  0.00  0.00    +0.000 A 
ATOM     29  C   UNL     1      -0.218  10.003  21.571  0.00  0.00    +0.000 A 
BRANCH  27  30
ATOM     30  O   UNL     1      -1.224  12.935  23.474  0.00  0.00    +0.000 OA
ATOM     31  H   UNL     1      -1.920  13.501  23.102  0.00  0.00    +0.000 HD
ENDBRANCH  27  30
ENDBRANCH  22  24
ENDBRANCH  18  19
ENDBRANCH   1  18
TORSDOF 8
ENDMDL
MODEL 8
REMARK VINA RESULT:      -7.8      4.372      7.861
REMARK  Name = 
REMARK  10 active torsions:
REMARK  status: ('A' for Active; 'I' for Inactive)
REMARK    1  A    between atoms: C_1  and  O_2
REMARK    2  A    between atoms: O_2  and  C_3
REMARK    3  A    between atoms: C_9  and  C_10
REMARK    4  A    between atoms: C_10  and  C_11
REMARK    5  A    between atoms: C_11  and  C_12
REMARK    6  A    between atoms: C_11  and  N_13
REMARK    7  A    between atoms: N_13  and  C_14
REMARK    8  A    between atoms: C_14  and  C_15
REMARK    9  A    between atoms: C_18  and  C_19
REMARK   10  A    between atoms: C_22  and  O_23
REMARK                            x       y       z     vdW  Elec       q    Type
REMARK                         _______ _______ _______ _____ _____    ______ ____
ROOT
ATOM      1  N   UNL     1       6.701   5.430  15.576  0.00  0.00    +0.000 NA
ATOM      2  H   UNL     1       6.980   5.694  14.630  0.00  0.00    +0.000 HD
ENDROOT
BRANCH   1   3
ATOM      3  C   UNL     1       5.665   4.374  15.505  0.00  0.00    +0.000 C 
ATOM      4  C   UNL     1       5.346   4.031  14.041  0.00  0.00    +0.000 C 
BRANCH   3   5
ATOM      5  C   UNL     1       4.387   4.810  16.271  0.00  0.00    +0.000 C 
BRANCH   5  12
ATOM      6  C   UNL     1       2.056   5.353  20.375  0.00  0.00    +0.000 A 
ATOM      7  C   UNL     1       2.157   4.220  21.180  0.00  0.00    +0.000 A 
ATOM      8  C   UNL     1       2.793   3.061  20.720  0.00  0.00    +0.000 A 
ATOM      9  C   UNL     1       3.342   3.083  19.434  0.00  0.00    +0.000 A 
ATOM     10  N   UNL     1       4.009   2.101  18.747  0.00  0.00    +0.000 N 
ATOM     11  C   UNL     1       4.429   2.573  17.530  0.00  0.00    +0.000 A 
ATOM     12  C   UNL     1       4.031   3.892  17.414  0.00  0.00    +0.000 A 
ATOM     13  C   UNL     1       3.291   4.204  18.604  0.00  0.00    +0.000 A 
ATOM     14  C   UNL     1       2.613   5.346  19.087  0.00  0.00    +0.000 A 
ATOM     15  H   UNL     1       4.195   1.173  19.104  0.00  0.00    +0.000 HD
BRANCH   6  17
ATOM     16  C   UNL     1       1.950   7.716  20.118  0.00  0.00    +0.000 C 
ATOM     17  O   UNL     1       1.452   6.532  20.728  0.00  0.00    +0.000 OA
ENDBRANCH   6  17
ENDBRANCH   5  12
ENDBRANCH   3   5
ENDBRANCH   1   3
BRANCH   1  18
ATOM     18  C   UNL     1       6.204   6.637  16.250  0.00  0.00    +0.000 C 
BRANCH  18  19
ATOM     19  C   UNL     1       7.140   7.099  17.307  0.00  0.00    +0.000 A 
ATOM     20  C   UNL     1       7.735   6.473  18.381  0.00  0.00    +0.000 A 
ATOM     21  C   UNL     1       8.470   7.470  19.064  0.00  0.00    +0.000 A 
ATOM     22  C   UNL     1       8.291   8.646  18.361  0.00  0.00    +0.000 A 
ATOM     23  O   UNL     1       7.475   8.419  17.290  0.00  0.00    +0.000 OA
BRANCH  22  24
ATOM     24  C   UNL     1       8.797  10.004  18.513  0.00  0.00    +0.000 A 
ATOM     25  C   UNL     1       9.641  10.341  19.584  0.00  0.00    +0.000 A 
ATOM     26  C   UNL     1      10.050  11.661  19.787  0.00  0.00    +0.000 A 
ATOM     27  C   UNL     1       9.625  12.649  18.906  0.00  0.00    +0.000 A 
ATOM     28  C   UNL     1       8.820  12.335  17.819  0.00  0.00    +0.000 A 
ATOM     29  C   UNL     1       8.407  11.014  17.621  0.00  0.00    +0.000 A 
BRANCH  27  30
ATOM     30  O   UNL     1       9.974  13.955  19.081  0.00  0.00    +0.000 OA
ATOM     31  H   UNL     1       9.556  14.278  19.896  0.00  0.00    +0.000 HD
ENDBRANCH  27  30
ENDBRANCH  22  24
ENDBRANCH  18  19
ENDBRANCH   1  18
TORSDOF 8
ENDMDL
MODEL 9
REMARK VINA RESULT:      -7.8      3.377      9.663
REMARK  Name = 
REMARK  10 active torsions:
REMARK  status: ('A' for Active; 'I' for Inactive)
REMARK    1  A    between atoms: C_1  and  O_2
REMARK    2  A    between atoms: O_2  and  C_3
REMARK    3  A    between atoms: C_9  and  C_10
REMARK    4  A    between atoms: C_10  and  C_11
REMARK    5  A    between atoms: C_11  and  C_12
REMARK    6  A    between atoms: C_11  and  N_13
REMARK    7  A    between atoms: N_13  and  C_14
REMARK    8  A    between atoms: C_14  and  C_15
REMARK    9  A    between atoms: C_18  and  C_19
REMARK   10  A    between atoms: C_22  and  O_23
REMARK                            x       y       z     vdW  Elec       q    Type
REMARK                         _______ _______ _______ _____ _____    ______ ____
ROOT
ATOM      1  N   UNL     1       1.841   8.309  21.281  0.00  0.00    +0.000 NA
ATOM      2  H   UNL     1       2.611   8.093  21.916  0.00  0.00    +0.000 HD
ENDROOT
BRANCH   1   3
ATOM      3  C   UNL     1       1.003   9.377  21.873  0.00  0.00    +0.000 C 
ATOM      4  C   UNL     1      -0.444   8.889  22.055  0.00  0.00    +0.000 C 
BRANCH   3   5
ATOM      5  C   UNL     1       1.057  10.660  21.000  0.00  0.00    +0.000 C 
BRANCH   5  12
ATOM      6  C   UNL     1      -3.108  11.896  19.077  0.00  0.00    +0.000 A 
ATOM      7  C   UNL     1      -3.280  11.333  17.813  0.00  0.00    +0.000 A 
ATOM      8  C   UNL     1      -2.259  10.595  17.206  0.00  0.00    +0.000 A 
ATOM      9  C   UNL     1      -1.066  10.421  17.916  0.00  0.00    +0.000 A 
ATOM     10  N   UNL     1       0.077   9.752  17.561  0.00  0.00    +0.000 N 
ATOM     11  C   UNL     1       0.985   9.784  18.588  0.00  0.00    +0.000 A 
ATOM     12  C   UNL     1       0.428  10.487  19.640  0.00  0.00    +0.000 A 
ATOM     13  C   UNL     1      -0.859  10.941  19.194  0.00  0.00    +0.000 A 
ATOM     14  C   UNL     1      -1.899  11.709  19.765  0.00  0.00    +0.000 A 
ATOM     15  H   UNL     1       0.216   9.273  16.681  0.00  0.00    +0.000 HD
BRANCH   6  17
ATOM     16  C   UNL     1      -5.402  12.259  19.594  0.00  0.00    +0.000 C 
ATOM     17  O   UNL     1      -4.041  12.638  19.754  0.00  0.00    +0.000 OA
ENDBRANCH   6  17
ENDBRANCH   5  12
ENDBRANCH   3   5
ENDBRANCH   1   3
BRANCH   1  18
ATOM     18  C   UNL     1       1.077   7.072  21.068  0.00  0.00    +0.000 C 
BRANCH  18  19
ATOM     19  C   UNL     1       1.933   5.987  20.525  0.00  0.00    +0.000 A 
ATOM     20  C   UNL     1       2.008   4.632  20.767  0.00  0.00    +0.000 A 
ATOM     21  C   UNL     1       3.084   4.148  19.986  0.00  0.00    +0.000 A 
ATOM     22  C   UNL     1       3.598   5.234  19.303  0.00  0.00    +0.000 A 
ATOM     23  O   UNL     1       2.897   6.357  19.636  0.00  0.00    +0.000 OA
BRANCH  22  24
ATOM     24  C   UNL     1       4.667   5.404  18.327  0.00  0.00    +0.000 A 
ATOM     25  C   UNL     1       4.493   6.234  17.208  0.00  0.00    +0.000 A 
ATOM     26  C   UNL     1       5.478   6.324  16.222  0.00  0.00    +0.000 A 
ATOM     27  C   UNL     1       6.651   5.592  16.362  0.00  0.00    +0.000 A 
ATOM     28  C   UNL     1       6.862   4.792  17.478  0.00  0.00    +0.000 A 
ATOM     29  C   UNL     1       5.872   4.699  18.460  0.00  0.00    +0.000 A 
BRANCH  27  30
ATOM     30  O   UNL     1       7.627   5.625  15.411  0.00  0.00    +0.000 OA
ATOM     31  H   UNL     1       7.204   5.665  14.537  0.00  0.00    +0.000 HD
ENDBRANCH  27  30
ENDBRANCH  22  24
ENDBRANCH  18  19
ENDBRANCH   1  18
TORSDOF 8
ENDMDL
