MODEL 1
REMARK VINA RESULT:      -7.2      0.000      0.000
REMARK  Name = 
REMARK  4 active torsions:
REMARK  status: ('A' for Active; 'I' for Inactive)
REMARK    1  A    between atoms: C_8  and  N_9
REMARK    2  A    between atoms: N_9  and  C_10
REMARK    3  A    between atoms: C_10  and  N_12
REMARK    4  A    between atoms: N_12  and  C_13
REMARK                            x       y       z     vdW  Elec       q    Type
REMARK                         _______ _______ _______ _____ _____    ______ ____
ROOT
ATOM      1  N   UNL     1       3.645   2.981  17.609  0.00  0.00    +0.000 N 
ATOM      2  H   UNL     1       3.528   2.127  17.071  0.00  0.00    +0.000 HD
ENDROOT
BRANCH   1  10
ATOM      3  F   UNL     1       1.147   4.358  17.614  0.00  0.00    +0.000 F 
ATOM      4  C   UNL     1       1.586   3.751  18.726  0.00  0.00    +0.000 A 
ATOM      5  C   UNL     1       0.835   3.913  19.888  0.00  0.00    +0.000 A 
ATOM      6  C   UNL     1       1.313   3.427  21.103  0.00  0.00    +0.000 A 
ATOM      7  C   UNL     1       2.559   2.804  21.156  0.00  0.00    +0.000 A 
ATOM      8  C   UNL     1       3.314   2.655  19.989  0.00  0.00    +0.000 A 
ATOM      9 CL   UNL     1       4.872   1.909  20.117  0.00  0.00    +0.000 Cl
ATOM     10  C   UNL     1       2.820   3.094  18.748  0.00  0.00    +0.000 A 
ENDBRANCH   1  10
BRANCH   1  11
ATOM     11  C   UNL     1       4.434   3.918  16.979  0.00  0.00    +0.000 C 
ATOM     12  S   UNL     1       5.393   3.676  15.634  0.00  0.00    +0.000 S 
BRANCH  11  13
ATOM     13  N   UNL     1       4.544   5.098  17.684  0.00  0.00    +0.000 N 
ATOM     14  H   UNL     1       3.713   5.412  18.174  0.00  0.00    +0.000 HD
BRANCH  13  15
ATOM     15  C   UNL     1       5.750   5.776  17.961  0.00  0.00    +0.000 A 
ATOM     16  C   UNL     1       6.604   5.271  18.940  0.00  0.00    +0.000 A 
ATOM     17  C   UNL     1       7.793   5.943  19.237  0.00  0.00    +0.000 A 
ATOM     18  C   UNL     1       8.152   7.088  18.524  0.00  0.00    +0.000 A 
ATOM     19  C   UNL     1       7.319   7.571  17.521  0.00  0.00    +0.000 A 
ATOM     20  C   UNL     1       6.121   6.921  17.245  0.00  0.00    +0.000 A 
ENDBRANCH  13  15
ENDBRANCH  11  13
ENDBRANCH   1  11
TORSDOF 4
ENDMDL
MODEL 2
REMARK VINA RESULT:      -7.2      1.721      2.354
REMARK  Name = 
REMARK  4 active torsions:
REMARK  status: ('A' for Active; 'I' for Inactive)
REMARK    1  A    between atoms: C_8  and  N_9
REMARK    2  A    between atoms: N_9  and  C_10
REMARK    3  A    between atoms: C_10  and  N_12
REMARK    4  A    between atoms: N_12  and  C_13
REMARK                            x       y       z     vdW  Elec       q    Type
REMARK                         _______ _______ _______ _____ _____    ______ ____
ROOT
ATOM      1  N   UNL     1       3.827   3.065  17.670  0.00  0.00    +0.000 N 
ATOM      2  H   UNL     1       3.600   2.255  17.101  0.00  0.00    +0.000 HD
ENDROOT
BRANCH   1  10
ATOM      3  F   UNL     1       4.732   1.931  20.127  0.00  0.00    +0.000 F 
ATOM      4  C   UNL     1       3.586   2.626  20.085  0.00  0.00    +0.000 A 
ATOM      5  C   UNL     1       2.819   2.675  21.248  0.00  0.00    +0.000 A 
ATOM      6  C   UNL     1       1.555   3.259  21.227  0.00  0.00    +0.000 A 
ATOM      7  C   UNL     1       1.048   3.768  20.032  0.00  0.00    +0.000 A 
ATOM      8  C   UNL     1       1.817   3.705  18.866  0.00  0.00    +0.000 A 
ATOM      9 CL   UNL     1       1.124   4.316  17.401  0.00  0.00    +0.000 Cl
ATOM     10  C   UNL     1       3.115   3.166  18.885  0.00  0.00    +0.000 A 
ENDBRANCH   1  10
BRANCH   1  11
ATOM     11  C   UNL     1       4.624   3.982  17.022  0.00  0.00    +0.000 C 
ATOM     12  S   UNL     1       5.612   3.694  15.708  0.00  0.00    +0.000 S 
BRANCH  11  13
ATOM     13  N   UNL     1       4.713   5.188  17.684  0.00  0.00    +0.000 N 
ATOM     14  H   UNL     1       3.872   5.513  18.149  0.00  0.00    +0.000 HD
BRANCH  13  15
ATOM     15  C   UNL     1       5.908   5.888  17.952  0.00  0.00    +0.000 A 
ATOM     16  C   UNL     1       6.191   7.049  17.232  0.00  0.00    +0.000 A 
ATOM     17  C   UNL     1       7.380   7.743  17.475  0.00  0.00    +0.000 A 
ATOM     18  C   UNL     1       8.259   7.307  18.468  0.00  0.00    +0.000 A 
ATOM     19  C   UNL     1       7.960   6.172  19.212  0.00  0.00    +0.000 A 
ATOM     20  C   UNL     1       6.792   5.463  18.951  0.00  0.00    +0.000 A 
ENDBRANCH  13  15
ENDBRANCH  11  13
ENDBRANCH   1  11
TORSDOF 4
ENDMDL
MODEL 3
REMARK VINA RESULT:      -7.1      0.067      1.140
REMARK  Name = 
REMARK  4 active torsions:
REMARK  status: ('A' for Active; 'I' for Inactive)
REMARK    1  A    between atoms: C_8  and  N_9
REMARK    2  A    between atoms: N_9  and  C_10
REMARK    3  A    between atoms: C_10  and  N_12
REMARK    4  A    between atoms: N_12  and  C_13
REMARK                            x       y       z     vdW  Elec       q    Type
REMARK                         _______ _______ _______ _____ _____    ______ ____
ROOT
ATOM      1  N   UNL     1       3.715   2.981  17.604  0.00  0.00    +0.000 N 
ATOM      2  H   UNL     1       3.687   2.091  17.115  0.00  0.00    +0.000 HD
ENDROOT
BRANCH   1  10
ATOM      3  F   UNL     1       1.195   4.318  17.541  0.00  0.00    +0.000 F 
ATOM      4  C   UNL     1       1.616   3.720  18.665  0.00  0.00    +0.000 A 
ATOM      5  C   UNL     1       0.832   3.873  19.808  0.00  0.00    +0.000 A 
ATOM      6  C   UNL     1       1.287   3.398  21.036  0.00  0.00    +0.000 A 
ATOM      7  C   UNL     1       2.541   2.795  21.122  0.00  0.00    +0.000 A 
ATOM      8  C   UNL     1       3.328   2.655  19.975  0.00  0.00    +0.000 A 
ATOM      9 CL   UNL     1       4.894   1.936  20.145  0.00  0.00    +0.000 Cl
ATOM     10  C   UNL     1       2.859   3.084  18.720  0.00  0.00    +0.000 A 
ENDBRANCH   1  10
BRANCH   1  11
ATOM     11  C   UNL     1       4.429   3.949  16.932  0.00  0.00    +0.000 C 
ATOM     12  S   UNL     1       5.296   3.752  15.519  0.00  0.00    +0.000 S 
BRANCH  11  13
ATOM     13  N   UNL     1       4.556   5.123  17.644  0.00  0.00    +0.000 N 
ATOM     14  H   UNL     1       3.721   5.460  18.114  0.00  0.00    +0.000 HD
BRANCH  13  15
ATOM     15  C   UNL     1       5.773   5.766  17.954  0.00  0.00    +0.000 A 
ATOM     16  C   UNL     1       6.123   6.925  17.262  0.00  0.00    +0.000 A 
ATOM     17  C   UNL     1       7.335   7.562  17.546  0.00  0.00    +0.000 A 
ATOM     18  C   UNL     1       8.169   7.072  18.552  0.00  0.00    +0.000 A 
ATOM     19  C   UNL     1       7.802   5.939  19.269  0.00  0.00    +0.000 A 
ATOM     20  C   UNL     1       6.612   5.286  18.967  0.00  0.00    +0.000 A 
ENDBRANCH  13  15
ENDBRANCH  11  13
ENDBRANCH   1  11
TORSDOF 4
ENDMDL
MODEL 4
REMARK VINA RESULT:      -7.0      2.093      2.276
REMARK  Name = 
REMARK  4 active torsions:
REMARK  status: ('A' for Active; 'I' for Inactive)
REMARK    1  A    between atoms: C_8  and  N_9
REMARK    2  A    between atoms: N_9  and  C_10
REMARK    3  A    between atoms: C_10  and  N_12
REMARK    4  A    between atoms: N_12  and  C_13
REMARK                            x       y       z     vdW  Elec       q    Type
REMARK                         _______ _______ _______ _____ _____    ______ ____
ROOT
ATOM      1  N   UNL     1       2.207   5.358  18.133  0.00  0.00    +0.000 N 
ATOM      2  H   UNL     1       1.377   5.286  17.551  0.00  0.00    +0.000 HD
ENDROOT
BRANCH   1  10
ATOM      3  F   UNL     1       1.383   6.000  20.789  0.00  0.00    +0.000 F 
ATOM      4  C   UNL     1       1.837   4.771  20.499  0.00  0.00    +0.000 A 
ATOM      5  C   UNL     1       1.989   3.875  21.556  0.00  0.00    +0.000 A 
ATOM      6  C   UNL     1       2.589   2.636  21.342  0.00  0.00    +0.000 A 
ATOM      7  C   UNL     1       3.063   2.309  20.072  0.00  0.00    +0.000 A 
ATOM      8  C   UNL     1       2.919   3.216  19.019  0.00  0.00    +0.000 A 
ATOM      9 CL   UNL     1       3.562   2.775  17.472  0.00  0.00    +0.000 Cl
ATOM     10  C   UNL     1       2.269   4.448  19.210  0.00  0.00    +0.000 A 
ENDBRANCH   1  10
BRANCH   1  11
ATOM     11  C   UNL     1       2.973   6.468  17.854  0.00  0.00    +0.000 C 
ATOM     12  S   UNL     1       2.526   8.065  18.045  0.00  0.00    +0.000 S 
BRANCH  11  13
ATOM     13  N   UNL     1       4.139   6.168  17.182  0.00  0.00    +0.000 N 
ATOM     14  H   UNL     1       4.058   6.014  16.182  0.00  0.00    +0.000 HD
BRANCH  13  15
ATOM     15  C   UNL     1       5.441   6.274  17.714  0.00  0.00    +0.000 A 
ATOM     16  C   UNL     1       5.816   5.434  18.763  0.00  0.00    +0.000 A 
ATOM     17  C   UNL     1       7.097   5.540  19.312  0.00  0.00    +0.000 A 
ATOM     18  C   UNL     1       8.018   6.446  18.782  0.00  0.00    +0.000 A 
ATOM     19  C   UNL     1       7.658   7.256  17.712  0.00  0.00    +0.000 A 
ATOM     20  C   UNL     1       6.374   7.174  17.184  0.00  0.00    +0.000 A 
ENDBRANCH  13  15
ENDBRANCH  11  13
ENDBRANCH   1  11
TORSDOF 4
ENDMDL
MODEL 5
REMARK VINA RESULT:      -7.0      2.168      2.588
REMARK  Name = 
REMARK  4 active torsions:
REMARK  status: ('A' for Active; 'I' for Inactive)
REMARK    1  A    between atoms: C_8  and  N_9
REMARK    2  A    between atoms: N_9  and  C_10
REMARK    3  A    between atoms: C_10  and  N_12
REMARK    4  A    between atoms: N_12  and  C_13
REMARK                            x       y       z     vdW  Elec       q    Type
REMARK                         _______ _______ _______ _____ _____    ______ ____
ROOT
ATOM      1  N   UNL     1       2.056   5.404  18.144  0.00  0.00    +0.000 N 
ATOM      2  H   UNL     1       1.231   5.417  17.551  0.00  0.00    +0.000 HD
ENDROOT
BRANCH   1  10
ATOM      3  F   UNL     1       1.764   6.184  20.873  0.00  0.00    +0.000 F 
ATOM      4  C   UNL     1       1.845   4.886  20.545  0.00  0.00    +0.000 A 
ATOM      5  C   UNL     1       1.889   3.960  21.586  0.00  0.00    +0.000 A 
ATOM      6  C   UNL     1       2.116   2.612  21.315  0.00  0.00    +0.000 A 
ATOM      7  C   UNL     1       2.327   2.199  20.000  0.00  0.00    +0.000 A 
ATOM      8  C   UNL     1       2.293   3.133  18.961  0.00  0.00    +0.000 A 
ATOM      9 CL   UNL     1       2.602   2.572  17.352  0.00  0.00    +0.000 Cl
ATOM     10  C   UNL     1       2.014   4.487  19.216  0.00  0.00    +0.000 A 
ENDBRANCH   1  10
BRANCH   1  11
ATOM     11  C   UNL     1       2.932   6.433  17.881  0.00  0.00    +0.000 C 
ATOM     12  S   UNL     1       2.637   8.067  18.058  0.00  0.00    +0.000 S 
BRANCH  11  13
ATOM     13  N   UNL     1       4.078   6.020  17.236  0.00  0.00    +0.000 N 
ATOM     14  H   UNL     1       3.980   5.757  16.261  0.00  0.00    +0.000 HD
BRANCH  13  15
ATOM     15  C   UNL     1       5.390   6.140  17.741  0.00  0.00    +0.000 A 
ATOM     16  C   UNL     1       6.253   7.076  17.173  0.00  0.00    +0.000 A 
ATOM     17  C   UNL     1       7.562   7.193  17.651  0.00  0.00    +0.000 A 
ATOM     18  C   UNL     1       7.991   6.413  18.727  0.00  0.00    +0.000 A 
ATOM     19  C   UNL     1       7.119   5.507  19.319  0.00  0.00    +0.000 A 
ATOM     20  C   UNL     1       5.827   5.367  18.824  0.00  0.00    +0.000 A 
ENDBRANCH  13  15
ENDBRANCH  11  13
ENDBRANCH   1  11
TORSDOF 4
ENDMDL
MODEL 6
REMARK VINA RESULT:      -6.9      2.460      2.827
REMARK  Name = 
REMARK  4 active torsions:
REMARK  status: ('A' for Active; 'I' for Inactive)
REMARK    1  A    between atoms: C_8  and  N_9
REMARK    2  A    between atoms: N_9  and  C_10
REMARK    3  A    between atoms: C_10  and  N_12
REMARK    4  A    between atoms: N_12  and  C_13
REMARK                            x       y       z     vdW  Elec       q    Type
REMARK                         _______ _______ _______ _____ _____    ______ ____
ROOT
ATOM      1  N   UNL     1       2.202   5.668  18.057  0.00  0.00    +0.000 N 
ATOM      2  H   UNL     1       1.566   5.698  17.266  0.00  0.00    +0.000 HD
ENDROOT
BRANCH   1  10
ATOM      3  F   UNL     1       1.329   6.000  20.753  0.00  0.00    +0.000 F 
ATOM      4  C   UNL     1       1.552   4.773  20.261  0.00  0.00    +0.000 A 
ATOM      5  C   UNL     1       1.446   3.696  21.140  0.00  0.00    +0.000 A 
ATOM      6  C   UNL     1       1.804   2.416  20.724  0.00  0.00    +0.000 A 
ATOM      7  C   UNL     1       2.295   2.220  19.434  0.00  0.00    +0.000 A 
ATOM      8  C   UNL     1       2.411   3.306  18.561  0.00  0.00    +0.000 A 
ATOM      9 CL   UNL     1       3.066   3.014  16.984  0.00  0.00    +0.000 Cl
ATOM     10  C   UNL     1       2.005   4.594  18.950  0.00  0.00    +0.000 A 
ENDBRANCH   1  10
BRANCH   1  11
ATOM     11  C   UNL     1       2.972   6.804  18.181  0.00  0.00    +0.000 C 
ATOM     12  S   UNL     1       2.487   8.375  17.891  0.00  0.00    +0.000 S 
BRANCH  11  13
ATOM     13  N   UNL     1       4.308   6.535  18.384  0.00  0.00    +0.000 N 
ATOM     14  H   UNL     1       4.655   6.650  19.330  0.00  0.00    +0.000 HD
BRANCH  13  15
ATOM     15  C   UNL     1       5.169   5.914  17.454  0.00  0.00    +0.000 A 
ATOM     16  C   UNL     1       6.186   5.083  17.922  0.00  0.00    +0.000 A 
ATOM     17  C   UNL     1       7.057   4.475  17.013  0.00  0.00    +0.000 A 
ATOM     18  C   UNL     1       6.881   4.655  15.640  0.00  0.00    +0.000 A 
ATOM     19  C   UNL     1       5.843   5.451  15.172  0.00  0.00    +0.000 A 
ATOM     20  C   UNL     1       4.994   6.082  16.075  0.00  0.00    +0.000 A 
ENDBRANCH  13  15
ENDBRANCH  11  13
ENDBRANCH   1  11
TORSDOF 4
ENDMDL
MODEL 7
REMARK VINA RESULT:      -6.9      2.567      5.706
REMARK  Name = 
REMARK  4 active torsions:
REMARK  status: ('A' for Active; 'I' for Inactive)
REMARK    1  A    between atoms: C_8  and  N_9
REMARK    2  A    between atoms: N_9  and  C_10
REMARK    3  A    between atoms: C_10  and  N_12
REMARK    4  A    between atoms: N_12  and  C_13
REMARK                            x       y       z     vdW  Elec       q    Type
REMARK                         _______ _______ _______ _____ _____    ______ ____
ROOT
ATOM      1  N   UNL     1       4.686   5.817  18.404  0.00  0.00    +0.000 N 
ATOM      2  H   UNL     1       5.272   5.749  19.231  0.00  0.00    +0.000 HD
ENDROOT
BRANCH   1  10
ATOM      3  F   UNL     1       3.555   3.790  16.745  0.00  0.00    +0.000 F 
ATOM      4  C   UNL     1       4.699   4.393  16.391  0.00  0.00    +0.000 A 
ATOM      5  C   UNL     1       5.354   3.917  15.256  0.00  0.00    +0.000 A 
ATOM      6  C   UNL     1       6.615   4.405  14.920  0.00  0.00    +0.000 A 
ATOM      7  C   UNL     1       7.231   5.350  15.739  0.00  0.00    +0.000 A 
ATOM      8  C   UNL     1       6.575   5.815  16.883  0.00  0.00    +0.000 A 
ATOM      9 CL   UNL     1       7.402   6.958  17.887  0.00  0.00    +0.000 Cl
ATOM     10  C   UNL     1       5.281   5.369  17.205  0.00  0.00    +0.000 A 
ENDBRANCH   1  10
BRANCH   1  11
ATOM     11  C   UNL     1       3.524   6.526  18.616  0.00  0.00    +0.000 C 
ATOM     12  S   UNL     1       2.983   7.841  17.741  0.00  0.00    +0.000 S 
BRANCH  11  13
ATOM     13  N   UNL     1       2.886   6.185  19.789  0.00  0.00    +0.000 N 
ATOM     14  H   UNL     1       2.680   6.945  20.429  0.00  0.00    +0.000 HD
BRANCH  13  15
ATOM     15  C   UNL     1       2.308   4.930  20.071  0.00  0.00    +0.000 A 
ATOM     16  C   UNL     1       2.477   4.375  21.339  0.00  0.00    +0.000 A 
ATOM     17  C   UNL     1       1.924   3.123  21.627  0.00  0.00    +0.000 A 
ATOM     18  C   UNL     1       1.163   2.452  20.669  0.00  0.00    +0.000 A 
ATOM     19  C   UNL     1       0.962   3.022  19.418  0.00  0.00    +0.000 A 
ATOM     20  C   UNL     1       1.536   4.253  19.119  0.00  0.00    +0.000 A 
ENDBRANCH  13  15
ENDBRANCH  11  13
ENDBRANCH   1  11
TORSDOF 4
ENDMDL
MODEL 8
REMARK VINA RESULT:      -6.9      2.547      5.799
REMARK  Name = 
REMARK  4 active torsions:
REMARK  status: ('A' for Active; 'I' for Inactive)
REMARK    1  A    between atoms: C_8  and  N_9
REMARK    2  A    between atoms: N_9  and  C_10
REMARK    3  A    between atoms: C_10  and  N_12
REMARK    4  A    between atoms: N_12  and  C_13
REMARK                            x       y       z     vdW  Elec       q    Type
REMARK                         _______ _______ _______ _____ _____    ______ ____
ROOT
ATOM      1  N   UNL     1       4.778   5.809  18.456  0.00  0.00    +0.000 N 
ATOM      2  H   UNL     1       5.386   5.773  19.269  0.00  0.00    +0.000 HD
ENDROOT
BRANCH   1  10
ATOM      3  F   UNL     1       3.576   3.883  16.728  0.00  0.00    +0.000 F 
ATOM      4  C   UNL     1       4.746   4.449  16.399  0.00  0.00    +0.000 A 
ATOM      5  C   UNL     1       5.388   3.984  15.253  0.00  0.00    +0.000 A 
ATOM      6  C   UNL     1       6.669   4.431  14.938  0.00  0.00    +0.000 A 
ATOM      7  C   UNL     1       7.318   5.324  15.790  0.00  0.00    +0.000 A 
ATOM      8  C   UNL     1       6.674   5.778  16.945  0.00  0.00    +0.000 A 
ATOM      9 CL   UNL     1       7.540   6.855  17.989  0.00  0.00    +0.000 Cl
ATOM     10  C   UNL     1       5.361   5.375  17.246  0.00  0.00    +0.000 A 
ENDBRANCH   1  10
BRANCH   1  11
ATOM     11  C   UNL     1       3.592   6.469  18.690  0.00  0.00    +0.000 C 
ATOM     12  S   UNL     1       2.970   7.747  17.814  0.00  0.00    +0.000 S 
BRANCH  11  13
ATOM     13  N   UNL     1       3.002   6.118  19.886  0.00  0.00    +0.000 N 
ATOM     14  H   UNL     1       2.886   6.859  20.569  0.00  0.00    +0.000 HD
BRANCH  13  15
ATOM     15  C   UNL     1       2.356   4.892  20.150  0.00  0.00    +0.000 A 
ATOM     16  C   UNL     1       1.602   4.291  19.143  0.00  0.00    +0.000 A 
ATOM     17  C   UNL     1       0.943   3.084  19.397  0.00  0.00    +0.000 A 
ATOM     18  C   UNL     1       1.076   2.456  20.636  0.00  0.00    +0.000 A 
ATOM     19  C   UNL     1       1.859   3.035  21.628  0.00  0.00    +0.000 A 
ATOM     20  C   UNL     1       2.491   4.250  21.388  0.00  0.00    +0.000 A 
ENDBRANCH  13  15
ENDBRANCH  11  13
ENDBRANCH   1  11
TORSDOF 4
ENDMDL
MODEL 9
REMARK VINA RESULT:      -6.8      3.357      5.028
REMARK  Name = 
REMARK  4 active torsions:
REMARK  status: ('A' for Active; 'I' for Inactive)
REMARK    1  A    between atoms: C_8  and  N_9
REMARK    2  A    between atoms: N_9  and  C_10
REMARK    3  A    between atoms: C_10  and  N_12
REMARK    4  A    between atoms: N_12  and  C_13
REMARK                            x       y       z     vdW  Elec       q    Type
REMARK                         _______ _______ _______ _____ _____    ______ ____
ROOT
ATOM      1  N   UNL     1       4.323   4.304  19.153  0.00  0.00    +0.000 N 
ATOM      2  H   UNL     1       4.880   3.857  19.875  0.00  0.00    +0.000 HD
ENDROOT
BRANCH   1  10
ATOM      3  F   UNL     1       3.370   3.469  16.596  0.00  0.00    +0.000 F 
ATOM      4  C   UNL     1       4.507   4.174  16.697  0.00  0.00    +0.000 A 
ATOM      5  C   UNL     1       5.243   4.381  15.532  0.00  0.00    +0.000 A 
ATOM      6  C   UNL     1       6.499   4.979  15.595  0.00  0.00    +0.000 A 
ATOM      7  C   UNL     1       7.029   5.345  16.831  0.00  0.00    +0.000 A 
ATOM      8  C   UNL     1       6.291   5.124  17.999  0.00  0.00    +0.000 A 
ATOM      9 CL   UNL     1       7.013   5.560  19.511  0.00  0.00    +0.000 Cl
ATOM     10  C   UNL     1       5.001   4.568  17.944  0.00  0.00    +0.000 A 
ENDBRANCH   1  10
BRANCH   1  11
ATOM     11  C   UNL     1       3.094   4.736  19.602  0.00  0.00    +0.000 C 
ATOM     12  S   UNL     1       1.623   3.984  19.363  0.00  0.00    +0.000 S 
BRANCH  11  13
ATOM     13  N   UNL     1       3.125   6.009  20.129  0.00  0.00    +0.000 N 
ATOM     14  H   UNL     1       3.769   6.166  20.898  0.00  0.00    +0.000 HD
BRANCH  13  15
ATOM     15  C   UNL     1       2.515   7.147  19.559  0.00  0.00    +0.000 A 
ATOM     16  C   UNL     1       1.710   7.957  20.359  0.00  0.00    +0.000 A 
ATOM     17  C   UNL     1       1.085   9.077  19.803  0.00  0.00    +0.000 A 
ATOM     18  C   UNL     1       1.303   9.414  18.466  0.00  0.00    +0.000 A 
ATOM     19  C   UNL     1       2.136   8.629  17.678  0.00  0.00    +0.000 A 
ATOM     20  C   UNL     1       2.734   7.497  18.221  0.00  0.00    +0.000 A 
ENDBRANCH  13  15
ENDBRANCH  11  13
ENDBRANCH   1  11
TORSDOF 4
ENDMDL
