MODEL 1
REMARK VINA RESULT:      -6.4      0.000      0.000
REMARK  Name = 
REMARK  4 active torsions:
REMARK  status: ('A' for Active; 'I' for Inactive)
REMARK    1  A    between atoms: C_1  and  C_2
REMARK    2  A    between atoms: C_5  and  S_6
REMARK    3  A    between atoms: S_6  and  C_8
REMARK    4  A    between atoms: C_12  and  C_13
REMARK                            x       y       z     vdW  Elec       q    Type
REMARK                         _______ _______ _______ _____ _____    ______ ____
ROOT
ATOM      1  S   UNL     1       3.471   5.686  19.328  0.00  0.00    +0.000 S 
ATOM      2  O   UNL     1       2.717   7.055  19.178  0.00  0.00    +0.000 OA
ENDROOT
BRANCH   1   7
ATOM      3  C   UNL     1       6.859   4.920  14.300  0.00  0.00    +0.000 C 
ATOM      4  C   UNL     1       5.997   5.094  15.515  0.00  0.00    +0.000 A 
ATOM      5  C   UNL     1       5.291   6.283  15.728  0.00  0.00    +0.000 A 
ATOM      6  C   UNL     1       4.517   6.450  16.878  0.00  0.00    +0.000 A 
ATOM      7  C   UNL     1       4.448   5.433  17.836  0.00  0.00    +0.000 A 
ATOM      8  C   UNL     1       5.131   4.233  17.614  0.00  0.00    +0.000 A 
ATOM      9  C   UNL     1       5.905   4.068  16.463  0.00  0.00    +0.000 A 
ENDBRANCH   1   7
BRANCH   1  10
ATOM     10  C   UNL     1       2.249   4.424  19.239  0.00  0.00    +0.000 A 
ATOM     11  S   UNL     1       1.517   3.964  17.759  0.00  0.00    +0.000 S 
ATOM     12  C   UNL     1       0.581   2.755  18.508  0.00  0.00    +0.000 A 
ATOM     13  C   UNL     1       0.847   2.673  19.853  0.00  0.00    +0.000 A 
ATOM     14  C   UNL     1       1.821   3.639  20.300  0.00  0.00    +0.000 A 
BRANCH  14  15
ATOM     15  C   UNL     1       2.268   3.720  21.687  0.00  0.00    +0.000 C 
ATOM     16  O   UNL     1       2.553   2.718  22.345  0.00  0.00    +0.000 OA
ENDBRANCH  14  15
ENDBRANCH   1  10
TORSDOF 3
ENDMDL
MODEL 2
REMARK VINA RESULT:      -6.3      2.033      2.511
REMARK  Name = 
REMARK  4 active torsions:
REMARK  status: ('A' for Active; 'I' for Inactive)
REMARK    1  A    between atoms: C_1  and  C_2
REMARK    2  A    between atoms: C_5  and  S_6
REMARK    3  A    between atoms: S_6  and  C_8
REMARK    4  A    between atoms: C_12  and  C_13
REMARK                            x       y       z     vdW  Elec       q    Type
REMARK                         _______ _______ _______ _____ _____    ______ ____
ROOT
ATOM      1  S   UNL     1       4.085   3.213  18.961  0.00  0.00    +0.000 S 
ATOM      2  O   UNL     1       5.108   2.841  20.092  0.00  0.00    +0.000 OA
ENDROOT
BRANCH   1   7
ATOM      3  C   UNL     1       7.354   5.207  14.198  0.00  0.00    +0.000 C 
ATOM      4  C   UNL     1       6.540   4.753  15.374  0.00  0.00    +0.000 A 
ATOM      5  C   UNL     1       7.095   4.718  16.658  0.00  0.00    +0.000 A 
ATOM      6  C   UNL     1       6.341   4.262  17.741  0.00  0.00    +0.000 A 
ATOM      7  C   UNL     1       5.025   3.827  17.552  0.00  0.00    +0.000 A 
ATOM      8  C   UNL     1       4.458   3.887  16.276  0.00  0.00    +0.000 A 
ATOM      9  C   UNL     1       5.214   4.343  15.193  0.00  0.00    +0.000 A 
ENDBRANCH   1   7
BRANCH   1  10
ATOM     10  C   UNL     1       3.207   4.630  19.520  0.00  0.00    +0.000 A 
ATOM     11  S   UNL     1       3.410   6.173  18.801  0.00  0.00    +0.000 S 
ATOM     12  C   UNL     1       2.252   6.888  19.824  0.00  0.00    +0.000 A 
ATOM     13  C   UNL     1       1.691   5.965  20.673  0.00  0.00    +0.000 A 
ATOM     14  C   UNL     1       2.234   4.638  20.509  0.00  0.00    +0.000 A 
BRANCH  14  15
ATOM     15  C   UNL     1       1.771   3.498  21.294  0.00  0.00    +0.000 C 
ATOM     16  O   UNL     1       2.455   2.992  22.184  0.00  0.00    +0.000 OA
ENDBRANCH  14  15
ENDBRANCH   1  10
TORSDOF 3
ENDMDL
MODEL 3
REMARK VINA RESULT:      -6.2      2.355      3.019
REMARK  Name = 
REMARK  4 active torsions:
REMARK  status: ('A' for Active; 'I' for Inactive)
REMARK    1  A    between atoms: C_1  and  C_2
REMARK    2  A    between atoms: C_5  and  S_6
REMARK    3  A    between atoms: S_6  and  C_8
REMARK    4  A    between atoms: C_12  and  C_13
REMARK                            x       y       z     vdW  Elec       q    Type
REMARK                         _______ _______ _______ _____ _____    ______ ____
ROOT
ATOM      1  S   UNL     1       4.361   3.338  18.671  0.00  0.00    +0.000 S 
ATOM      2  O   UNL     1       5.086   2.438  19.733  0.00  0.00    +0.000 OA
ENDROOT
BRANCH   1   7
ATOM      3  C   UNL     1       7.921   8.160  17.480  0.00  0.00    +0.000 C 
ATOM      4  C   UNL     1       7.068   6.956  17.747  0.00  0.00    +0.000 A 
ATOM      5  C   UNL     1       5.926   6.702  16.979  0.00  0.00    +0.000 A 
ATOM      6  C   UNL     1       5.119   5.597  17.256  0.00  0.00    +0.000 A 
ATOM      7  C   UNL     1       5.438   4.737  18.312  0.00  0.00    +0.000 A 
ATOM      8  C   UNL     1       6.593   4.971  19.065  0.00  0.00    +0.000 A 
ATOM      9  C   UNL     1       7.399   6.078  18.787  0.00  0.00    +0.000 A 
ENDBRANCH   1   7
BRANCH   1  10
ATOM     10  C   UNL     1       2.986   4.073  19.485  0.00  0.00    +0.000 A 
ATOM     11  S   UNL     1       3.046   5.663  20.121  0.00  0.00    +0.000 S 
ATOM     12  C   UNL     1       1.425   5.600  20.638  0.00  0.00    +0.000 A 
ATOM     13  C   UNL     1       0.834   4.407  20.300  0.00  0.00    +0.000 A 
ATOM     14  C   UNL     1       1.730   3.501  19.622  0.00  0.00    +0.000 A 
BRANCH  14  15
ATOM     15  C   UNL     1       1.309   2.184  19.155  0.00  0.00    +0.000 C 
ATOM     16  O   UNL     1       0.316   2.025  18.444  0.00  0.00    +0.000 OA
ENDBRANCH  14  15
ENDBRANCH   1  10
TORSDOF 3
ENDMDL
MODEL 4
REMARK VINA RESULT:      -6.2      2.152      5.411
REMARK  Name = 
REMARK  4 active torsions:
REMARK  status: ('A' for Active; 'I' for Inactive)
REMARK    1  A    between atoms: C_1  and  C_2
REMARK    2  A    between atoms: C_5  and  S_6
REMARK    3  A    between atoms: S_6  and  C_8
REMARK    4  A    between atoms: C_12  and  C_13
REMARK                            x       y       z     vdW  Elec       q    Type
REMARK                         _______ _______ _______ _____ _____    ______ ____
ROOT
ATOM      1  S   UNL     1       3.610   6.228  17.300  0.00  0.00    +0.000 S 
ATOM      2  O   UNL     1       3.972   7.613  17.943  0.00  0.00    +0.000 OA
ENDROOT
BRANCH   1   7
ATOM      3  C   UNL     1       1.336   2.648  21.701  0.00  0.00    +0.000 C 
ATOM      4  C   UNL     1       1.859   3.530  20.605  0.00  0.00    +0.000 A 
ATOM      5  C   UNL     1       2.285   2.986  19.389  0.00  0.00    +0.000 A 
ATOM      6  C   UNL     1       2.802   3.810  18.388  0.00  0.00    +0.000 A 
ATOM      7  C   UNL     1       2.909   5.190  18.595  0.00  0.00    +0.000 A 
ATOM      8  C   UNL     1       2.459   5.741  19.799  0.00  0.00    +0.000 A 
ATOM      9  C   UNL     1       1.943   4.914  20.800  0.00  0.00    +0.000 A 
ENDBRANCH   1   7
BRANCH   1  10
ATOM     10  C   UNL     1       5.133   5.436  16.916  0.00  0.00    +0.000 A 
ATOM     11  S   UNL     1       5.589   5.067  15.306  0.00  0.00    +0.000 S 
ATOM     12  C   UNL     1       7.087   4.421  15.796  0.00  0.00    +0.000 A 
ATOM     13  C   UNL     1       7.256   4.519  17.156  0.00  0.00    +0.000 A 
ATOM     14  C   UNL     1       6.126   5.112  17.829  0.00  0.00    +0.000 A 
BRANCH  14  15
ATOM     15  C   UNL     1       6.097   5.329  19.272  0.00  0.00    +0.000 C 
ATOM     16  O   UNL     1       7.125   5.440  19.940  0.00  0.00    +0.000 OA
ENDBRANCH  14  15
ENDBRANCH   1  10
TORSDOF 3
ENDMDL
MODEL 5
REMARK VINA RESULT:      -6.2      2.297      6.016
REMARK  Name = 
REMARK  4 active torsions:
REMARK  status: ('A' for Active; 'I' for Inactive)
REMARK    1  A    between atoms: C_1  and  C_2
REMARK    2  A    between atoms: C_5  and  S_6
REMARK    3  A    between atoms: S_6  and  C_8
REMARK    4  A    between atoms: C_12  and  C_13
REMARK                            x       y       z     vdW  Elec       q    Type
REMARK                         _______ _______ _______ _____ _____    ______ ____
ROOT
ATOM      1  S   UNL     1       3.727   5.862  17.386  0.00  0.00    +0.000 S 
ATOM      2  O   UNL     1       3.707   7.368  17.826  0.00  0.00    +0.000 OA
ENDROOT
BRANCH   1   7
ATOM      3  C   UNL     1       1.319   2.515  21.897  0.00  0.00    +0.000 C 
ATOM      4  C   UNL     1       1.876   3.340  20.774  0.00  0.00    +0.000 A 
ATOM      5  C   UNL     1       2.282   2.741  19.577  0.00  0.00    +0.000 A 
ATOM      6  C   UNL     1       2.829   3.512  18.550  0.00  0.00    +0.000 A 
ATOM      7  C   UNL     1       2.987   4.893  18.712  0.00  0.00    +0.000 A 
ATOM      8  C   UNL     1       2.557   5.500  19.896  0.00  0.00    +0.000 A 
ATOM      9  C   UNL     1       2.010   4.726  20.923  0.00  0.00    +0.000 A 
ENDBRANCH   1   7
BRANCH   1  10
ATOM     10  C   UNL     1       5.411   5.355  17.396  0.00  0.00    +0.000 A 
ATOM     11  S   UNL     1       6.374   5.412  18.813  0.00  0.00    +0.000 S 
ATOM     12  C   UNL     1       7.726   4.753  18.015  0.00  0.00    +0.000 A 
ATOM     13  C   UNL     1       7.442   4.457  16.704  0.00  0.00    +0.000 A 
ATOM     14  C   UNL     1       6.093   4.799  16.323  0.00  0.00    +0.000 A 
BRANCH  14  15
ATOM     15  C   UNL     1       5.570   4.555  14.982  0.00  0.00    +0.000 C 
ATOM     16  O   UNL     1       6.219   3.957  14.123  0.00  0.00    +0.000 OA
ENDBRANCH  14  15
ENDBRANCH   1  10
TORSDOF 3
ENDMDL
MODEL 6
REMARK VINA RESULT:      -6.2      2.814      5.425
REMARK  Name = 
REMARK  4 active torsions:
REMARK  status: ('A' for Active; 'I' for Inactive)
REMARK    1  A    between atoms: C_1  and  C_2
REMARK    2  A    between atoms: C_5  and  S_6
REMARK    3  A    between atoms: S_6  and  C_8
REMARK    4  A    between atoms: C_12  and  C_13
REMARK                            x       y       z     vdW  Elec       q    Type
REMARK                         _______ _______ _______ _____ _____    ______ ____
ROOT
ATOM      1  S   UNL     1       3.552   3.620  17.945  0.00  0.00    +0.000 S 
ATOM      2  O   UNL     1       2.604   3.254  16.749  0.00  0.00    +0.000 OA
ENDROOT
BRANCH   1   7
ATOM      3  C   UNL     1       1.336   8.564  20.773  0.00  0.00    +0.000 C 
ATOM      4  C   UNL     1       1.846   7.343  20.064  0.00  0.00    +0.000 A 
ATOM      5  C   UNL     1       1.789   6.085  20.674  0.00  0.00    +0.000 A 
ATOM      6  C   UNL     1       2.296   4.960  20.020  0.00  0.00    +0.000 A 
ATOM      7  C   UNL     1       2.875   5.081  18.752  0.00  0.00    +0.000 A 
ATOM      8  C   UNL     1       2.908   6.332  18.128  0.00  0.00    +0.000 A 
ATOM      9  C   UNL     1       2.401   7.457  18.784  0.00  0.00    +0.000 A 
ENDBRANCH   1   7
BRANCH   1  10
ATOM     10  C   UNL     1       5.056   4.197  17.240  0.00  0.00    +0.000 A 
ATOM     11  S   UNL     1       5.330   4.198  15.548  0.00  0.00    +0.000 S 
ATOM     12  C   UNL     1       6.870   4.904  15.719  0.00  0.00    +0.000 A 
ATOM     13  C   UNL     1       7.157   5.172  17.035  0.00  0.00    +0.000 A 
ATOM     14  C   UNL     1       6.108   4.769  17.940  0.00  0.00    +0.000 A 
BRANCH  14  15
ATOM     15  C   UNL     1       6.194   4.974  19.383  0.00  0.00    +0.000 C 
ATOM     16  O   UNL     1       7.201   5.434  19.923  0.00  0.00    +0.000 OA
ENDBRANCH  14  15
ENDBRANCH   1  10
TORSDOF 3
ENDMDL
MODEL 7
REMARK VINA RESULT:      -6.2      1.539      1.605
REMARK  Name = 
REMARK  4 active torsions:
REMARK  status: ('A' for Active; 'I' for Inactive)
REMARK    1  A    between atoms: C_1  and  C_2
REMARK    2  A    between atoms: C_5  and  S_6
REMARK    3  A    between atoms: S_6  and  C_8
REMARK    4  A    between atoms: C_12  and  C_13
REMARK                            x       y       z     vdW  Elec       q    Type
REMARK                         _______ _______ _______ _____ _____    ______ ____
ROOT
ATOM      1  S   UNL     1       4.197   5.170  19.302  0.00  0.00    +0.000 S 
ATOM      2  O   UNL     1       3.385   6.513  19.335  0.00  0.00    +0.000 OA
ENDROOT
BRANCH   1   7
ATOM      3  C   UNL     1       7.231   4.856  14.006  0.00  0.00    +0.000 C 
ATOM      4  C   UNL     1       6.468   4.964  15.293  0.00  0.00    +0.000 A 
ATOM      5  C   UNL     1       6.959   5.733  16.354  0.00  0.00    +0.000 A 
ATOM      6  C   UNL     1       6.259   5.801  17.561  0.00  0.00    +0.000 A 
ATOM      7  C   UNL     1       5.063   5.093  17.724  0.00  0.00    +0.000 A 
ATOM      8  C   UNL     1       4.556   4.345  16.657  0.00  0.00    +0.000 A 
ATOM      9  C   UNL     1       5.258   4.278  15.451  0.00  0.00    +0.000 A 
ENDBRANCH   1   7
BRANCH   1  10
ATOM     10  C   UNL     1       3.018   3.870  19.189  0.00  0.00    +0.000 A 
ATOM     11  S   UNL     1       1.412   4.138  18.651  0.00  0.00    +0.000 S 
ATOM     12  C   UNL     1       1.009   2.489  18.786  0.00  0.00    +0.000 A 
ATOM     13  C   UNL     1       2.085   1.740  19.195  0.00  0.00    +0.000 A 
ATOM     14  C   UNL     1       3.270   2.528  19.434  0.00  0.00    +0.000 A 
BRANCH  14  15
ATOM     15  C   UNL     1       4.535   1.936  19.857  0.00  0.00    +0.000 C 
ATOM     16  O   UNL     1       4.902   1.941  21.033  0.00  0.00    +0.000 OA
ENDBRANCH  14  15
ENDBRANCH   1  10
TORSDOF 3
ENDMDL
MODEL 8
REMARK VINA RESULT:      -6.2      2.026      2.473
REMARK  Name = 
REMARK  4 active torsions:
REMARK  status: ('A' for Active; 'I' for Inactive)
REMARK    1  A    between atoms: C_1  and  C_2
REMARK    2  A    between atoms: C_5  and  S_6
REMARK    3  A    between atoms: S_6  and  C_8
REMARK    4  A    between atoms: C_12  and  C_13
REMARK                            x       y       z     vdW  Elec       q    Type
REMARK                         _______ _______ _______ _____ _____    ______ ____
ROOT
ATOM      1  S   UNL     1       3.966   3.196  18.862  0.00  0.00    +0.000 S 
ATOM      2  O   UNL     1       4.914   2.725  20.022  0.00  0.00    +0.000 OA
ENDROOT
BRANCH   1   7
ATOM      3  C   UNL     1       7.402   5.304  14.269  0.00  0.00    +0.000 C 
ATOM      4  C   UNL     1       6.573   4.751  15.391  0.00  0.00    +0.000 A 
ATOM      5  C   UNL     1       5.295   4.236  15.150  0.00  0.00    +0.000 A 
ATOM      6  C   UNL     1       4.516   3.755  16.204  0.00  0.00    +0.000 A 
ATOM      7  C   UNL     1       5.003   3.792  17.515  0.00  0.00    +0.000 A 
ATOM      8  C   UNL     1       6.291   4.281  17.757  0.00  0.00    +0.000 A 
ATOM      9  C   UNL     1       7.068   4.763  16.700  0.00  0.00    +0.000 A 
ENDBRANCH   1   7
BRANCH   1  10
ATOM     10  C   UNL     1       3.155   4.649  19.432  0.00  0.00    +0.000 A 
ATOM     11  S   UNL     1       3.430   6.186  18.724  0.00  0.00    +0.000 S 
ATOM     12  C   UNL     1       2.307   6.947  19.752  0.00  0.00    +0.000 A 
ATOM     13  C   UNL     1       1.703   6.045  20.594  0.00  0.00    +0.000 A 
ATOM     14  C   UNL     1       2.183   4.695  20.421  0.00  0.00    +0.000 A 
BRANCH  14  15
ATOM     15  C   UNL     1       1.667   3.573  21.198  0.00  0.00    +0.000 C 
ATOM     16  O   UNL     1       2.221   3.173  22.223  0.00  0.00    +0.000 OA
ENDBRANCH  14  15
ENDBRANCH   1  10
TORSDOF 3
ENDMDL
MODEL 9
REMARK VINA RESULT:      -6.1      1.509      1.702
REMARK  Name = 
REMARK  4 active torsions:
REMARK  status: ('A' for Active; 'I' for Inactive)
REMARK    1  A    between atoms: C_1  and  C_2
REMARK    2  A    between atoms: C_5  and  S_6
REMARK    3  A    between atoms: S_6  and  C_8
REMARK    4  A    between atoms: C_12  and  C_13
REMARK                            x       y       z     vdW  Elec       q    Type
REMARK                         _______ _______ _______ _____ _____    ______ ____
ROOT
ATOM      1  S   UNL     1       4.210   5.246  19.356  0.00  0.00    +0.000 S 
ATOM      2  O   UNL     1       3.398   6.589  19.329  0.00  0.00    +0.000 OA
ENDROOT
BRANCH   1   7
ATOM      3  C   UNL     1       7.170   4.863  14.023  0.00  0.00    +0.000 C 
ATOM      4  C   UNL     1       6.463   4.926  15.345  0.00  0.00    +0.000 A 
ATOM      5  C   UNL     1       5.289   4.198  15.565  0.00  0.00    +0.000 A 
ATOM      6  C   UNL     1       4.619   4.290  16.787  0.00  0.00    +0.000 A 
ATOM      7  C   UNL     1       5.111   5.119  17.801  0.00  0.00    +0.000 A 
ATOM      8  C   UNL     1       6.299   5.827  17.594  0.00  0.00    +0.000 A 
ATOM      9  C   UNL     1       6.967   5.735  16.371  0.00  0.00    +0.000 A 
ENDBRANCH   1   7
BRANCH   1  10
ATOM     10  C   UNL     1       3.034   3.942  19.259  0.00  0.00    +0.000 A 
ATOM     11  S   UNL     1       1.431   4.197  18.708  0.00  0.00    +0.000 S 
ATOM     12  C   UNL     1       1.030   2.550  18.869  0.00  0.00    +0.000 A 
ATOM     13  C   UNL     1       2.106   1.810  19.296  0.00  0.00    +0.000 A 
ATOM     14  C   UNL     1       3.288   2.605  19.528  0.00  0.00    +0.000 A 
BRANCH  14  15
ATOM     15  C   UNL     1       4.552   2.023  19.968  0.00  0.00    +0.000 C 
ATOM     16  O   UNL     1       4.843   1.908  21.159  0.00  0.00    +0.000 OA
ENDBRANCH  14  15
ENDBRANCH   1  10
TORSDOF 3
ENDMDL
