MODEL 1
REMARK VINA RESULT:      -7.5      0.000      0.000
REMARK  Name = 
REMARK  4 active torsions:
REMARK  status: ('A' for Active; 'I' for Inactive)
REMARK    1  A    between atoms: C_1  and  C_2
REMARK    2  A    between atoms: C_2  and  N_3
REMARK    3  A    between atoms: C_7  and  C_8
REMARK    4  A    between atoms: C_8  and  N_9
REMARK                            x       y       z     vdW  Elec       q    Type
REMARK                         _______ _______ _______ _____ _____    ______ ____
ROOT
ATOM      1  C   UNL     1       2.350   7.372  19.615  0.00  0.00    +0.000 C 
ENDROOT
BRANCH   1   2
ATOM      2  N   UNL     1       2.619   6.798  18.286  0.00  0.00    +0.000 NA
ATOM      3  C   UNL     1       3.638   7.433  17.458  0.00  0.00    +0.000 C 
ATOM      4  C   UNL     1       5.039   6.800  17.479  0.00  0.00    +0.000 C 
ATOM      5  C   UNL     1       5.030   5.253  17.398  0.00  0.00    +0.000 C 
ATOM      6  C   UNL     1       3.944   4.633  18.290  0.00  0.00    +0.000 C 
ATOM      7  C   UNL     1       2.593   5.345  18.176  0.00  0.00    +0.000 C 
ATOM      8  C   UNL     1       6.429   4.708  17.783  0.00  0.00    +0.000 C 
ATOM      9  N   UNL     1       6.891   3.968  16.657  0.00  0.00    +0.000 N 
ATOM     10  C   UNL     1       6.118   4.142  15.534  0.00  0.00    +0.000 C 
ATOM     11  O   UNL     1       6.430   3.797  14.426  0.00  0.00    +0.000 OA
ATOM     12  C   UNL     1       4.823   4.795  15.928  0.00  0.00    +0.000 C 
ATOM     13  H   UNL     1       7.821   3.584  16.559  0.00  0.00    +0.000 HD
ENDBRANCH   1   2
BRANCH   1  18
ATOM     14  N   UNL     1      -0.274  10.746  21.876  0.00  0.00    +0.000 N 
ATOM     15  C   UNL     1      -0.066   9.704  22.735  0.00  0.00    +0.000 A 
ATOM     16  C   UNL     1       0.652   8.742  22.061  0.00  0.00    +0.000 A 
ATOM     17  C   UNL     1       0.843   9.185  20.715  0.00  0.00    +0.000 A 
ATOM     18  C   UNL     1       1.485   8.631  19.573  0.00  0.00    +0.000 A 
ATOM     19  C   UNL     1       1.288   9.319  18.351  0.00  0.00    +0.000 A 
ATOM     20  C   UNL     1       0.727  10.593  18.302  0.00  0.00    +0.000 A 
ATOM     21  C   UNL     1       0.231  11.201  19.449  0.00  0.00    +0.000 A 
ATOM     22  C   UNL     1       0.241  10.448  20.629  0.00  0.00    +0.000 A 
BRANCH  14  24
ATOM     23  C   UNL     1      -2.107  11.764  23.178  0.00  0.00    +0.000 C 
ATOM     24  C   UNL     1      -0.955  11.986  22.210  0.00  0.00    +0.000 C 
ENDBRANCH  14  24
ENDBRANCH   1  18
TORSDOF 3
ENDMDL
MODEL 2
REMARK VINA RESULT:      -7.3      2.155      2.800
REMARK  Name = 
REMARK  4 active torsions:
REMARK  status: ('A' for Active; 'I' for Inactive)
REMARK    1  A    between atoms: C_1  and  C_2
REMARK    2  A    between atoms: C_2  and  N_3
REMARK    3  A    between atoms: C_7  and  C_8
REMARK    4  A    between atoms: C_8  and  N_9
REMARK                            x       y       z     vdW  Elec       q    Type
REMARK                         _______ _______ _______ _____ _____    ______ ____
ROOT
ATOM      1  C   UNL     1       1.806   8.482  17.818  0.00  0.00    +0.000 C 
ENDROOT
BRANCH   1   2
ATOM      2  N   UNL     1       2.793   7.688  18.570  0.00  0.00    +0.000 NA
ATOM      3  C   UNL     1       2.322   6.907  19.708  0.00  0.00    +0.000 C 
ATOM      4  C   UNL     1       2.037   5.418  19.455  0.00  0.00    +0.000 C 
ATOM      5  C   UNL     1       3.120   4.708  18.604  0.00  0.00    +0.000 C 
ATOM      6  C   UNL     1       3.578   5.567  17.417  0.00  0.00    +0.000 C 
ATOM      7  C   UNL     1       3.837   7.028  17.796  0.00  0.00    +0.000 C 
ATOM      8  C   UNL     1       2.576   3.343  18.112  0.00  0.00    +0.000 C 
ATOM      9  N   UNL     1       3.464   2.354  18.621  0.00  0.00    +0.000 N 
ATOM     10  C   UNL     1       4.355   2.842  19.547  0.00  0.00    +0.000 C 
ATOM     11  O   UNL     1       5.044   2.166  20.260  0.00  0.00    +0.000 OA
ATOM     12  C   UNL     1       4.343   4.345  19.489  0.00  0.00    +0.000 C 
ATOM     13  H   UNL     1       3.313   1.355  18.564  0.00  0.00    +0.000 HD
ENDBRANCH   1   2
BRANCH   1  18
ATOM     14  N   UNL     1       0.048  11.590  21.079  0.00  0.00    +0.000 N 
ATOM     15  C   UNL     1      -0.597  10.394  21.221  0.00  0.00    +0.000 A 
ATOM     16  C   UNL     1      -0.107   9.537  20.262  0.00  0.00    +0.000 A 
ATOM     17  C   UNL     1       0.837  10.252  19.461  0.00  0.00    +0.000 A 
ATOM     18  C   UNL     1       1.645   9.909  18.342  0.00  0.00    +0.000 A 
ATOM     19  C   UNL     1       2.322  10.980  17.709  0.00  0.00    +0.000 A 
ATOM     20  C   UNL     1       2.411  12.244  18.289  0.00  0.00    +0.000 A 
ATOM     21  C   UNL     1       1.738  12.539  19.469  0.00  0.00    +0.000 A 
ATOM     22  C   UNL     1       0.905  11.545  19.997  0.00  0.00    +0.000 A 
BRANCH  14  24
ATOM     23  C   UNL     1      -1.287  12.559  22.915  0.00  0.00    +0.000 C 
ATOM     24  C   UNL     1      -0.146  12.755  21.927  0.00  0.00    +0.000 C 
ENDBRANCH  14  24
ENDBRANCH   1  18
TORSDOF 3
ENDMDL
MODEL 3
REMARK VINA RESULT:      -7.1      1.941      2.255
REMARK  Name = 
REMARK  4 active torsions:
REMARK  status: ('A' for Active; 'I' for Inactive)
REMARK    1  A    between atoms: C_1  and  C_2
REMARK    2  A    between atoms: C_2  and  N_3
REMARK    3  A    between atoms: C_7  and  C_8
REMARK    4  A    between atoms: C_8  and  N_9
REMARK                            x       y       z     vdW  Elec       q    Type
REMARK                         _______ _______ _______ _____ _____    ______ ____
ROOT
ATOM      1  C   UNL     1       2.260   8.426  19.131  0.00  0.00    +0.000 C 
ENDROOT
BRANCH   1   2
ATOM      2  N   UNL     1       1.901   7.015  18.910  0.00  0.00    +0.000 NA
ATOM      3  C   UNL     1       2.383   6.366  17.697  0.00  0.00    +0.000 C 
ATOM      4  C   UNL     1       3.659   5.517  17.826  0.00  0.00    +0.000 C 
ATOM      5  C   UNL     1       3.683   4.611  19.082  0.00  0.00    +0.000 C 
ATOM      6  C   UNL     1       3.172   5.341  20.333  0.00  0.00    +0.000 C 
ATOM      7  C   UNL     1       1.894   6.145  20.080  0.00  0.00    +0.000 C 
ATOM      8  C   UNL     1       5.123   4.084  19.309  0.00  0.00    +0.000 C 
ATOM      9  N   UNL     1       5.038   2.663  19.265  0.00  0.00    +0.000 N 
ATOM     10  C   UNL     1       3.822   2.201  18.821  0.00  0.00    +0.000 C 
ATOM     11  O   UNL     1       3.594   1.067  18.500  0.00  0.00    +0.000 OA
ATOM     12  C   UNL     1       2.833   3.334  18.838  0.00  0.00    +0.000 C 
ATOM     13  H   UNL     1       5.830   2.035  19.269  0.00  0.00    +0.000 HD
ENDBRANCH   1   2
BRANCH   1  18
ATOM     14  N   UNL     1      -0.692  10.583  22.295  0.00  0.00    +0.000 N 
ATOM     15  C   UNL     1       0.025   9.621  22.950  0.00  0.00    +0.000 A 
ATOM     16  C   UNL     1       0.832   8.998  22.025  0.00  0.00    +0.000 A 
ATOM     17  C   UNL     1       0.558   9.560  20.739  0.00  0.00    +0.000 A 
ATOM     18  C   UNL     1       1.059   9.322  19.429  0.00  0.00    +0.000 A 
ATOM     19  C   UNL     1       0.379   9.976  18.372  0.00  0.00    +0.000 A 
ATOM     20  C   UNL     1      -0.550  10.990  18.606  0.00  0.00    +0.000 A 
ATOM     21  C   UNL     1      -0.932  11.326  19.899  0.00  0.00    +0.000 A 
ATOM     22  C   UNL     1      -0.413  10.550  20.943  0.00  0.00    +0.000 A 
BRANCH  14  24
ATOM     23  C   UNL     1      -1.087  12.920  22.984  0.00  0.00    +0.000 C 
ATOM     24  C   UNL     1      -1.631  11.501  22.920  0.00  0.00    +0.000 C 
ENDBRANCH  14  24
ENDBRANCH   1  18
TORSDOF 3
ENDMDL
MODEL 4
REMARK VINA RESULT:      -7.1      5.289      6.219
REMARK  Name = 
REMARK  4 active torsions:
REMARK  status: ('A' for Active; 'I' for Inactive)
REMARK    1  A    between atoms: C_1  and  C_2
REMARK    2  A    between atoms: C_2  and  N_3
REMARK    3  A    between atoms: C_7  and  C_8
REMARK    4  A    between atoms: C_8  and  N_9
REMARK                            x       y       z     vdW  Elec       q    Type
REMARK                         _______ _______ _______ _____ _____    ______ ____
ROOT
ATOM      1  C   UNL     1       4.531   3.367  16.175  0.00  0.00    +0.000 C 
ENDROOT
BRANCH   1   2
ATOM      2  N   UNL     1       5.164   4.676  15.941  0.00  0.00    +0.000 NA
ATOM      3  C   UNL     1       4.678   5.820  16.702  0.00  0.00    +0.000 C 
ATOM      4  C   UNL     1       5.475   6.203  17.960  0.00  0.00    +0.000 C 
ATOM      5  C   UNL     1       7.011   6.183  17.759  0.00  0.00    +0.000 C 
ATOM      6  C   UNL     1       7.473   4.958  16.957  0.00  0.00    +0.000 C 
ATOM      7  C   UNL     1       6.606   4.683  15.725  0.00  0.00    +0.000 C 
ATOM      8  C   UNL     1       7.711   6.227  19.141  0.00  0.00    +0.000 C 
ATOM      9  N   UNL     1       8.528   7.393  19.136  0.00  0.00    +0.000 N 
ATOM     10  C   UNL     1       8.289   8.224  18.068  0.00  0.00    +0.000 C 
ATOM     11  O   UNL     1       8.694   9.350  17.969  0.00  0.00    +0.000 OA
ATOM     12  C   UNL     1       7.475   7.481  17.045  0.00  0.00    +0.000 C 
ATOM     13  H   UNL     1       9.025   7.756  19.939  0.00  0.00    +0.000 HD
ENDBRANCH   1   2
BRANCH   1  18
ATOM     14  N   UNL     1       3.036   3.023  20.760  0.00  0.00    +0.000 N 
ATOM     15  C   UNL     1       4.299   2.509  20.671  0.00  0.00    +0.000 A 
ATOM     16  C   UNL     1       4.691   2.585  19.354  0.00  0.00    +0.000 A 
ATOM     17  C   UNL     1       3.603   3.115  18.592  0.00  0.00    +0.000 A 
ATOM     18  C   UNL     1       3.411   3.407  17.213  0.00  0.00    +0.000 A 
ATOM     19  C   UNL     1       2.094   3.755  16.825  0.00  0.00    +0.000 A 
ATOM     20  C   UNL     1       1.102   4.050  17.759  0.00  0.00    +0.000 A 
ATOM     21  C   UNL     1       1.337   3.906  19.122  0.00  0.00    +0.000 A 
ATOM     22  C   UNL     1       2.573   3.373  19.507  0.00  0.00    +0.000 A 
BRANCH  14  24
ATOM     23  C   UNL     1       1.171   2.128  22.105  0.00  0.00    +0.000 C 
ATOM     24  C   UNL     1       2.274   3.169  21.989  0.00  0.00    +0.000 C 
ENDBRANCH  14  24
ENDBRANCH   1  18
TORSDOF 3
ENDMDL
MODEL 5
REMARK VINA RESULT:      -7.1      3.274      8.473
REMARK  Name = 
REMARK  4 active torsions:
REMARK  status: ('A' for Active; 'I' for Inactive)
REMARK    1  A    between atoms: C_1  and  C_2
REMARK    2  A    between atoms: C_2  and  N_3
REMARK    3  A    between atoms: C_7  and  C_8
REMARK    4  A    between atoms: C_8  and  N_9
REMARK                            x       y       z     vdW  Elec       q    Type
REMARK                         _______ _______ _______ _____ _____    ______ ____
ROOT
ATOM      1  C   UNL     1       2.828   7.317  19.370  0.00  0.00    +0.000 C 
ENDROOT
BRANCH   1   2
ATOM      2  N   UNL     1       1.524   7.988  19.241  0.00  0.00    +0.000 NA
ATOM      3  C   UNL     1       0.862   8.443  20.458  0.00  0.00    +0.000 C 
ATOM      4  C   UNL     1       1.041   9.923  20.831  0.00  0.00    +0.000 C 
ATOM      5  C   UNL     1       0.898  10.893  19.631  0.00  0.00    +0.000 C 
ATOM      6  C   UNL     1       1.615  10.373  18.377  0.00  0.00    +0.000 C 
ATOM      7  C   UNL     1       1.354   8.889  18.107  0.00  0.00    +0.000 C 
ATOM      8  C   UNL     1       1.440  12.290  20.030  0.00  0.00    +0.000 C 
ATOM      9  N   UNL     1       0.356  13.198  19.868  0.00  0.00    +0.000 N 
ATOM     10  C   UNL     1      -0.851  12.577  19.651  0.00  0.00    +0.000 C 
ATOM     11  O   UNL     1      -1.921  13.120  19.701  0.00  0.00    +0.000 OA
ATOM     12  C   UNL     1      -0.603  11.134  19.312  0.00  0.00    +0.000 C 
ATOM     13  H   UNL     1       0.365  14.168  20.155  0.00  0.00    +0.000 HD
ENDBRANCH   1   2
BRANCH   1  18
ATOM     14  N   UNL     1       5.487   4.773  16.233  0.00  0.00    +0.000 N 
ATOM     15  C   UNL     1       6.056   6.004  16.392  0.00  0.00    +0.000 A 
ATOM     16  C   UNL     1       5.266   6.722  17.260  0.00  0.00    +0.000 A 
ATOM     17  C   UNL     1       4.133   5.920  17.605  0.00  0.00    +0.000 A 
ATOM     18  C   UNL     1       2.996   6.120  18.435  0.00  0.00    +0.000 A 
ATOM     19  C   UNL     1       1.987   5.128  18.362  0.00  0.00    +0.000 A 
ATOM     20  C   UNL     1       2.197   3.906  17.725  0.00  0.00    +0.000 A 
ATOM     21  C   UNL     1       3.377   3.652  17.035  0.00  0.00    +0.000 A 
ATOM     22  C   UNL     1       4.299   4.701  16.935  0.00  0.00    +0.000 A 
BRANCH  14  24
ATOM     23  C   UNL     1       6.158   4.076  13.963  0.00  0.00    +0.000 C 
ATOM     24  C   UNL     1       6.034   3.692  15.429  0.00  0.00    +0.000 C 
ENDBRANCH  14  24
ENDBRANCH   1  18
TORSDOF 3
ENDMDL
MODEL 6
REMARK VINA RESULT:      -7.0      2.503      3.494
REMARK  Name = 
REMARK  4 active torsions:
REMARK  status: ('A' for Active; 'I' for Inactive)
REMARK    1  A    between atoms: C_1  and  C_2
REMARK    2  A    between atoms: C_2  and  N_3
REMARK    3  A    between atoms: C_7  and  C_8
REMARK    4  A    between atoms: C_8  and  N_9
REMARK                            x       y       z     vdW  Elec       q    Type
REMARK                         _______ _______ _______ _____ _____    ______ ____
ROOT
ATOM      1  C   UNL     1       1.615   8.546  17.778  0.00  0.00    +0.000 C 
ENDROOT
BRANCH   1   2
ATOM      2  N   UNL     1       2.572   7.777  18.592  0.00  0.00    +0.000 NA
ATOM      3  C   UNL     1       2.040   6.829  19.564  0.00  0.00    +0.000 C 
ATOM      4  C   UNL     1       1.971   5.356  19.128  0.00  0.00    +0.000 C 
ATOM      5  C   UNL     1       3.240   4.862  18.389  0.00  0.00    +0.000 C 
ATOM      6  C   UNL     1       3.758   5.891  17.374  0.00  0.00    +0.000 C 
ATOM      7  C   UNL     1       3.786   7.319  17.927  0.00  0.00    +0.000 C 
ATOM      8  C   UNL     1       2.936   3.512  17.689  0.00  0.00    +0.000 C 
ATOM      9  N   UNL     1       3.854   2.568  18.231  0.00  0.00    +0.000 N 
ATOM     10  C   UNL     1       4.541   3.038  19.325  0.00  0.00    +0.000 C 
ATOM     11  O   UNL     1       5.197   2.359  20.068  0.00  0.00    +0.000 OA
ATOM     12  C   UNL     1       4.360   4.528  19.412  0.00  0.00    +0.000 C 
ATOM     13  H   UNL     1       3.832   1.572  18.055  0.00  0.00    +0.000 HD
ENDBRANCH   1   2
BRANCH   1  18
ATOM     14  N   UNL     1      -2.346  11.203  18.572  0.00  0.00    +0.000 N 
ATOM     15  C   UNL     1      -2.459  10.602  17.351  0.00  0.00    +0.000 A 
ATOM     16  C   UNL     1      -1.308   9.880  17.130  0.00  0.00    +0.000 A 
ATOM     17  C   UNL     1      -0.427  10.092  18.236  0.00  0.00    +0.000 A 
ATOM     18  C   UNL     1       0.878   9.630  18.563  0.00  0.00    +0.000 A 
ATOM     19  C   UNL     1       1.490  10.233  19.690  0.00  0.00    +0.000 A 
ATOM     20  C   UNL     1       0.775  11.033  20.580  0.00  0.00    +0.000 A 
ATOM     21  C   UNL     1      -0.553  11.365  20.335  0.00  0.00    +0.000 A 
ATOM     22  C   UNL     1      -1.108  10.936  19.123  0.00  0.00    +0.000 A 
BRANCH  14  24
ATOM     23  C   UNL     1      -4.756  11.730  18.651  0.00  0.00    +0.000 C 
ATOM     24  C   UNL     1      -3.368  12.022  19.203  0.00  0.00    +0.000 C 
ENDBRANCH  14  24
ENDBRANCH   1  18
TORSDOF 3
ENDMDL
MODEL 7
REMARK VINA RESULT:      -7.0      4.206      5.773
REMARK  Name = 
REMARK  4 active torsions:
REMARK  status: ('A' for Active; 'I' for Inactive)
REMARK    1  A    between atoms: C_1  and  C_2
REMARK    2  A    between atoms: C_2  and  N_3
REMARK    3  A    between atoms: C_7  and  C_8
REMARK    4  A    between atoms: C_8  and  N_9
REMARK                            x       y       z     vdW  Elec       q    Type
REMARK                         _______ _______ _______ _____ _____    ______ ____
ROOT
ATOM      1  C   UNL     1       6.391   6.085  18.788  0.00  0.00    +0.000 C 
ENDROOT
BRANCH   1   2
ATOM      2  N   UNL     1       7.108   5.875  17.519  0.00  0.00    +0.000 NA
ATOM      3  C   UNL     1       7.461   4.510  17.147  0.00  0.00    +0.000 C 
ATOM      4  C   UNL     1       6.515   3.793  16.170  0.00  0.00    +0.000 C 
ATOM      5  C   UNL     1       6.054   4.674  14.982  0.00  0.00    +0.000 C 
ATOM      6  C   UNL     1       5.689   6.098  15.426  0.00  0.00    +0.000 C 
ATOM      7  C   UNL     1       6.709   6.708  16.390  0.00  0.00    +0.000 C 
ATOM      8  C   UNL     1       4.852   3.997  14.275  0.00  0.00    +0.000 C 
ATOM      9  N   UNL     1       5.253   3.785  12.925  0.00  0.00    +0.000 N 
ATOM     10  C   UNL     1       6.592   4.005  12.711  0.00  0.00    +0.000 C 
ATOM     11  O   UNL     1       7.191   3.686  11.720  0.00  0.00    +0.000 OA
ATOM     12  C   UNL     1       7.163   4.733  13.897  0.00  0.00    +0.000 C 
ATOM     13  H   UNL     1       4.725   3.260  12.240  0.00  0.00    +0.000 HD
ENDBRANCH   1   2
BRANCH   1  18
ATOM     14  N   UNL     1       2.652   3.161  19.713  0.00  0.00    +0.000 N 
ATOM     15  C   UNL     1       3.811   2.463  19.901  0.00  0.00    +0.000 A 
ATOM     16  C   UNL     1       4.860   3.302  19.599  0.00  0.00    +0.000 A 
ATOM     17  C   UNL     1       4.322   4.549  19.152  0.00  0.00    +0.000 A 
ATOM     18  C   UNL     1       4.898   5.771  18.705  0.00  0.00    +0.000 A 
ATOM     19  C   UNL     1       4.000   6.723  18.163  0.00  0.00    +0.000 A 
ATOM     20  C   UNL     1       2.618   6.594  18.294  0.00  0.00    +0.000 A 
ATOM     21  C   UNL     1       2.056   5.460  18.869  0.00  0.00    +0.000 A 
ATOM     22  C   UNL     1       2.928   4.424  19.228  0.00  0.00    +0.000 A 
BRANCH  14  24
ATOM     23  C   UNL     1       0.651   2.131  18.699  0.00  0.00    +0.000 C 
ATOM     24  C   UNL     1       1.314   2.651  19.965  0.00  0.00    +0.000 C 
ENDBRANCH  14  24
ENDBRANCH   1  18
TORSDOF 3
ENDMDL
MODEL 8
REMARK VINA RESULT:      -6.9      3.531      8.089
REMARK  Name = 
REMARK  4 active torsions:
REMARK  status: ('A' for Active; 'I' for Inactive)
REMARK    1  A    between atoms: C_1  and  C_2
REMARK    2  A    between atoms: C_2  and  N_3
REMARK    3  A    between atoms: C_7  and  C_8
REMARK    4  A    between atoms: C_8  and  N_9
REMARK                            x       y       z     vdW  Elec       q    Type
REMARK                         _______ _______ _______ _____ _____    ______ ____
ROOT
ATOM      1  C   UNL     1       1.268   7.458  20.674  0.00  0.00    +0.000 C 
ENDROOT
BRANCH   1   2
ATOM      2  N   UNL     1       1.540   8.880  20.405  0.00  0.00    +0.000 NA
ATOM      3  C   UNL     1       1.516   9.334  19.020  0.00  0.00    +0.000 C 
ATOM      4  C   UNL     1       0.215   9.991  18.530  0.00  0.00    +0.000 C 
ATOM      5  C   UNL     1      -0.397  10.997  19.537  0.00  0.00    +0.000 C 
ATOM      6  C   UNL     1      -0.353  10.471  20.979  0.00  0.00    +0.000 C 
ATOM      7  C   UNL     1       0.995   9.847  21.351  0.00  0.00    +0.000 C 
ATOM      8  C   UNL     1      -1.854  11.321  19.119  0.00  0.00    +0.000 C 
ATOM      9  N   UNL     1      -1.902  12.728  18.907  0.00  0.00    +0.000 N 
ATOM     10  C   UNL     1      -0.663  13.323  18.898  0.00  0.00    +0.000 C 
ATOM     11  O   UNL     1      -0.442  14.444  18.528  0.00  0.00    +0.000 OA
ATOM     12  C   UNL     1       0.346  12.358  19.454  0.00  0.00    +0.000 C 
ATOM     13  H   UNL     1      -2.691  13.229  18.518  0.00  0.00    +0.000 HD
ENDBRANCH   1   2
BRANCH   1  18
ATOM     14  N   UNL     1       1.992   3.043  18.841  0.00  0.00    +0.000 N 
ATOM     15  C   UNL     1       1.145   2.941  19.908  0.00  0.00    +0.000 A 
ATOM     16  C   UNL     1       0.981   4.201  20.435  0.00  0.00    +0.000 A 
ATOM     17  C   UNL     1       1.805   5.107  19.697  0.00  0.00    +0.000 A 
ATOM     18  C   UNL     1       2.057   6.505  19.778  0.00  0.00    +0.000 A 
ATOM     19  C   UNL     1       3.105   6.999  18.963  0.00  0.00    +0.000 A 
ATOM     20  C   UNL     1       3.682   6.229  17.953  0.00  0.00    +0.000 A 
ATOM     21  C   UNL     1       3.325   4.897  17.777  0.00  0.00    +0.000 A 
ATOM     22  C   UNL     1       2.435   4.343  18.704  0.00  0.00    +0.000 A 
BRANCH  14  24
ATOM     23  C   UNL     1       3.722   1.340  18.396  0.00  0.00    +0.000 C 
ATOM     24  C   UNL     1       2.390   1.943  17.977  0.00  0.00    +0.000 C 
ENDBRANCH  14  24
ENDBRANCH   1  18
TORSDOF 3
ENDMDL
MODEL 9
REMARK VINA RESULT:      -6.9      2.490      3.705
REMARK  Name = 
REMARK  4 active torsions:
REMARK  status: ('A' for Active; 'I' for Inactive)
REMARK    1  A    between atoms: C_1  and  C_2
REMARK    2  A    between atoms: C_2  and  N_3
REMARK    3  A    between atoms: C_7  and  C_8
REMARK    4  A    between atoms: C_8  and  N_9
REMARK                            x       y       z     vdW  Elec       q    Type
REMARK                         _______ _______ _______ _____ _____    ______ ____
ROOT
ATOM      1  C   UNL     1       1.652   8.761  17.962  0.00  0.00    +0.000 C 
ENDROOT
BRANCH   1   2
ATOM      2  N   UNL     1       2.694   7.959  18.625  0.00  0.00    +0.000 NA
ATOM      3  C   UNL     1       2.319   7.177  19.796  0.00  0.00    +0.000 C 
ATOM      4  C   UNL     1       2.006   5.690  19.564  0.00  0.00    +0.000 C 
ATOM      5  C   UNL     1       3.009   4.978  18.622  0.00  0.00    +0.000 C 
ATOM      6  C   UNL     1       3.368   5.839  17.402  0.00  0.00    +0.000 C 
ATOM      7  C   UNL     1       3.666   7.297  17.762  0.00  0.00    +0.000 C 
ATOM      8  C   UNL     1       2.417   3.617  18.173  0.00  0.00    +0.000 C 
ATOM      9  N   UNL     1       3.341   2.622  18.602  0.00  0.00    +0.000 N 
ATOM     10  C   UNL     1       4.310   3.103  19.449  0.00  0.00    +0.000 C 
ATOM     11  O   UNL     1       5.054   2.421  20.100  0.00  0.00    +0.000 OA
ATOM     12  C   UNL     1       4.301   4.606  19.398  0.00  0.00    +0.000 C 
ATOM     13  H   UNL     1       3.181   1.624  18.555  0.00  0.00    +0.000 HD
ENDBRANCH   1   2
BRANCH   1  18
ATOM     14  N   UNL     1       1.428  13.461  19.074  0.00  0.00    +0.000 N 
ATOM     15  C   UNL     1       2.496  13.256  18.246  0.00  0.00    +0.000 A 
ATOM     16  C   UNL     1       2.561  11.910  17.971  0.00  0.00    +0.000 A 
ATOM     17  C   UNL     1       1.526  11.251  18.705  0.00  0.00    +0.000 A 
ATOM     18  C   UNL     1       1.111   9.896  18.830  0.00  0.00    +0.000 A 
ATOM     19  C   UNL     1       0.137   9.630  19.824  0.00  0.00    +0.000 A 
ATOM     20  C   UNL     1      -0.566  10.651  20.462  0.00  0.00    +0.000 A 
ATOM     21  C   UNL     1      -0.259  11.986  20.227  0.00  0.00    +0.000 A 
ATOM     22  C   UNL     1       0.835  12.256  19.396  0.00  0.00    +0.000 A 
BRANCH  14  24
ATOM     23  C   UNL     1      -0.158  15.321  18.733  0.00  0.00    +0.000 C 
ATOM     24  C   UNL     1       0.983  14.755  19.565  0.00  0.00    +0.000 C 
ENDBRANCH  14  24
ENDBRANCH   1  18
TORSDOF 3
ENDMDL
