MODEL 1
REMARK VINA RESULT:      -7.2      0.000      0.000
REMARK  Name = 
REMARK  15 active torsions:
REMARK  status: ('A' for Active; 'I' for Inactive)
REMARK    1  A    between atoms: C_1  and  C_2
REMARK    2  A    between atoms: C_2  and  C_3
REMARK    3  A    between atoms: C_3  and  C_4
REMARK    4  A    between atoms: C_4  and  C_5
REMARK    5  A    between atoms: C_5  and  C_6
REMARK    6  A    between atoms: C_6  and  C_8
REMARK    7  A    between atoms: C_11  and  O_12
REMARK    8  A    between atoms: O_12  and  C_13
REMARK    9  A    between atoms: C_13  and  C_14
REMARK   10  A    between atoms: C_14  and  C_15
REMARK   11  A    between atoms: C_15  and  N_16
REMARK   12  A    between atoms: C_20  and  C_22
REMARK   13  A    between atoms: C_22  and  N_23
REMARK   14  A    between atoms: C_22  and  C_24
REMARK   15  A    between atoms: C_24  and  C_25
REMARK                            x       y       z     vdW  Elec       q    Type
REMARK                         _______ _______ _______ _____ _____    ______ ____
ROOT
ATOM      1  N   UNL     1       7.608   6.219  17.172  0.00  0.00    +0.000 NA
ATOM      2  C   UNL     1       7.712   5.448  18.436  0.00  0.00    +0.000 C 
ATOM      3  C   UNL     1       6.402   5.406  19.241  0.00  0.00    +0.000 C 
ATOM      4  N   UNL     1       5.334   4.832  18.416  0.00  0.00    +0.000 N 
ATOM      5  C   UNL     1       4.733   3.656  18.838  0.00  0.00    +0.000 C 
ATOM      6  O   UNL     1       5.083   3.100  19.883  0.00  0.00    +0.000 OA
ATOM      7  C   UNL     1       5.144   5.515  17.129  0.00  0.00    +0.000 C 
ATOM      8  C   UNL     1       6.487   5.670  16.370  0.00  0.00    +0.000 C 
ENDROOT
BRANCH   1   9
ATOM      9  C   UNL     1       7.449   7.668  17.380  0.00  0.00    +0.000 C 
BRANCH   9  10
ATOM     10  C   UNL     1       8.435   8.278  18.374  0.00  0.00    +0.000 C 
BRANCH  10  11
ATOM     11  C   UNL     1       8.426   9.801  18.357  0.00  0.00    +0.000 C 
BRANCH  11  12
ATOM     12  O   UNL     1       9.783  10.213  18.516  0.00  0.00    +0.000 OA
BRANCH  12  16
ATOM     13  C   UNL     1      10.299  14.276  17.773  0.00  0.00    +0.000 A 
ATOM     14  C   UNL     1       9.036  13.688  17.890  0.00  0.00    +0.000 A 
ATOM     15  C   UNL     1       8.916  12.321  18.127  0.00  0.00    +0.000 A 
ATOM     16  C   UNL     1      10.049  11.522  18.250  0.00  0.00    +0.000 A 
ATOM     17  C   UNL     1      11.316  12.095  18.152  0.00  0.00    +0.000 A 
ATOM     18  C   UNL     1      11.439  13.470  17.911  0.00  0.00    +0.000 A 
BRANCH  13  19
ATOM     19  C   UNL     1      10.474  15.735  17.509  0.00  0.00    +0.000 C 
ATOM     20  O   UNL     1      11.006  16.101  16.463  0.00  0.00    +0.000 OA
BRANCH  19  21
ATOM     21  C   UNL     1      10.023  16.720  18.574  0.00  0.00    +0.000 C 
BRANCH  21  22
ATOM     22  C   UNL     1       8.668  17.336  18.253  0.00  0.00    +0.000 C 
BRANCH  22  23
ATOM     23  C   UNL     1       7.862  17.540  19.535  0.00  0.00    +0.000 C 
BRANCH  23  25
ATOM     24  C   UNL     1       6.275  15.623  19.186  0.00  0.00    +0.000 C 
ATOM     25  C   UNL     1       7.354  16.210  20.079  0.00  0.00    +0.000 C 
ENDBRANCH  23  25
ENDBRANCH  22  23
ENDBRANCH  21  22
ENDBRANCH  19  21
ENDBRANCH  13  19
ENDBRANCH  12  16
ENDBRANCH  11  12
ENDBRANCH  10  11
ENDBRANCH   9  10
ENDBRANCH   1   9
BRANCH   5  26
ATOM     26  C   UNL     1       3.677   2.989  17.925  0.00  0.00    +0.000 C 
BRANCH  26  27
ATOM     27  N   UNL     1       3.927   1.527  17.927  0.00  0.00    +0.000 NA
ATOM     28  H   UNL     1       4.371   1.285  18.815  0.00  0.00    +0.000 HD
ATOM     29  H   UNL     1       4.606   1.292  17.209  0.00  0.00    +0.000 HD
ENDBRANCH  26  27
BRANCH  26  30
ATOM     30  C   UNL     1       2.269   3.329  18.463  0.00  0.00    +0.000 C 
BRANCH  30  31
ATOM     31  C   UNL     1       2.119   4.762  18.922  0.00  0.00    +0.000 A 
ATOM     32  C   UNL     1       2.147   5.804  17.988  0.00  0.00    +0.000 A 
ATOM     33  C   UNL     1       2.041   7.107  18.444  0.00  0.00    +0.000 A 
ATOM     34  N   UNL     1       1.905   7.444  19.742  0.00  0.00    +0.000 NA
ATOM     35  C   UNL     1       1.878   6.422  20.626  0.00  0.00    +0.000 A 
ATOM     36  C   UNL     1       1.981   5.084  20.270  0.00  0.00    +0.000 A 
ENDBRANCH  30  31
ENDBRANCH  26  30
ENDBRANCH   5  26
TORSDOF 14
ENDMDL
MODEL 2
REMARK VINA RESULT:      -7.2      6.650     10.977
REMARK  Name = 
REMARK  15 active torsions:
REMARK  status: ('A' for Active; 'I' for Inactive)
REMARK    1  A    between atoms: C_1  and  C_2
REMARK    2  A    between atoms: C_2  and  C_3
REMARK    3  A    between atoms: C_3  and  C_4
REMARK    4  A    between atoms: C_4  and  C_5
REMARK    5  A    between atoms: C_5  and  C_6
REMARK    6  A    between atoms: C_6  and  C_8
REMARK    7  A    between atoms: C_11  and  O_12
REMARK    8  A    between atoms: O_12  and  C_13
REMARK    9  A    between atoms: C_13  and  C_14
REMARK   10  A    between atoms: C_14  and  C_15
REMARK   11  A    between atoms: C_15  and  N_16
REMARK   12  A    between atoms: C_20  and  C_22
REMARK   13  A    between atoms: C_22  and  N_23
REMARK   14  A    between atoms: C_22  and  C_24
REMARK   15  A    between atoms: C_24  and  C_25
REMARK                            x       y       z     vdW  Elec       q    Type
REMARK                         _______ _______ _______ _____ _____    ______ ____
ROOT
ATOM      1  N   UNL     1       1.575   8.382  21.116  0.00  0.00    +0.000 NA
ATOM      2  C   UNL     1       1.201   9.175  19.918  0.00  0.00    +0.000 C 
ATOM      3  C   UNL     1      -0.270   9.626  19.912  0.00  0.00    +0.000 C 
ATOM      4  N   UNL     1      -0.548  10.416  21.115  0.00  0.00    +0.000 N 
ATOM      5  C   UNL     1      -0.942  11.737  20.962  0.00  0.00    +0.000 C 
ATOM      6  O   UNL     1      -1.059  12.241  19.841  0.00  0.00    +0.000 OA
ATOM      7  C   UNL     1      -0.207   9.731  22.370  0.00  0.00    +0.000 C 
ATOM      8  C   UNL     1       1.236   9.166  22.329  0.00  0.00    +0.000 C 
ENDROOT
BRANCH   1   9
ATOM      9  C   UNL     1       0.951   7.049  21.156  0.00  0.00    +0.000 C 
BRANCH   9  10
ATOM     10  C   UNL     1       1.896   5.897  20.819  0.00  0.00    +0.000 C 
BRANCH  10  11
ATOM     11  C   UNL     1       1.606   5.273  19.460  0.00  0.00    +0.000 C 
BRANCH  11  12
ATOM     12  O   UNL     1       2.153   6.160  18.485  0.00  0.00    +0.000 OA
BRANCH  12  16
ATOM     13  C   UNL     1       5.643   5.099  16.479  0.00  0.00    +0.000 A 
ATOM     14  C   UNL     1       5.268   6.431  16.681  0.00  0.00    +0.000 A 
ATOM     15  C   UNL     1       4.084   6.734  17.349  0.00  0.00    +0.000 A 
ATOM     16  C   UNL     1       3.258   5.718  17.822  0.00  0.00    +0.000 A 
ATOM     17  C   UNL     1       3.626   4.385  17.642  0.00  0.00    +0.000 A 
ATOM     18  C   UNL     1       4.815   4.078  16.969  0.00  0.00    +0.000 A 
BRANCH  13  19
ATOM     19  C   UNL     1       6.899   4.729  15.761  0.00  0.00    +0.000 C 
ATOM     20  O   UNL     1       7.885   4.383  16.408  0.00  0.00    +0.000 OA
BRANCH  19  21
ATOM     21  C   UNL     1       6.923   4.839  14.246  0.00  0.00    +0.000 C 
BRANCH  21  22
ATOM     22  C   UNL     1       5.912   3.913  13.584  0.00  0.00    +0.000 C 
BRANCH  22  23
ATOM     23  C   UNL     1       6.476   3.361  12.276  0.00  0.00    +0.000 C 
BRANCH  23  25
ATOM     24  C   UNL     1       4.147   3.239  11.340  0.00  0.00    +0.000 C 
ATOM     25  C   UNL     1       5.450   2.490  11.561  0.00  0.00    +0.000 C 
ENDBRANCH  23  25
ENDBRANCH  22  23
ENDBRANCH  21  22
ENDBRANCH  19  21
ENDBRANCH  13  19
ENDBRANCH  12  16
ENDBRANCH  11  12
ENDBRANCH  10  11
ENDBRANCH   9  10
ENDBRANCH   1   9
BRANCH   5  26
ATOM     26  C   UNL     1      -1.139  12.608  22.225  0.00  0.00    +0.000 C 
BRANCH  26  27
ATOM     27  N   UNL     1       0.134  13.319  22.495  0.00  0.00    +0.000 NA
ATOM     28  H   UNL     1       0.080  14.239  22.052  0.00  0.00    +0.000 HD
ATOM     29  H   UNL     1       0.902  12.840  22.035  0.00  0.00    +0.000 HD
ENDBRANCH  26  27
BRANCH  26  30
ATOM     30  C   UNL     1      -2.303  13.594  21.973  0.00  0.00    +0.000 C 
BRANCH  30  31
ATOM     31  C   UNL     1      -2.498  14.605  23.080  0.00  0.00    +0.000 A 
ATOM     32  C   UNL     1      -2.290  15.967  22.830  0.00  0.00    +0.000 A 
ATOM     33  C   UNL     1      -2.444  16.864  23.873  0.00  0.00    +0.000 A 
ATOM     34  N   UNL     1      -2.790  16.511  25.127  0.00  0.00    +0.000 NA
ATOM     35  C   UNL     1      -2.987  15.192  25.346  0.00  0.00    +0.000 A 
ATOM     36  C   UNL     1      -2.854  14.215  24.368  0.00  0.00    +0.000 A 
ENDBRANCH  30  31
ENDBRANCH  26  30
ENDBRANCH   5  26
TORSDOF 14
ENDMDL
MODEL 3
REMARK VINA RESULT:      -7.0      7.637     12.320
REMARK  Name = 
REMARK  15 active torsions:
REMARK  status: ('A' for Active; 'I' for Inactive)
REMARK    1  A    between atoms: C_1  and  C_2
REMARK    2  A    between atoms: C_2  and  C_3
REMARK    3  A    between atoms: C_3  and  C_4
REMARK    4  A    between atoms: C_4  and  C_5
REMARK    5  A    between atoms: C_5  and  C_6
REMARK    6  A    between atoms: C_6  and  C_8
REMARK    7  A    between atoms: C_11  and  O_12
REMARK    8  A    between atoms: O_12  and  C_13
REMARK    9  A    between atoms: C_13  and  C_14
REMARK   10  A    between atoms: C_14  and  C_15
REMARK   11  A    between atoms: C_15  and  N_16
REMARK   12  A    between atoms: C_20  and  C_22
REMARK   13  A    between atoms: C_22  and  N_23
REMARK   14  A    between atoms: C_22  and  C_24
REMARK   15  A    between atoms: C_24  and  C_25
REMARK                            x       y       z     vdW  Elec       q    Type
REMARK                         _______ _______ _______ _____ _____    ______ ____
ROOT
ATOM      1  N   UNL     1      -1.374  13.453  20.863  0.00  0.00    +0.000 NA
ATOM      2  C   UNL     1      -1.997  14.753  21.218  0.00  0.00    +0.000 C 
ATOM      3  C   UNL     1      -3.451  14.891  20.736  0.00  0.00    +0.000 C 
ATOM      4  N   UNL     1      -4.261  13.804  21.294  0.00  0.00    +0.000 N 
ATOM      5  C   UNL     1      -5.317  14.130  22.132  0.00  0.00    +0.000 C 
ATOM      6  O   UNL     1      -5.575  15.306  22.404  0.00  0.00    +0.000 OA
ATOM      7  C   UNL     1      -3.733  12.462  21.011  0.00  0.00    +0.000 C 
ATOM      8  C   UNL     1      -2.232  12.358  21.381  0.00  0.00    +0.000 C 
ENDROOT
BRANCH   1   9
ATOM      9  C   UNL     1      -1.128  13.294  19.420  0.00  0.00    +0.000 C 
BRANCH   9  10
ATOM     10  C   UNL     1       0.190  12.602  19.075  0.00  0.00    +0.000 C 
BRANCH  10  11
ATOM     11  C   UNL     1       0.009  11.135  18.711  0.00  0.00    +0.000 C 
BRANCH  11  12
ATOM     12  O   UNL     1       0.592  10.381  19.773  0.00  0.00    +0.000 OA
BRANCH  12  16
ATOM     13  C   UNL     1       2.787   6.955  18.895  0.00  0.00    +0.000 A 
ATOM     14  C   UNL     1       2.150   7.144  20.125  0.00  0.00    +0.000 A 
ATOM     15  C   UNL     1       1.437   8.314  20.374  0.00  0.00    +0.000 A 
ATOM     16  C   UNL     1       1.350   9.310  19.405  0.00  0.00    +0.000 A 
ATOM     17  C   UNL     1       1.966   9.130  18.168  0.00  0.00    +0.000 A 
ATOM     18  C   UNL     1       2.686   7.955  17.916  0.00  0.00    +0.000 A 
BRANCH  13  19
ATOM     19  C   UNL     1       3.570   5.721  18.588  0.00  0.00    +0.000 C 
ATOM     20  O   UNL     1       4.617   5.503  19.194  0.00  0.00    +0.000 OA
BRANCH  19  21
ATOM     21  C   UNL     1       3.059   4.795  17.498  0.00  0.00    +0.000 C 
BRANCH  21  22
ATOM     22  C   UNL     1       2.622   3.443  18.045  0.00  0.00    +0.000 C 
BRANCH  22  23
ATOM     23  C   UNL     1       1.119   3.444  18.321  0.00  0.00    +0.000 C 
BRANCH  23  25
ATOM     24  C   UNL     1       1.291   3.762  20.808  0.00  0.00    +0.000 C 
ATOM     25  C   UNL     1       0.814   2.850  19.691  0.00  0.00    +0.000 C 
ENDBRANCH  23  25
ENDBRANCH  22  23
ENDBRANCH  21  22
ENDBRANCH  19  21
ENDBRANCH  13  19
ENDBRANCH  12  16
ENDBRANCH  11  12
ENDBRANCH  10  11
ENDBRANCH   9  10
ENDBRANCH   1   9
BRANCH   5  26
ATOM     26  C   UNL     1      -6.114  12.988  22.805  0.00  0.00    +0.000 C 
BRANCH  26  27
ATOM     27  N   UNL     1      -6.370  13.376  24.214  0.00  0.00    +0.000 NA
ATOM     28  H   UNL     1      -6.457  12.519  24.765  0.00  0.00    +0.000 HD
ATOM     29  H   UNL     1      -7.272  13.838  24.286  0.00  0.00    +0.000 HD
ENDBRANCH  26  27
BRANCH  26  30
ATOM     30  C   UNL     1      -7.430  12.771  22.024  0.00  0.00    +0.000 C 
BRANCH  30  31
ATOM     31  C   UNL     1      -7.356  11.667  20.995  0.00  0.00    +0.000 A 
ATOM     32  C   UNL     1      -7.693  10.355  21.349  0.00  0.00    +0.000 A 
ATOM     33  C   UNL     1      -7.582   9.360  20.392  0.00  0.00    +0.000 A 
ATOM     34  N   UNL     1      -7.171   9.573  19.126  0.00  0.00    +0.000 NA
ATOM     35  C   UNL     1      -6.852  10.846  18.806  0.00  0.00    +0.000 A 
ATOM     36  C   UNL     1      -6.926  11.912  19.693  0.00  0.00    +0.000 A 
ENDBRANCH  30  31
ENDBRANCH  26  30
ENDBRANCH   5  26
TORSDOF 14
ENDMDL
MODEL 4
REMARK VINA RESULT:      -7.0      6.578     10.637
REMARK  Name = 
REMARK  15 active torsions:
REMARK  status: ('A' for Active; 'I' for Inactive)
REMARK    1  A    between atoms: C_1  and  C_2
REMARK    2  A    between atoms: C_2  and  C_3
REMARK    3  A    between atoms: C_3  and  C_4
REMARK    4  A    between atoms: C_4  and  C_5
REMARK    5  A    between atoms: C_5  and  C_6
REMARK    6  A    between atoms: C_6  and  C_8
REMARK    7  A    between atoms: C_11  and  O_12
REMARK    8  A    between atoms: O_12  and  C_13
REMARK    9  A    between atoms: C_13  and  C_14
REMARK   10  A    between atoms: C_14  and  C_15
REMARK   11  A    between atoms: C_15  and  N_16
REMARK   12  A    between atoms: C_20  and  C_22
REMARK   13  A    between atoms: C_22  and  N_23
REMARK   14  A    between atoms: C_22  and  C_24
REMARK   15  A    between atoms: C_24  and  C_25
REMARK                            x       y       z     vdW  Elec       q    Type
REMARK                         _______ _______ _______ _____ _____    ______ ____
ROOT
ATOM      1  N   UNL     1       1.846   8.937  19.707  0.00  0.00    +0.000 NA
ATOM      2  C   UNL     1       1.454   9.701  18.496  0.00  0.00    +0.000 C 
ATOM      3  C   UNL     1      -0.067   9.765  18.275  0.00  0.00    +0.000 C 
ATOM      4  N   UNL     1      -0.712  10.363  19.448  0.00  0.00    +0.000 N 
ATOM      5  C   UNL     1      -1.412  11.549  19.284  0.00  0.00    +0.000 C 
ATOM      6  O   UNL     1      -1.495  12.093  18.180  0.00  0.00    +0.000 OA
ATOM      7  C   UNL     1      -0.387   9.690  20.713  0.00  0.00    +0.000 C 
ATOM      8  C   UNL     1       1.143   9.512  20.881  0.00  0.00    +0.000 C 
ENDROOT
BRANCH   1   9
ATOM      9  C   UNL     1       1.594   7.491  19.597  0.00  0.00    +0.000 C 
BRANCH   9  10
ATOM     10  C   UNL     1       2.518   6.760  18.624  0.00  0.00    +0.000 C 
BRANCH  10  11
ATOM     11  C   UNL     1       3.331   5.661  19.295  0.00  0.00    +0.000 C 
BRANCH  11  12
ATOM     12  O   UNL     1       4.702   5.971  19.055  0.00  0.00    +0.000 OA
BRANCH  12  16
ATOM     13  C   UNL     1       6.222   4.949  15.317  0.00  0.00    +0.000 A 
ATOM     14  C   UNL     1       6.590   4.277  16.487  0.00  0.00    +0.000 A 
ATOM     15  C   UNL     1       6.062   4.665  17.716  0.00  0.00    +0.000 A 
ATOM     16  C   UNL     1       5.164   5.726  17.797  0.00  0.00    +0.000 A 
ATOM     17  C   UNL     1       4.775   6.395  16.637  0.00  0.00    +0.000 A 
ATOM     18  C   UNL     1       5.306   6.008  15.401  0.00  0.00    +0.000 A 
BRANCH  13  19
ATOM     19  C   UNL     1       6.771   4.572  13.980  0.00  0.00    +0.000 C 
ATOM     20  O   UNL     1       7.537   5.341  13.403  0.00  0.00    +0.000 OA
BRANCH  19  21
ATOM     21  C   UNL     1       6.322   3.261  13.359  0.00  0.00    +0.000 C 
BRANCH  21  22
ATOM     22  C   UNL     1       5.840   3.435  11.925  0.00  0.00    +0.000 C 
BRANCH  22  23
ATOM     23  C   UNL     1       4.337   3.705  11.900  0.00  0.00    +0.000 C 
BRANCH  23  25
ATOM     24  C   UNL     1       3.025   4.151   9.804  0.00  0.00    +0.000 C 
ATOM     25  C   UNL     1       3.691   3.091  10.663  0.00  0.00    +0.000 C 
ENDBRANCH  23  25
ENDBRANCH  22  23
ENDBRANCH  21  22
ENDBRANCH  19  21
ENDBRANCH  13  19
ENDBRANCH  12  16
ENDBRANCH  11  12
ENDBRANCH  10  11
ENDBRANCH   9  10
ENDBRANCH   1   9
BRANCH   5  26
ATOM     26  C   UNL     1      -2.009  12.240  20.533  0.00  0.00    +0.000 C 
BRANCH  26  27
ATOM     27  N   UNL     1      -0.958  13.100  21.129  0.00  0.00    +0.000 NA
ATOM     28  H   UNL     1      -1.362  14.025  21.288  0.00  0.00    +0.000 HD
ATOM     29  H   UNL     1      -0.207  13.242  20.459  0.00  0.00    +0.000 HD
ENDBRANCH  26  27
BRANCH  26  30
ATOM     30  C   UNL     1      -3.245  13.063  20.103  0.00  0.00    +0.000 C 
BRANCH  30  31
ATOM     31  C   UNL     1      -4.481  12.786  20.927  0.00  0.00    +0.000 A 
ATOM     32  C   UNL     1      -5.618  12.236  20.323  0.00  0.00    +0.000 A 
ATOM     33  C   UNL     1      -6.746  12.025  21.098  0.00  0.00    +0.000 A 
ATOM     34  N   UNL     1      -6.822  12.312  22.413  0.00  0.00    +0.000 NA
ATOM     35  C   UNL     1      -5.713  12.841  22.975  0.00  0.00    +0.000 A 
ATOM     36  C   UNL     1      -4.536  13.094  22.284  0.00  0.00    +0.000 A 
ENDBRANCH  30  31
ENDBRANCH  26  30
ENDBRANCH   5  26
TORSDOF 14
ENDMDL
MODEL 5
REMARK VINA RESULT:      -6.9      7.098     11.886
REMARK  Name = 
REMARK  15 active torsions:
REMARK  status: ('A' for Active; 'I' for Inactive)
REMARK    1  A    between atoms: C_1  and  C_2
REMARK    2  A    between atoms: C_2  and  C_3
REMARK    3  A    between atoms: C_3  and  C_4
REMARK    4  A    between atoms: C_4  and  C_5
REMARK    5  A    between atoms: C_5  and  C_6
REMARK    6  A    between atoms: C_6  and  C_8
REMARK    7  A    between atoms: C_11  and  O_12
REMARK    8  A    between atoms: O_12  and  C_13
REMARK    9  A    between atoms: C_13  and  C_14
REMARK   10  A    between atoms: C_14  and  C_15
REMARK   11  A    between atoms: C_15  and  N_16
REMARK   12  A    between atoms: C_20  and  C_22
REMARK   13  A    between atoms: C_22  and  N_23
REMARK   14  A    between atoms: C_22  and  C_24
REMARK   15  A    between atoms: C_24  and  C_25
REMARK                            x       y       z     vdW  Elec       q    Type
REMARK                         _______ _______ _______ _____ _____    ______ ____
ROOT
ATOM      1  N   UNL     1      -1.736  10.615  17.001  0.00  0.00    +0.000 NA
ATOM      2  C   UNL     1      -3.038   9.987  16.663  0.00  0.00    +0.000 C 
ATOM      3  C   UNL     1      -3.988   9.854  17.866  0.00  0.00    +0.000 C 
ATOM      4  N   UNL     1      -4.231  11.176  18.451  0.00  0.00    +0.000 N 
ATOM      5  C   UNL     1      -5.528  11.666  18.459  0.00  0.00    +0.000 C 
ATOM      6  O   UNL     1      -6.461  11.010  17.987  0.00  0.00    +0.000 OA
ATOM      7  C   UNL     1      -3.006  11.898  18.820  0.00  0.00    +0.000 C 
ATOM      8  C   UNL     1      -1.993  11.926  17.647  0.00  0.00    +0.000 C 
ENDROOT
BRANCH   1   9
ATOM      9  C   UNL     1      -0.878   9.768  17.848  0.00  0.00    +0.000 C 
BRANCH   9  10
ATOM     10  C   UNL     1       0.259  10.514  18.543  0.00  0.00    +0.000 C 
BRANCH  10  11
ATOM     11  C   UNL     1       1.240   9.580  19.239  0.00  0.00    +0.000 C 
BRANCH  11  12
ATOM     12  O   UNL     1       2.134   9.112  18.232  0.00  0.00    +0.000 OA
BRANCH  12  16
ATOM     13  C   UNL     1       3.899   5.356  18.559  0.00  0.00    +0.000 A 
ATOM     14  C   UNL     1       4.105   6.189  17.455  0.00  0.00    +0.000 A 
ATOM     15  C   UNL     1       3.482   7.433  17.387  0.00  0.00    +0.000 A 
ATOM     16  C   UNL     1       2.646   7.863  18.415  0.00  0.00    +0.000 A 
ATOM     17  C   UNL     1       2.444   7.051  19.530  0.00  0.00    +0.000 A 
ATOM     18  C   UNL     1       3.068   5.799  19.599  0.00  0.00    +0.000 A 
BRANCH  13  19
ATOM     19  C   UNL     1       4.540   4.012  18.669  0.00  0.00    +0.000 C 
ATOM     20  O   UNL     1       5.621   3.903  19.244  0.00  0.00    +0.000 OA
BRANCH  19  21
ATOM     21  C   UNL     1       3.846   2.827  18.020  0.00  0.00    +0.000 C 
BRANCH  21  22
ATOM     22  C   UNL     1       3.261   1.866  19.046  0.00  0.00    +0.000 C 
BRANCH  22  23
ATOM     23  C   UNL     1       1.751   1.744  18.857  0.00  0.00    +0.000 C 
BRANCH  23  25
ATOM     24  C   UNL     1       1.109   2.941  20.972  0.00  0.00    +0.000 C 
ATOM     25  C   UNL     1       1.025   2.944  19.455  0.00  0.00    +0.000 C 
ENDBRANCH  23  25
ENDBRANCH  22  23
ENDBRANCH  21  22
ENDBRANCH  19  21
ENDBRANCH  13  19
ENDBRANCH  12  16
ENDBRANCH  11  12
ENDBRANCH  10  11
ENDBRANCH   9  10
ENDBRANCH   1   9
BRANCH   5  26
ATOM     26  C   UNL     1      -5.780  13.100  18.982  0.00  0.00    +0.000 C 
BRANCH  26  27
ATOM     27  N   UNL     1      -6.765  13.750  18.084  0.00  0.00    +0.000 NA
ATOM     28  H   UNL     1      -6.516  13.515  17.121  0.00  0.00    +0.000 HD
ATOM     29  H   UNL     1      -6.678  14.760  18.149  0.00  0.00    +0.000 HD
ENDBRANCH  26  27
BRANCH  26  30
ATOM     30  C   UNL     1      -6.299  13.016  20.435  0.00  0.00    +0.000 C 
BRANCH  30  31
ATOM     31  C   UNL     1      -5.308  13.503  21.468  0.00  0.00    +0.000 A 
ATOM     32  C   UNL     1      -5.078  12.753  22.627  0.00  0.00    +0.000 A 
ATOM     33  C   UNL     1      -4.189  13.243  23.569  0.00  0.00    +0.000 A 
ATOM     34  N   UNL     1      -3.519  14.406  23.441  0.00  0.00    +0.000 NA
ATOM     35  C   UNL     1      -3.755  15.113  22.314  0.00  0.00    +0.000 A 
ATOM     36  C   UNL     1      -4.630  14.709  21.313  0.00  0.00    +0.000 A 
ENDBRANCH  30  31
ENDBRANCH  26  30
ENDBRANCH   5  26
TORSDOF 14
ENDMDL
MODEL 6
REMARK VINA RESULT:      -6.8      1.775      2.197
REMARK  Name = 
REMARK  15 active torsions:
REMARK  status: ('A' for Active; 'I' for Inactive)
REMARK    1  A    between atoms: C_1  and  C_2
REMARK    2  A    between atoms: C_2  and  C_3
REMARK    3  A    between atoms: C_3  and  C_4
REMARK    4  A    between atoms: C_4  and  C_5
REMARK    5  A    between atoms: C_5  and  C_6
REMARK    6  A    between atoms: C_6  and  C_8
REMARK    7  A    between atoms: C_11  and  O_12
REMARK    8  A    between atoms: O_12  and  C_13
REMARK    9  A    between atoms: C_13  and  C_14
REMARK   10  A    between atoms: C_14  and  C_15
REMARK   11  A    between atoms: C_15  and  N_16
REMARK   12  A    between atoms: C_20  and  C_22
REMARK   13  A    between atoms: C_22  and  N_23
REMARK   14  A    between atoms: C_22  and  C_24
REMARK   15  A    between atoms: C_24  and  C_25
REMARK                            x       y       z     vdW  Elec       q    Type
REMARK                         _______ _______ _______ _____ _____    ______ ____
ROOT
ATOM      1  N   UNL     1       7.284   5.961  17.006  0.00  0.00    +0.000 NA
ATOM      2  C   UNL     1       7.342   4.623  17.646  0.00  0.00    +0.000 C 
ATOM      3  C   UNL     1       6.215   4.379  18.665  0.00  0.00    +0.000 C 
ATOM      4  N   UNL     1       4.914   4.540  18.010  0.00  0.00    +0.000 N 
ATOM      5  C   UNL     1       4.060   3.448  17.959  0.00  0.00    +0.000 C 
ATOM      6  O   UNL     1       4.382   2.364  18.452  0.00  0.00    +0.000 OA
ATOM      7  C   UNL     1       4.745   5.833  17.331  0.00  0.00    +0.000 C 
ATOM      8  C   UNL     1       5.942   6.139  16.396  0.00  0.00    +0.000 C 
ENDROOT
BRANCH   1   9
ATOM      9  C   UNL     1       7.596   7.067  17.927  0.00  0.00    +0.000 C 
BRANCH   9  10
ATOM     10  C   UNL     1       8.216   8.292  17.258  0.00  0.00    +0.000 C 
BRANCH  10  11
ATOM     11  C   UNL     1       8.025   9.568  18.067  0.00  0.00    +0.000 C 
BRANCH  11  12
ATOM     12  O   UNL     1       9.048   9.570  19.061  0.00  0.00    +0.000 OA
BRANCH  12  16
ATOM     13  C   UNL     1      10.809  13.312  19.535  0.00  0.00    +0.000 A 
ATOM     14  C   UNL     1      10.583  12.742  18.278  0.00  0.00    +0.000 A 
ATOM     15  C   UNL     1      10.001  11.481  18.173  0.00  0.00    +0.000 A 
ATOM     16  C   UNL     1       9.638  10.772  19.315  0.00  0.00    +0.000 A 
ATOM     17  C   UNL     1       9.842  11.333  20.574  0.00  0.00    +0.000 A 
ATOM     18  C   UNL     1      10.429  12.600  20.682  0.00  0.00    +0.000 A 
BRANCH  13  19
ATOM     19  C   UNL     1      11.438  14.657  19.694  0.00  0.00    +0.000 C 
ATOM     20  O   UNL     1      12.329  15.003  18.921  0.00  0.00    +0.000 OA
BRANCH  19  21
ATOM     21  C   UNL     1      10.979  15.537  20.844  0.00  0.00    +0.000 C 
BRANCH  21  22
ATOM     22  C   UNL     1      10.557  16.923  20.377  0.00  0.00    +0.000 C 
BRANCH  22  23
ATOM     23  C   UNL     1       9.328  16.827  19.475  0.00  0.00    +0.000 C 
BRANCH  23  25
ATOM     24  C   UNL     1       6.903  16.172  19.395  0.00  0.00    +0.000 C 
ATOM     25  C   UNL     1       8.070  16.547  20.291  0.00  0.00    +0.000 C 
ENDBRANCH  23  25
ENDBRANCH  22  23
ENDBRANCH  21  22
ENDBRANCH  19  21
ENDBRANCH  13  19
ENDBRANCH  12  16
ENDBRANCH  11  12
ENDBRANCH  10  11
ENDBRANCH   9  10
ENDBRANCH   1   9
BRANCH   5  26
ATOM     26  C   UNL     1       2.729   3.578  17.182  0.00  0.00    +0.000 C 
BRANCH  26  27
ATOM     27  N   UNL     1       2.288   2.216  16.794  0.00  0.00    +0.000 NA
ATOM     28  H   UNL     1       1.514   1.951  17.407  0.00  0.00    +0.000 HD
ATOM     29  H   UNL     1       3.028   1.547  16.984  0.00  0.00    +0.000 HD
ENDBRANCH  26  27
BRANCH  26  30
ATOM     30  C   UNL     1       1.691   4.279  18.088  0.00  0.00    +0.000 C 
BRANCH  30  31
ATOM     31  C   UNL     1       1.776   3.875  19.542  0.00  0.00    +0.000 A 
ATOM     32  C   UNL     1       1.169   2.690  19.978  0.00  0.00    +0.000 A 
ATOM     33  C   UNL     1       1.237   2.365  21.322  0.00  0.00    +0.000 A 
ATOM     34  N   UNL     1       1.860   3.119  22.250  0.00  0.00    +0.000 NA
ATOM     35  C   UNL     1       2.439   4.256  21.807  0.00  0.00    +0.000 A 
ATOM     36  C   UNL     1       2.424   4.671  20.482  0.00  0.00    +0.000 A 
ENDBRANCH  30  31
ENDBRANCH  26  30
ENDBRANCH   5  26
TORSDOF 14
ENDMDL
MODEL 7
REMARK VINA RESULT:      -6.6      5.413     11.622
REMARK  Name = 
REMARK  15 active torsions:
REMARK  status: ('A' for Active; 'I' for Inactive)
REMARK    1  A    between atoms: C_1  and  C_2
REMARK    2  A    between atoms: C_2  and  C_3
REMARK    3  A    between atoms: C_3  and  C_4
REMARK    4  A    between atoms: C_4  and  C_5
REMARK    5  A    between atoms: C_5  and  C_6
REMARK    6  A    between atoms: C_6  and  C_8
REMARK    7  A    between atoms: C_11  and  O_12
REMARK    8  A    between atoms: O_12  and  C_13
REMARK    9  A    between atoms: C_13  and  C_14
REMARK   10  A    between atoms: C_14  and  C_15
REMARK   11  A    between atoms: C_15  and  N_16
REMARK   12  A    between atoms: C_20  and  C_22
REMARK   13  A    between atoms: C_22  and  N_23
REMARK   14  A    between atoms: C_22  and  C_24
REMARK   15  A    between atoms: C_24  and  C_25
REMARK                            x       y       z     vdW  Elec       q    Type
REMARK                         _______ _______ _______ _____ _____    ______ ____
ROOT
ATOM      1  N   UNL     1      -1.404  11.705  19.850  0.00  0.00    +0.000 NA
ATOM      2  C   UNL     1      -2.324  12.773  20.315  0.00  0.00    +0.000 C 
ATOM      3  C   UNL     1      -1.604  13.963  20.974  0.00  0.00    +0.000 C 
ATOM      4  N   UNL     1      -0.639  14.538  20.032  0.00  0.00    +0.000 N 
ATOM      5  C   UNL     1      -0.812  15.855  19.631  0.00  0.00    +0.000 C 
ATOM      6  O   UNL     1      -1.753  16.532  20.054  0.00  0.00    +0.000 OA
ATOM      7  C   UNL     1       0.324  13.565  19.497  0.00  0.00    +0.000 C 
ATOM      8  C   UNL     1      -0.395  12.308  18.944  0.00  0.00    +0.000 C 
ENDROOT
BRANCH   1   9
ATOM      9  C   UNL     1      -0.756  10.969  20.948  0.00  0.00    +0.000 C 
BRANCH   9  10
ATOM     10  C   UNL     1       0.441  10.122  20.523  0.00  0.00    +0.000 C 
BRANCH  10  11
ATOM     11  C   UNL     1       0.392   8.706  21.082  0.00  0.00    +0.000 C 
BRANCH  11  12
ATOM     12  O   UNL     1       1.730   8.214  21.050  0.00  0.00    +0.000 OA
BRANCH  12  16
ATOM     13  C   UNL     1       2.583   5.137  18.378  0.00  0.00    +0.000 A 
ATOM     14  C   UNL     1       2.739   6.486  18.045  0.00  0.00    +0.000 A 
ATOM     15  C   UNL     1       2.429   7.479  18.971  0.00  0.00    +0.000 A 
ATOM     16  C   UNL     1       1.958   7.143  20.238  0.00  0.00    +0.000 A 
ATOM     17  C   UNL     1       1.813   5.803  20.591  0.00  0.00    +0.000 A 
ATOM     18  C   UNL     1       2.122   4.803  19.660  0.00  0.00    +0.000 A 
BRANCH  13  19
ATOM     19  C   UNL     1       2.895   4.040  17.414  0.00  0.00    +0.000 C 
ATOM     20  O   UNL     1       2.047   3.182  17.180  0.00  0.00    +0.000 OA
BRANCH  19  21
ATOM     21  C   UNL     1       4.278   4.003  16.787  0.00  0.00    +0.000 C 
BRANCH  21  22
ATOM     22  C   UNL     1       5.379   4.296  17.797  0.00  0.00    +0.000 C 
BRANCH  22  23
ATOM     23  C   UNL     1       6.702   4.553  17.079  0.00  0.00    +0.000 C 
BRANCH  23  25
ATOM     24  C   UNL     1       6.414   7.040  17.300  0.00  0.00    +0.000 C 
ATOM     25  C   UNL     1       7.335   5.858  17.549  0.00  0.00    +0.000 C 
ENDBRANCH  23  25
ENDBRANCH  22  23
ENDBRANCH  21  22
ENDBRANCH  19  21
ENDBRANCH  13  19
ENDBRANCH  12  16
ENDBRANCH  11  12
ENDBRANCH  10  11
ENDBRANCH   9  10
ENDBRANCH   1   9
BRANCH   5  26
ATOM     26  C   UNL     1       0.141  16.439  18.562  0.00  0.00    +0.000 C 
BRANCH  26  27
ATOM     27  N   UNL     1      -0.633  17.392  17.729  0.00  0.00    +0.000 NA
ATOM     28  H   UNL     1      -1.605  17.076  17.712  0.00  0.00    +0.000 HD
ATOM     29  H   UNL     1      -0.314  17.345  16.765  0.00  0.00    +0.000 HD
ENDBRANCH  26  27
BRANCH  26  30
ATOM     30  C   UNL     1       1.324  17.133  19.275  0.00  0.00    +0.000 C 
BRANCH  30  31
ATOM     31  C   UNL     1       2.645  16.418  19.105  0.00  0.00    +0.000 A 
ATOM     32  C   UNL     1       3.011  15.908  17.853  0.00  0.00    +0.000 A 
ATOM     33  C   UNL     1       4.212  15.229  17.738  0.00  0.00    +0.000 A 
ATOM     34  N   UNL     1       5.066  15.028  18.761  0.00  0.00    +0.000 NA
ATOM     35  C   UNL     1       4.694  15.530  19.959  0.00  0.00    +0.000 A 
ATOM     36  C   UNL     1       3.510  16.221  20.178  0.00  0.00    +0.000 A 
ENDBRANCH  30  31
ENDBRANCH  26  30
ENDBRANCH   5  26
TORSDOF 14
ENDMDL
MODEL 8
REMARK VINA RESULT:      -6.6      4.194     10.966
REMARK  Name = 
REMARK  15 active torsions:
REMARK  status: ('A' for Active; 'I' for Inactive)
REMARK    1  A    between atoms: C_1  and  C_2
REMARK    2  A    between atoms: C_2  and  C_3
REMARK    3  A    between atoms: C_3  and  C_4
REMARK    4  A    between atoms: C_4  and  C_5
REMARK    5  A    between atoms: C_5  and  C_6
REMARK    6  A    between atoms: C_6  and  C_8
REMARK    7  A    between atoms: C_11  and  O_12
REMARK    8  A    between atoms: O_12  and  C_13
REMARK    9  A    between atoms: C_13  and  C_14
REMARK   10  A    between atoms: C_14  and  C_15
REMARK   11  A    between atoms: C_15  and  N_16
REMARK   12  A    between atoms: C_20  and  C_22
REMARK   13  A    between atoms: C_22  and  N_23
REMARK   14  A    between atoms: C_22  and  C_24
REMARK   15  A    between atoms: C_24  and  C_25
REMARK                            x       y       z     vdW  Elec       q    Type
REMARK                         _______ _______ _______ _____ _____    ______ ____
ROOT
ATOM      1  N   UNL     1      10.299  12.219  18.677  0.00  0.00    +0.000 NA
ATOM      2  C   UNL     1      10.180  13.641  18.266  0.00  0.00    +0.000 C 
ATOM      3  C   UNL     1       8.961  14.357  18.873  0.00  0.00    +0.000 C 
ATOM      4  N   UNL     1       9.024  14.284  20.336  0.00  0.00    +0.000 N 
ATOM      5  C   UNL     1       9.111  15.468  21.053  0.00  0.00    +0.000 C 
ATOM      6  O   UNL     1       9.135  16.561  20.480  0.00  0.00    +0.000 OA
ATOM      7  C   UNL     1       9.151  12.917  20.859  0.00  0.00    +0.000 C 
ATOM      8  C   UNL     1      10.302  12.150  20.159  0.00  0.00    +0.000 C 
ENDROOT
BRANCH   1   9
ATOM      9  C   UNL     1       9.250  11.355  18.110  0.00  0.00    +0.000 C 
BRANCH   9  10
ATOM     10  C   UNL     1       9.225   9.936  18.674  0.00  0.00    +0.000 C 
BRANCH  10  11
ATOM     11  C   UNL     1       8.197   9.045  17.990  0.00  0.00    +0.000 C 
BRANCH  11  12
ATOM     12  O   UNL     1       8.433   7.721  18.464  0.00  0.00    +0.000 OA
BRANCH  12  16
ATOM     13  C   UNL     1       5.532   4.832  17.707  0.00  0.00    +0.000 A 
ATOM     14  C   UNL     1       6.027   5.081  18.990  0.00  0.00    +0.000 A 
ATOM     15  C   UNL     1       7.007   6.051  19.190  0.00  0.00    +0.000 A 
ATOM     16  C   UNL     1       7.507   6.783  18.116  0.00  0.00    +0.000 A 
ATOM     17  C   UNL     1       7.012   6.559  16.833  0.00  0.00    +0.000 A 
ATOM     18  C   UNL     1       6.028   5.582  16.630  0.00  0.00    +0.000 A 
BRANCH  13  19
ATOM     19  C   UNL     1       4.488   3.796  17.446  0.00  0.00    +0.000 C 
ATOM     20  O   UNL     1       4.398   3.299  16.325  0.00  0.00    +0.000 OA
BRANCH  19  21
ATOM     21  C   UNL     1       3.542   3.426  18.574  0.00  0.00    +0.000 C 
BRANCH  21  22
ATOM     22  C   UNL     1       2.113   3.878  18.302  0.00  0.00    +0.000 C 
BRANCH  22  23
ATOM     23  C   UNL     1       1.132   3.080  19.158  0.00  0.00    +0.000 C 
BRANCH  23  25
ATOM     24  C   UNL     1       1.517   2.625  21.600  0.00  0.00    +0.000 C 
ATOM     25  C   UNL     1       1.055   3.644  20.572  0.00  0.00    +0.000 C 
ENDBRANCH  23  25
ENDBRANCH  22  23
ENDBRANCH  21  22
ENDBRANCH  19  21
ENDBRANCH  13  19
ENDBRANCH  12  16
ENDBRANCH  11  12
ENDBRANCH  10  11
ENDBRANCH   9  10
ENDBRANCH   1   9
BRANCH   5  26
ATOM     26  C   UNL     1       9.279  15.398  22.589  0.00  0.00    +0.000 C 
BRANCH  26  27
ATOM     27  N   UNL     1      10.116  16.548  23.012  0.00  0.00    +0.000 NA
ATOM     28  H   UNL     1      11.082  16.224  23.084  0.00  0.00    +0.000 HD
ATOM     29  H   UNL     1       9.855  16.837  23.951  0.00  0.00    +0.000 HD
ENDBRANCH  26  27
BRANCH  26  30
ATOM     30  C   UNL     1       7.880  15.437  23.246  0.00  0.00    +0.000 C 
BRANCH  30  31
ATOM     31  C   UNL     1       7.506  14.160  23.963  0.00  0.00    +0.000 A 
ATOM     32  C   UNL     1       8.506  13.285  24.405  0.00  0.00    +0.000 A 
ATOM     33  C   UNL     1       8.129  12.107  25.028  0.00  0.00    +0.000 A 
ATOM     34  N   UNL     1       6.849  11.745  25.246  0.00  0.00    +0.000 NA
ATOM     35  C   UNL     1       5.901  12.605  24.813  0.00  0.00    +0.000 A 
ATOM     36  C   UNL     1       6.176  13.807  24.174  0.00  0.00    +0.000 A 
ENDBRANCH  30  31
ENDBRANCH  26  30
ENDBRANCH   5  26
TORSDOF 14
ENDMDL
MODEL 9
REMARK VINA RESULT:      -6.6      6.529     11.043
REMARK  Name = 
REMARK  15 active torsions:
REMARK  status: ('A' for Active; 'I' for Inactive)
REMARK    1  A    between atoms: C_1  and  C_2
REMARK    2  A    between atoms: C_2  and  C_3
REMARK    3  A    between atoms: C_3  and  C_4
REMARK    4  A    between atoms: C_4  and  C_5
REMARK    5  A    between atoms: C_5  and  C_6
REMARK    6  A    between atoms: C_6  and  C_8
REMARK    7  A    between atoms: C_11  and  O_12
REMARK    8  A    between atoms: O_12  and  C_13
REMARK    9  A    between atoms: C_13  and  C_14
REMARK   10  A    between atoms: C_14  and  C_15
REMARK   11  A    between atoms: C_15  and  N_16
REMARK   12  A    between atoms: C_20  and  C_22
REMARK   13  A    between atoms: C_22  and  N_23
REMARK   14  A    between atoms: C_22  and  C_24
REMARK   15  A    between atoms: C_24  and  C_25
REMARK                            x       y       z     vdW  Elec       q    Type
REMARK                         _______ _______ _______ _____ _____    ______ ____
ROOT
ATOM      1  N   UNL     1       1.726   8.936  21.138  0.00  0.00    +0.000 NA
ATOM      2  C   UNL     1       1.264   9.961  20.169  0.00  0.00    +0.000 C 
ATOM      3  C   UNL     1      -0.254  10.209  20.210  0.00  0.00    +0.000 C 
ATOM      4  N   UNL     1      -0.651  10.614  21.562  0.00  0.00    +0.000 N 
ATOM      5  C   UNL     1      -1.217  11.868  21.735  0.00  0.00    +0.000 C 
ATOM      6  O   UNL     1      -1.387  12.629  20.779  0.00  0.00    +0.000 OA
ATOM      7  C   UNL     1      -0.238   9.673  22.612  0.00  0.00    +0.000 C 
ATOM      8  C   UNL     1       1.268   9.325  22.495  0.00  0.00    +0.000 C 
ENDROOT
BRANCH   1   9
ATOM      9  C   UNL     1       1.286   7.571  20.803  0.00  0.00    +0.000 C 
BRANCH   9  10
ATOM     10  C   UNL     1       2.194   6.838  19.817  0.00  0.00    +0.000 C 
BRANCH  10  11
ATOM     11  C   UNL     1       2.011   5.327  19.856  0.00  0.00    +0.000 C 
BRANCH  11  12
ATOM     12  O   UNL     1       3.318   4.766  19.962  0.00  0.00    +0.000 OA
BRANCH  12  16
ATOM     13  C   UNL     1       5.622   4.774  16.495  0.00  0.00    +0.000 A 
ATOM     14  C   UNL     1       5.434   5.920  17.275  0.00  0.00    +0.000 A 
ATOM     15  C   UNL     1       4.644   5.868  18.420  0.00  0.00    +0.000 A 
ATOM     16  C   UNL     1       4.030   4.678  18.804  0.00  0.00    +0.000 A 
ATOM     17  C   UNL     1       4.222   3.524  18.046  0.00  0.00    +0.000 A 
ATOM     18  C   UNL     1       5.015   3.574  16.893  0.00  0.00    +0.000 A 
BRANCH  13  19
ATOM     19  C   UNL     1       6.454   4.787  15.255  0.00  0.00    +0.000 C 
ATOM     20  O   UNL     1       7.287   5.677  15.095  0.00  0.00    +0.000 OA
BRANCH  19  21
ATOM     21  C   UNL     1       6.205   3.715  14.208  0.00  0.00    +0.000 C 
BRANCH  21  22
ATOM     22  C   UNL     1       5.270   4.191  13.105  0.00  0.00    +0.000 C 
BRANCH  22  23
ATOM     23  C   UNL     1       5.371   3.270  11.891  0.00  0.00    +0.000 C 
BRANCH  23  25
ATOM     24  C   UNL     1       3.491   3.966  10.376  0.00  0.00    +0.000 C 
ATOM     25  C   UNL     1       3.988   2.917  11.355  0.00  0.00    +0.000 C 
ENDBRANCH  23  25
ENDBRANCH  22  23
ENDBRANCH  21  22
ENDBRANCH  19  21
ENDBRANCH  13  19
ENDBRANCH  12  16
ENDBRANCH  11  12
ENDBRANCH  10  11
ENDBRANCH   9  10
ENDBRANCH   1   9
BRANCH   5  26
ATOM     26  C   UNL     1      -1.546  12.345  23.169  0.00  0.00    +0.000 C 
BRANCH  26  27
ATOM     27  N   UNL     1      -1.347  13.814  23.222  0.00  0.00    +0.000 NA
ATOM     28  H   UNL     1      -0.374  13.990  23.482  0.00  0.00    +0.000 HD
ATOM     29  H   UNL     1      -1.906  14.212  23.971  0.00  0.00    +0.000 HD
ENDBRANCH  26  27
BRANCH  26  30
ATOM     30  C   UNL     1      -3.004  11.954  23.502  0.00  0.00    +0.000 C 
BRANCH  30  31
ATOM     31  C   UNL     1      -4.020  13.012  23.136  0.00  0.00    +0.000 A 
ATOM     32  C   UNL     1      -4.582  13.031  21.854  0.00  0.00    +0.000 A 
ATOM     33  C   UNL     1      -5.485  14.033  21.539  0.00  0.00    +0.000 A 
ATOM     34  N   UNL     1      -5.867  15.000  22.396  0.00  0.00    +0.000 NA
ATOM     35  C   UNL     1      -5.313  14.962  23.627  0.00  0.00    +0.000 A 
ATOM     36  C   UNL     1      -4.397  14.003  24.038  0.00  0.00    +0.000 A 
ENDBRANCH  30  31
ENDBRANCH  26  30
ENDBRANCH   5  26
TORSDOF 14
ENDMDL
