MODEL 1
REMARK VINA RESULT:      -7.8      0.000      0.000
REMARK  Name = 
REMARK  8 active torsions:
REMARK  status: ('A' for Active; 'I' for Inactive)
REMARK    1  A    between atoms: P_2  and  O_3
REMARK    2  A    between atoms: P_2  and  O_11
REMARK    3  A    between atoms: P_2  and  SE_19
REMARK    4  A    between atoms: O_3  and  C_4
REMARK    5  A    between atoms: C_4  and  C_5
REMARK    6  A    between atoms: O_11  and  C_12
REMARK    7  A    between atoms: C_12  and  C_13
REMARK    8  A    between atoms: SE_19  and  C_20
REMARK                            x       y       z     vdW  Elec       q    Type
REMARK                         _______ _______ _______ _____ _____    ______ ____
ROOT
ATOM      1  O   UNL     1       6.865   5.663  18.085  0.00  0.00    +0.000 OA
ATOM      2  P   UNL     1       5.741   4.625  17.842  0.00  0.00    +0.000 P 
ENDROOT
BRANCH   2   3
ATOM      3  O   UNL     1       4.599   5.618  18.706  0.00  0.00    +0.000 OA
BRANCH   3   4
ATOM      4  C   UNL     1       3.746   6.217  17.758  0.00  0.00    +0.000 C 
BRANCH   4   5
ATOM      5  C   UNL     1       2.852   7.235  18.420  0.00  0.00    +0.000 A 
ATOM      6  C   UNL     1       2.439   8.412  17.762  0.00  0.00    +0.000 A 
ATOM      7  C   UNL     1       1.590   9.315  18.402  0.00  0.00    +0.000 A 
ATOM      8  C   UNL     1       1.171   9.077  19.711  0.00  0.00    +0.000 A 
ATOM      9  C   UNL     1       1.583   7.919  20.376  0.00  0.00    +0.000 A 
ATOM     10  C   UNL     1       2.406   6.995  19.729  0.00  0.00    +0.000 A 
ENDBRANCH   4   5
ENDBRANCH   3   4
ENDBRANCH   2   3
BRANCH   2  11
ATOM     11  O   UNL     1       5.378   5.355  16.243  0.00  0.00    +0.000 OA
BRANCH  11  12
ATOM     12  C   UNL     1       6.567   5.538  15.470  0.00  0.00    +0.000 C 
BRANCH  12  13
ATOM     13  C   UNL     1       6.578   4.776  14.173  0.00  0.00    +0.000 A 
ATOM     14  C   UNL     1       5.505   3.928  13.847  0.00  0.00    +0.000 A 
ATOM     15  C   UNL     1       5.467   3.301  12.599  0.00  0.00    +0.000 A 
ATOM     16  C   UNL     1       6.487   3.525  11.669  0.00  0.00    +0.000 A 
ATOM     17  C   UNL     1       7.555   4.368  11.991  0.00  0.00    +0.000 A 
ATOM     18  C   UNL     1       7.601   4.992  13.241  0.00  0.00    +0.000 A 
ENDBRANCH  12  13
ENDBRANCH  11  12
ENDBRANCH   2  11
BRANCH   2  19
ATOM     19 SE   UNL     1       4.094   3.104  17.487  0.00  0.00    +0.000 Se
BRANCH  19  20
ATOM     20  C   UNL     1       2.886   3.010  19.034  0.00  0.00    +0.000 A 
ATOM     21  C   UNL     1       3.447   2.851  20.311  0.00  0.00    +0.000 A 
ATOM     22  C   UNL     1       2.633   2.828  21.451  0.00  0.00    +0.000 A 
ATOM     23  C   UNL     1       1.249   2.961  21.333  0.00  0.00    +0.000 A 
ATOM     24  C   UNL     1       0.676   3.152  20.074  0.00  0.00    +0.000 A 
ATOM     25  C   UNL     1       1.492   3.198  18.931  0.00  0.00    +0.000 A 
ENDBRANCH  19  20
ENDBRANCH   2  19
TORSDOF 8
ENDMDL
MODEL 2
REMARK VINA RESULT:      -7.8      0.877      6.702
REMARK  Name = 
REMARK  8 active torsions:
REMARK  status: ('A' for Active; 'I' for Inactive)
REMARK    1  A    between atoms: P_2  and  O_3
REMARK    2  A    between atoms: P_2  and  O_11
REMARK    3  A    between atoms: P_2  and  SE_19
REMARK    4  A    between atoms: O_3  and  C_4
REMARK    5  A    between atoms: C_4  and  C_5
REMARK    6  A    between atoms: O_11  and  C_12
REMARK    7  A    between atoms: C_12  and  C_13
REMARK    8  A    between atoms: SE_19  and  C_20
REMARK                            x       y       z     vdW  Elec       q    Type
REMARK                         _______ _______ _______ _____ _____    ______ ____
ROOT
ATOM      1  O   UNL     1       6.828   5.285  19.484  0.00  0.00    +0.000 OA
ATOM      2  P   UNL     1       5.934   4.955  18.263  0.00  0.00    +0.000 P 
ENDROOT
BRANCH   2   3
ATOM      3  O   UNL     1       5.453   3.445  18.987  0.00  0.00    +0.000 OA
BRANCH   3   4
ATOM      4  C   UNL     1       4.238   3.050  18.392  0.00  0.00    +0.000 C 
BRANCH   4   5
ATOM      5  C   UNL     1       3.132   3.027  19.417  0.00  0.00    +0.000 A 
ATOM      6  C   UNL     1       1.806   3.389  19.098  0.00  0.00    +0.000 A 
ATOM      7  C   UNL     1       0.807   3.329  20.069  0.00  0.00    +0.000 A 
ATOM      8  C   UNL     1       1.119   2.943  21.373  0.00  0.00    +0.000 A 
ATOM      9  C   UNL     1       2.431   2.594  21.702  0.00  0.00    +0.000 A 
ATOM     10  C   UNL     1       3.430   2.620  20.726  0.00  0.00    +0.000 A 
ENDBRANCH   4   5
ENDBRANCH   3   4
ENDBRANCH   2   3
BRANCH   2  11
ATOM     11  O   UNL     1       4.576   5.889  18.972  0.00  0.00    +0.000 OA
BRANCH  11  12
ATOM     12  C   UNL     1       3.753   6.469  17.956  0.00  0.00    +0.000 C 
BRANCH  12  13
ATOM     13  C   UNL     1       2.735   7.447  18.475  0.00  0.00    +0.000 A 
ATOM     14  C   UNL     1       2.228   7.308  19.779  0.00  0.00    +0.000 A 
ATOM     15  C   UNL     1       1.361   8.273  20.296  0.00  0.00    +0.000 A 
ATOM     16  C   UNL     1       1.007   9.385  19.524  0.00  0.00    +0.000 A 
ATOM     17  C   UNL     1       1.511   9.526  18.228  0.00  0.00    +0.000 A 
ATOM     18  C   UNL     1       2.373   8.558  17.704  0.00  0.00    +0.000 A 
ENDBRANCH  12  13
ENDBRANCH  11  12
ENDBRANCH   2  11
BRANCH   2  19
ATOM     19 SE   UNL     1       4.625   4.471  16.473  0.00  0.00    +0.000 Se
BRANCH  19  20
ATOM     20  C   UNL     1       5.685   4.454  14.818  0.00  0.00    +0.000 A 
ATOM     21  C   UNL     1       6.902   5.154  14.797  0.00  0.00    +0.000 A 
ATOM     22  C   UNL     1       7.718   5.131  13.658  0.00  0.00    +0.000 A 
ATOM     23  C   UNL     1       7.332   4.414  12.526  0.00  0.00    +0.000 A 
ATOM     24  C   UNL     1       6.141   3.686  12.539  0.00  0.00    +0.000 A 
ATOM     25  C   UNL     1       5.330   3.688  13.688  0.00  0.00    +0.000 A 
ENDBRANCH  19  20
ENDBRANCH   2  19
TORSDOF 8
ENDMDL
MODEL 3
REMARK VINA RESULT:      -7.7      1.033      6.605
REMARK  Name = 
REMARK  8 active torsions:
REMARK  status: ('A' for Active; 'I' for Inactive)
REMARK    1  A    between atoms: P_2  and  O_3
REMARK    2  A    between atoms: P_2  and  O_11
REMARK    3  A    between atoms: P_2  and  SE_19
REMARK    4  A    between atoms: O_3  and  C_4
REMARK    5  A    between atoms: C_4  and  C_5
REMARK    6  A    between atoms: O_11  and  C_12
REMARK    7  A    between atoms: C_12  and  C_13
REMARK    8  A    between atoms: SE_19  and  C_20
REMARK                            x       y       z     vdW  Elec       q    Type
REMARK                         _______ _______ _______ _____ _____    ______ ____
ROOT
ATOM      1  O   UNL     1       7.626   5.100  19.048  0.00  0.00    +0.000 OA
ATOM      2  P   UNL     1       6.312   5.415  18.291  0.00  0.00    +0.000 P 
ENDROOT
BRANCH   2   3
ATOM      3  O   UNL     1       6.869   4.530  16.897  0.00  0.00    +0.000 OA
BRANCH   3   4
ATOM      4  C   UNL     1       7.134   5.463  15.874  0.00  0.00    +0.000 C 
BRANCH   4   5
ATOM      5  C   UNL     1       6.888   4.844  14.521  0.00  0.00    +0.000 A 
ATOM      6  C   UNL     1       7.716   5.115  13.411  0.00  0.00    +0.000 A 
ATOM      7  C   UNL     1       7.469   4.502  12.183  0.00  0.00    +0.000 A 
ATOM      8  C   UNL     1       6.381   3.642  12.034  0.00  0.00    +0.000 A 
ATOM      9  C   UNL     1       5.548   3.375  13.125  0.00  0.00    +0.000 A 
ATOM     10  C   UNL     1       5.809   3.960  14.366  0.00  0.00    +0.000 A 
ENDBRANCH   4   5
ENDBRANCH   3   4
ENDBRANCH   2   3
BRANCH   2  11
ATOM     11  O   UNL     1       5.509   3.997  19.044  0.00  0.00    +0.000 OA
BRANCH  11  12
ATOM     12  C   UNL     1       4.508   3.445  18.184  0.00  0.00    +0.000 C 
BRANCH  12  13
ATOM     13  C   UNL     1       3.178   3.228  18.853  0.00  0.00    +0.000 A 
ATOM     14  C   UNL     1       2.001   3.206  18.085  0.00  0.00    +0.000 A 
ATOM     15  C   UNL     1       0.780   2.903  18.691  0.00  0.00    +0.000 A 
ATOM     16  C   UNL     1       0.728   2.607  20.057  0.00  0.00    +0.000 A 
ATOM     17  C   UNL     1       1.897   2.627  20.822  0.00  0.00    +0.000 A 
ATOM     18  C   UNL     1       3.121   2.938  20.221  0.00  0.00    +0.000 A 
ENDBRANCH  12  13
ENDBRANCH  11  12
ENDBRANCH   2  11
BRANCH   2  19
ATOM     19 SE   UNL     1       4.386   5.877  17.182  0.00  0.00    +0.000 Se
BRANCH  19  20
ATOM     20  C   UNL     1       3.197   6.988  18.284  0.00  0.00    +0.000 A 
ATOM     21  C   UNL     1       2.699   8.180  17.735  0.00  0.00    +0.000 A 
ATOM     22  C   UNL     1       1.808   8.982  18.461  0.00  0.00    +0.000 A 
ATOM     23  C   UNL     1       1.405   8.609  19.743  0.00  0.00    +0.000 A 
ATOM     24  C   UNL     1       1.865   7.411  20.293  0.00  0.00    +0.000 A 
ATOM     25  C   UNL     1       2.741   6.592  19.559  0.00  0.00    +0.000 A 
ENDBRANCH  19  20
ENDBRANCH   2  19
TORSDOF 8
ENDMDL
MODEL 4
REMARK VINA RESULT:      -7.7      0.936      6.654
REMARK  Name = 
REMARK  8 active torsions:
REMARK  status: ('A' for Active; 'I' for Inactive)
REMARK    1  A    between atoms: P_2  and  O_3
REMARK    2  A    between atoms: P_2  and  O_11
REMARK    3  A    between atoms: P_2  and  SE_19
REMARK    4  A    between atoms: O_3  and  C_4
REMARK    5  A    between atoms: C_4  and  C_5
REMARK    6  A    between atoms: O_11  and  C_12
REMARK    7  A    between atoms: C_12  and  C_13
REMARK    8  A    between atoms: SE_19  and  C_20
REMARK                            x       y       z     vdW  Elec       q    Type
REMARK                         _______ _______ _______ _____ _____    ______ ____
ROOT
ATOM      1  O   UNL     1       7.441   5.096  18.918  0.00  0.00    +0.000 OA
ATOM      2  P   UNL     1       6.429   4.852  17.771  0.00  0.00    +0.000 P 
ENDROOT
BRANCH   2   3
ATOM      3  O   UNL     1       5.487   3.797  18.788  0.00  0.00    +0.000 OA
BRANCH   3   4
ATOM      4  C   UNL     1       4.394   3.331  18.030  0.00  0.00    +0.000 C 
BRANCH   4   5
ATOM      5  C   UNL     1       3.162   3.223  18.892  0.00  0.00    +0.000 A 
ATOM      6  C   UNL     1       3.204   3.425  20.288  0.00  0.00    +0.000 A 
ATOM      7  C   UNL     1       2.036   3.341  21.046  0.00  0.00    +0.000 A 
ATOM      8  C   UNL     1       0.824   3.023  20.434  0.00  0.00    +0.000 A 
ATOM      9  C   UNL     1       0.774   2.810  19.053  0.00  0.00    +0.000 A 
ATOM     10  C   UNL     1       1.934   2.925  18.284  0.00  0.00    +0.000 A 
ENDBRANCH   4   5
ENDBRANCH   3   4
ENDBRANCH   2   3
BRANCH   2  11
ATOM     11  O   UNL     1       5.520   6.332  18.225  0.00  0.00    +0.000 OA
BRANCH  11  12
ATOM     12  C   UNL     1       4.305   6.448  17.479  0.00  0.00    +0.000 C 
BRANCH  12  13
ATOM     13  C   UNL     1       3.204   7.168  18.208  0.00  0.00    +0.000 A 
ATOM     14  C   UNL     1       2.789   6.719  19.474  0.00  0.00    +0.000 A 
ATOM     15  C   UNL     1       1.839   7.447  20.194  0.00  0.00    +0.000 A 
ATOM     16  C   UNL     1       1.311   8.629  19.665  0.00  0.00    +0.000 A 
ATOM     17  C   UNL     1       1.724   9.078  18.407  0.00  0.00    +0.000 A 
ATOM     18  C   UNL     1       2.668   8.349  17.680  0.00  0.00    +0.000 A 
ENDBRANCH  12  13
ENDBRANCH  11  12
ENDBRANCH   2  11
BRANCH   2  19
ATOM     19 SE   UNL     1       4.946   4.495  16.090  0.00  0.00    +0.000 Se
BRANCH  19  20
ATOM     20  C   UNL     1       5.870   4.379  14.359  0.00  0.00    +0.000 A 
ATOM     21  C   UNL     1       7.027   5.150  14.166  0.00  0.00    +0.000 A 
ATOM     22  C   UNL     1       7.749   5.065  12.968  0.00  0.00    +0.000 A 
ATOM     23  C   UNL     1       7.327   4.214  11.946  0.00  0.00    +0.000 A 
ATOM     24  C   UNL     1       6.196   3.416  12.133  0.00  0.00    +0.000 A 
ATOM     25  C   UNL     1       5.481   3.482  13.341  0.00  0.00    +0.000 A 
ENDBRANCH  19  20
ENDBRANCH   2  19
TORSDOF 8
ENDMDL
MODEL 5
REMARK VINA RESULT:      -7.6      0.839      6.729
REMARK  Name = 
REMARK  8 active torsions:
REMARK  status: ('A' for Active; 'I' for Inactive)
REMARK    1  A    between atoms: P_2  and  O_3
REMARK    2  A    between atoms: P_2  and  O_11
REMARK    3  A    between atoms: P_2  and  SE_19
REMARK    4  A    between atoms: O_3  and  C_4
REMARK    5  A    between atoms: C_4  and  C_5
REMARK    6  A    between atoms: O_11  and  C_12
REMARK    7  A    between atoms: C_12  and  C_13
REMARK    8  A    between atoms: SE_19  and  C_20
REMARK                            x       y       z     vdW  Elec       q    Type
REMARK                         _______ _______ _______ _____ _____    ______ ____
ROOT
ATOM      1  O   UNL     1       6.992   4.872  19.212  0.00  0.00    +0.000 OA
ATOM      2  P   UNL     1       6.041   4.675  18.005  0.00  0.00    +0.000 P 
ENDROOT
BRANCH   2   3
ATOM      3  O   UNL     1       5.416   3.205  18.702  0.00  0.00    +0.000 OA
BRANCH   3   4
ATOM      4  C   UNL     1       4.140   2.976  18.150  0.00  0.00    +0.000 C 
BRANCH   4   5
ATOM      5  C   UNL     1       3.088   2.998  19.230  0.00  0.00    +0.000 A 
ATOM      6  C   UNL     1       3.378   2.654  20.567  0.00  0.00    +0.000 A 
ATOM      7  C   UNL     1       2.382   2.712  21.541  0.00  0.00    +0.000 A 
ATOM      8  C   UNL     1       1.081   3.079  21.193  0.00  0.00    +0.000 A 
ATOM      9  C   UNL     1       0.780   3.410  19.869  0.00  0.00    +0.000 A 
ATOM     10  C   UNL     1       1.781   3.386  18.895  0.00  0.00    +0.000 A 
ENDBRANCH   4   5
ENDBRANCH   3   4
ENDBRANCH   2   3
BRANCH   2  11
ATOM     11  O   UNL     1       4.807   5.728  18.774  0.00  0.00    +0.000 OA
BRANCH  11  12
ATOM     12  C   UNL     1       4.009   6.399  17.794  0.00  0.00    +0.000 C 
BRANCH  12  13
ATOM     13  C   UNL     1       3.044   7.399  18.370  0.00  0.00    +0.000 A 
ATOM     14  C   UNL     1       2.615   8.490  17.594  0.00  0.00    +0.000 A 
ATOM     15  C   UNL     1       1.643   9.360  18.092  0.00  0.00    +0.000 A 
ATOM     16  C   UNL     1       1.085   9.140  19.356  0.00  0.00    +0.000 A 
ATOM     17  C   UNL     1       1.509   8.056  20.129  0.00  0.00    +0.000 A 
ATOM     18  C   UNL     1       2.487   7.187  19.637  0.00  0.00    +0.000 A 
ENDBRANCH  12  13
ENDBRANCH  11  12
ENDBRANCH   2  11
BRANCH   2  19
ATOM     19 SE   UNL     1       4.647   4.386  16.237  0.00  0.00    +0.000 Se
BRANCH  19  20
ATOM     20  C   UNL     1       5.658   4.344  14.552  0.00  0.00    +0.000 A 
ATOM     21  C   UNL     1       6.841   5.095  14.464  0.00  0.00    +0.000 A 
ATOM     22  C   UNL     1       7.624   5.059  13.303  0.00  0.00    +0.000 A 
ATOM     23  C   UNL     1       7.238   4.278  12.213  0.00  0.00    +0.000 A 
ATOM     24  C   UNL     1       6.081   3.501  12.294  0.00  0.00    +0.000 A 
ATOM     25  C   UNL     1       5.304   3.517  13.466  0.00  0.00    +0.000 A 
ENDBRANCH  19  20
ENDBRANCH   2  19
TORSDOF 8
ENDMDL
MODEL 6
REMARK VINA RESULT:      -7.6      0.791      1.807
REMARK  Name = 
REMARK  8 active torsions:
REMARK  status: ('A' for Active; 'I' for Inactive)
REMARK    1  A    between atoms: P_2  and  O_3
REMARK    2  A    between atoms: P_2  and  O_11
REMARK    3  A    between atoms: P_2  and  SE_19
REMARK    4  A    between atoms: O_3  and  C_4
REMARK    5  A    between atoms: C_4  and  C_5
REMARK    6  A    between atoms: O_11  and  C_12
REMARK    7  A    between atoms: C_12  and  C_13
REMARK    8  A    between atoms: SE_19  and  C_20
REMARK                            x       y       z     vdW  Elec       q    Type
REMARK                         _______ _______ _______ _____ _____    ______ ____
ROOT
ATOM      1  O   UNL     1       7.012   6.248  18.769  0.00  0.00    +0.000 OA
ATOM      2  P   UNL     1       5.839   5.409  18.203  0.00  0.00    +0.000 P 
ENDROOT
BRANCH   2   3
ATOM      3  O   UNL     1       5.016   6.855  17.686  0.00  0.00    +0.000 OA
BRANCH   3   4
ATOM      4  C   UNL     1       3.660   6.529  17.483  0.00  0.00    +0.000 C 
BRANCH   4   5
ATOM      5  C   UNL     1       2.772   7.439  18.294  0.00  0.00    +0.000 A 
ATOM      6  C   UNL     1       2.438   7.161  19.636  0.00  0.00    +0.000 A 
ATOM      7  C   UNL     1       1.635   8.042  20.359  0.00  0.00    +0.000 A 
ATOM      8  C   UNL     1       1.128   9.189  19.749  0.00  0.00    +0.000 A 
ATOM      9  C   UNL     1       1.443   9.469  18.417  0.00  0.00    +0.000 A 
ATOM     10  C   UNL     1       2.274   8.608  17.697  0.00  0.00    +0.000 A 
ENDBRANCH   4   5
ENDBRANCH   3   4
ENDBRANCH   2   3
BRANCH   2  11
ATOM     11  O   UNL     1       6.714   5.184  16.652  0.00  0.00    +0.000 OA
BRANCH  11  12
ATOM     12  C   UNL     1       6.119   4.152  15.861  0.00  0.00    +0.000 C 
BRANCH  12  13
ATOM     13  C   UNL     1       6.430   4.249  14.393  0.00  0.00    +0.000 A 
ATOM     14  C   UNL     1       7.427   5.132  13.942  0.00  0.00    +0.000 A 
ATOM     15  C   UNL     1       7.786   5.148  12.593  0.00  0.00    +0.000 A 
ATOM     16  C   UNL     1       7.165   4.277  11.691  0.00  0.00    +0.000 A 
ATOM     17  C   UNL     1       6.175   3.398  12.137  0.00  0.00    +0.000 A 
ATOM     18  C   UNL     1       5.807   3.384  13.485  0.00  0.00    +0.000 A 
ENDBRANCH  12  13
ENDBRANCH  11  12
ENDBRANCH   2  11
BRANCH   2  19
ATOM     19 SE   UNL     1       4.120   4.179  17.375  0.00  0.00    +0.000 Se
BRANCH  19  20
ATOM     20  C   UNL     1       2.887   3.648  18.811  0.00  0.00    +0.000 A 
ATOM     21  C   UNL     1       1.636   3.121  18.456  0.00  0.00    +0.000 A 
ATOM     22  C   UNL     1       0.742   2.681  19.440  0.00  0.00    +0.000 A 
ATOM     23  C   UNL     1       1.080   2.765  20.791  0.00  0.00    +0.000 A 
ATOM     24  C   UNL     1       2.333   3.258  21.162  0.00  0.00    +0.000 A 
ATOM     25  C   UNL     1       3.242   3.679  20.176  0.00  0.00    +0.000 A 
ENDBRANCH  19  20
ENDBRANCH   2  19
TORSDOF 8
ENDMDL
MODEL 7
REMARK VINA RESULT:      -7.6      1.089      1.835
REMARK  Name = 
REMARK  8 active torsions:
REMARK  status: ('A' for Active; 'I' for Inactive)
REMARK    1  A    between atoms: P_2  and  O_3
REMARK    2  A    between atoms: P_2  and  O_11
REMARK    3  A    between atoms: P_2  and  SE_19
REMARK    4  A    between atoms: O_3  and  C_4
REMARK    5  A    between atoms: C_4  and  C_5
REMARK    6  A    between atoms: O_11  and  C_12
REMARK    7  A    between atoms: C_12  and  C_13
REMARK    8  A    between atoms: SE_19  and  C_20
REMARK                            x       y       z     vdW  Elec       q    Type
REMARK                         _______ _______ _______ _____ _____    ______ ____
ROOT
ATOM      1  O   UNL     1       5.383   7.192  16.936  0.00  0.00    +0.000 OA
ATOM      2  P   UNL     1       5.265   5.856  17.712  0.00  0.00    +0.000 P 
ENDROOT
BRANCH   2   3
ATOM      3  O   UNL     1       3.676   6.294  18.278  0.00  0.00    +0.000 OA
BRANCH   3   4
ATOM      4  C   UNL     1       3.320   7.511  17.662  0.00  0.00    +0.000 C 
BRANCH   4   5
ATOM      5  C   UNL     1       2.296   8.242  18.493  0.00  0.00    +0.000 A 
ATOM      6  C   UNL     1       1.993   7.860  19.817  0.00  0.00    +0.000 A 
ATOM      7  C   UNL     1       1.058   8.580  20.561  0.00  0.00    +0.000 A 
ATOM      8  C   UNL     1       0.391   9.663  19.989  0.00  0.00    +0.000 A 
ATOM      9  C   UNL     1       0.676  10.043  18.674  0.00  0.00    +0.000 A 
ATOM     10  C   UNL     1       1.635   9.347  17.935  0.00  0.00    +0.000 A 
ENDBRANCH   4   5
ENDBRANCH   3   4
ENDBRANCH   2   3
BRANCH   2  11
ATOM     11  O   UNL     1       4.663   5.025  16.239  0.00  0.00    +0.000 OA
BRANCH  11  12
ATOM     12  C   UNL     1       5.555   3.987  15.823  0.00  0.00    +0.000 C 
BRANCH  12  13
ATOM     13  C   UNL     1       6.106   4.172  14.436  0.00  0.00    +0.000 A 
ATOM     14  C   UNL     1       7.203   5.026  14.223  0.00  0.00    +0.000 A 
ATOM     15  C   UNL     1       7.778   5.118  12.954  0.00  0.00    +0.000 A 
ATOM     16  C   UNL     1       7.274   4.352  11.897  0.00  0.00    +0.000 A 
ATOM     17  C   UNL     1       6.185   3.501  12.107  0.00  0.00    +0.000 A 
ATOM     18  C   UNL     1       5.602   3.412  13.374  0.00  0.00    +0.000 A 
ENDBRANCH  12  13
ENDBRANCH  11  12
ENDBRANCH   2  11
BRANCH   2  19
ATOM     19 SE   UNL     1       5.091   3.899  18.848  0.00  0.00    +0.000 Se
BRANCH  19  20
ATOM     20  C   UNL     1       3.217   3.518  19.297  0.00  0.00    +0.000 A 
ATOM     21  C   UNL     1       2.688   4.065  20.477  0.00  0.00    +0.000 A 
ATOM     22  C   UNL     1       1.343   3.864  20.816  0.00  0.00    +0.000 A 
ATOM     23  C   UNL     1       0.509   3.113  19.987  0.00  0.00    +0.000 A 
ATOM     24  C   UNL     1       1.010   2.588  18.794  0.00  0.00    +0.000 A 
ATOM     25  C   UNL     1       2.352   2.806  18.439  0.00  0.00    +0.000 A 
ENDBRANCH  19  20
ENDBRANCH   2  19
TORSDOF 8
ENDMDL
MODEL 8
REMARK VINA RESULT:      -7.6      1.184      6.514
REMARK  Name = 
REMARK  8 active torsions:
REMARK  status: ('A' for Active; 'I' for Inactive)
REMARK    1  A    between atoms: P_2  and  O_3
REMARK    2  A    between atoms: P_2  and  O_11
REMARK    3  A    between atoms: P_2  and  SE_19
REMARK    4  A    between atoms: O_3  and  C_4
REMARK    5  A    between atoms: C_4  and  C_5
REMARK    6  A    between atoms: O_11  and  C_12
REMARK    7  A    between atoms: C_12  and  C_13
REMARK    8  A    between atoms: SE_19  and  C_20
REMARK                            x       y       z     vdW  Elec       q    Type
REMARK                         _______ _______ _______ _____ _____    ______ ____
ROOT
ATOM      1  O   UNL     1       7.638   5.394  19.058  0.00  0.00    +0.000 OA
ATOM      2  P   UNL     1       6.364   5.691  18.230  0.00  0.00    +0.000 P 
ENDROOT
BRANCH   2   3
ATOM      3  O   UNL     1       7.212   5.345  16.747  0.00  0.00    +0.000 OA
BRANCH   3   4
ATOM      4  C   UNL     1       6.532   4.296  16.098  0.00  0.00    +0.000 C 
BRANCH   4   5
ATOM      5  C   UNL     1       6.753   4.367  14.608  0.00  0.00    +0.000 A 
ATOM      6  C   UNL     1       7.685   5.255  14.029  0.00  0.00    +0.000 A 
ATOM      7  C   UNL     1       7.877   5.272  12.648  0.00  0.00    +0.000 A 
ATOM      8  C   UNL     1       7.124   4.434  11.825  0.00  0.00    +0.000 A 
ATOM      9  C   UNL     1       6.189   3.560  12.387  0.00  0.00    +0.000 A 
ATOM     10  C   UNL     1       6.016   3.514  13.772  0.00  0.00    +0.000 A 
ENDBRANCH   4   5
ENDBRANCH   3   4
ENDBRANCH   2   3
BRANCH   2  11
ATOM     11  O   UNL     1       5.791   4.006  18.459  0.00  0.00    +0.000 OA
BRANCH  11  12
ATOM     12  C   UNL     1       5.032   3.870  19.663  0.00  0.00    +0.000 C 
BRANCH  12  13
ATOM     13  C   UNL     1       3.663   3.280  19.463  0.00  0.00    +0.000 A 
ATOM     14  C   UNL     1       2.758   3.222  20.537  0.00  0.00    +0.000 A 
ATOM     15  C   UNL     1       1.454   2.768  20.326  0.00  0.00    +0.000 A 
ATOM     16  C   UNL     1       1.043   2.384  19.045  0.00  0.00    +0.000 A 
ATOM     17  C   UNL     1       1.941   2.442  17.975  0.00  0.00    +0.000 A 
ATOM     18  C   UNL     1       3.249   2.888  18.184  0.00  0.00    +0.000 A 
ENDBRANCH  12  13
ENDBRANCH  11  12
ENDBRANCH   2  11
BRANCH   2  19
ATOM     19 SE   UNL     1       4.496   6.127  17.016  0.00  0.00    +0.000 Se
BRANCH  19  20
ATOM     20  C   UNL     1       3.193   7.142  18.081  0.00  0.00    +0.000 A 
ATOM     21  C   UNL     1       2.862   6.668  19.360  0.00  0.00    +0.000 A 
ATOM     22  C   UNL     1       1.977   7.382  20.179  0.00  0.00    +0.000 A 
ATOM     23  C   UNL     1       1.408   8.575  19.733  0.00  0.00    +0.000 A 
ATOM     24  C   UNL     1       1.749   9.078  18.476  0.00  0.00    +0.000 A 
ATOM     25  C   UNL     1       2.654   8.376  17.661  0.00  0.00    +0.000 A 
ENDBRANCH  19  20
ENDBRANCH   2  19
TORSDOF 8
ENDMDL
MODEL 9
REMARK VINA RESULT:      -7.5      0.995      6.944
REMARK  Name = 
REMARK  8 active torsions:
REMARK  status: ('A' for Active; 'I' for Inactive)
REMARK    1  A    between atoms: P_2  and  O_3
REMARK    2  A    between atoms: P_2  and  O_11
REMARK    3  A    between atoms: P_2  and  SE_19
REMARK    4  A    between atoms: O_3  and  C_4
REMARK    5  A    between atoms: C_4  and  C_5
REMARK    6  A    between atoms: O_11  and  C_12
REMARK    7  A    between atoms: C_12  and  C_13
REMARK    8  A    between atoms: SE_19  and  C_20
REMARK                            x       y       z     vdW  Elec       q    Type
REMARK                         _______ _______ _______ _____ _____    ______ ____
ROOT
ATOM      1  O   UNL     1       6.845   4.794  18.969  0.00  0.00    +0.000 OA
ATOM      2  P   UNL     1       5.568   5.307  18.257  0.00  0.00    +0.000 P 
ENDROOT
BRANCH   2   3
ATOM      3  O   UNL     1       6.371   5.248  16.712  0.00  0.00    +0.000 OA
BRANCH   3   4
ATOM      4  C   UNL     1       5.527   4.564  15.815  0.00  0.00    +0.000 C 
BRANCH   4   5
ATOM      5  C   UNL     1       6.171   4.467  14.455  0.00  0.00    +0.000 A 
ATOM      6  C   UNL     1       5.679   3.607  13.451  0.00  0.00    +0.000 A 
ATOM      7  C   UNL     1       6.288   3.566  12.197  0.00  0.00    +0.000 A 
ATOM      8  C   UNL     1       7.411   4.352  11.937  0.00  0.00    +0.000 A 
ATOM      9  C   UNL     1       7.914   5.200  12.929  0.00  0.00    +0.000 A 
ATOM     10  C   UNL     1       7.288   5.269  14.176  0.00  0.00    +0.000 A 
ENDBRANCH   4   5
ENDBRANCH   3   4
ENDBRANCH   2   3
BRANCH   2  11
ATOM     11  O   UNL     1       4.928   3.634  18.145  0.00  0.00    +0.000 OA
BRANCH  11  12
ATOM     12  C   UNL     1       3.509   3.629  17.963  0.00  0.00    +0.000 C 
BRANCH  12  13
ATOM     13  C   UNL     1       2.733   3.277  19.203  0.00  0.00    +0.000 A 
ATOM     14  C   UNL     1       3.394   2.722  20.312  0.00  0.00    +0.000 A 
ATOM     15  C   UNL     1       2.693   2.491  21.497  0.00  0.00    +0.000 A 
ATOM     16  C   UNL     1       1.337   2.824  21.588  0.00  0.00    +0.000 A 
ATOM     17  C   UNL     1       0.678   3.378  20.486  0.00  0.00    +0.000 A 
ATOM     18  C   UNL     1       1.375   3.604  19.295  0.00  0.00    +0.000 A 
ENDBRANCH  12  13
ENDBRANCH  11  12
ENDBRANCH   2  11
BRANCH   2  19
ATOM     19 SE   UNL     1       3.697   6.059  17.215  0.00  0.00    +0.000 Se
BRANCH  19  20
ATOM     20  C   UNL     1       2.693   7.281  18.381  0.00  0.00    +0.000 A 
ATOM     21  C   UNL     1       2.165   8.455  17.822  0.00  0.00    +0.000 A 
ATOM     22  C   UNL     1       1.399   9.334  18.599  0.00  0.00    +0.000 A 
ATOM     23  C   UNL     1       1.152   9.057  19.944  0.00  0.00    +0.000 A 
ATOM     24  C   UNL     1       1.643   7.878  20.510  0.00  0.00    +0.000 A 
ATOM     25  C   UNL     1       2.393   6.983  19.727  0.00  0.00    +0.000 A 
ENDBRANCH  19  20
ENDBRANCH   2  19
TORSDOF 8
ENDMDL
