MODEL 1
REMARK VINA RESULT:      -8.4      0.000      0.000
REMARK  Name = 
REMARK  5 active torsions:
REMARK  status: ('A' for Active; 'I' for Inactive)
REMARK    1  A    between atoms: O_1  and  C_2
REMARK    2  A    between atoms: C_7  and  C_8
REMARK    3  A    between atoms: N_9  and  C_10
REMARK    4  A    between atoms: C_13  and  O_14
REMARK    5  A    between atoms: O_14  and  C_15
REMARK                            x       y       z     vdW  Elec       q    Type
REMARK                         _______ _______ _______ _____ _____    ______ ____
ROOT
ATOM      1  C   UNL     1       7.940   7.286  18.371  0.00  0.00    +0.000 A 
ATOM      2  C   UNL     1       7.943   6.011  18.939  0.00  0.00    +0.000 A 
ATOM      3  C   UNL     1       7.083   5.019  18.473  0.00  0.00    +0.000 A 
ATOM      4  C   UNL     1       6.114   5.316  17.508  0.00  0.00    +0.000 A 
ATOM      5  C   UNL     1       6.124   6.582  16.912  0.00  0.00    +0.000 A 
ATOM      6 CL   UNL     1       5.013   6.989  15.653  0.00  0.00    +0.000 Cl
ATOM      7  C   UNL     1       7.033   7.557  17.342  0.00  0.00    +0.000 A 
ENDROOT
BRANCH   1   9
ATOM      8  C   UNL     1       8.584   9.531  18.365  0.00  0.00    +0.000 C 
ATOM      9  N   UNL     1       8.755   8.333  18.833  0.00  0.00    +0.000 NA
BRANCH   8  15
ATOM     10  C   UNL     1       9.646  10.929  20.130  0.00  0.00    +0.000 A 
ATOM     11  C   UNL     1      10.462  11.994  20.515  0.00  0.00    +0.000 A 
ATOM     12  C   UNL     1      11.067  12.791  19.542  0.00  0.00    +0.000 A 
ATOM     13  C   UNL     1      10.856  12.529  18.187  0.00  0.00    +0.000 A 
ATOM     14  C   UNL     1      10.041  11.464  17.801  0.00  0.00    +0.000 A 
ATOM     15  C   UNL     1       9.439  10.659  18.773  0.00  0.00    +0.000 A 
BRANCH  10  16
ATOM     16  O   UNL     1       9.047  10.157  21.087  0.00  0.00    +0.000 OA
ATOM     17  H   UNL     1       9.364  10.435  21.962  0.00  0.00    +0.000 HD
ENDBRANCH  10  16
ENDBRANCH   8  15
ENDBRANCH   1   9
BRANCH   4  18
ATOM     18  O   UNL     1       5.148   4.406  17.120  0.00  0.00    +0.000 OA
BRANCH  18  19
ATOM     19  C   UNL     1       4.130   4.114  18.006  0.00  0.00    +0.000 A 
ATOM     20  C   UNL     1       3.047   4.968  18.239  0.00  0.00    +0.000 A 
ATOM     21  C   UNL     1       2.146   4.689  19.267  0.00  0.00    +0.000 A 
ATOM     22  C   UNL     1       2.282   3.511  19.999  0.00  0.00    +0.000 A 
ATOM     23 CL   UNL     1       1.201   3.190  21.298  0.00  0.00    +0.000 Cl
ATOM     24  C   UNL     1       3.293   2.600  19.692  0.00  0.00    +0.000 A 
ATOM     25  C   UNL     1       4.221   2.902  18.693  0.00  0.00    +0.000 A 
ENDBRANCH  18  19
ENDBRANCH   4  18
TORSDOF 5
ENDMDL
MODEL 2
REMARK VINA RESULT:      -8.3      0.404      1.018
REMARK  Name = 
REMARK  5 active torsions:
REMARK  status: ('A' for Active; 'I' for Inactive)
REMARK    1  A    between atoms: O_1  and  C_2
REMARK    2  A    between atoms: C_7  and  C_8
REMARK    3  A    between atoms: N_9  and  C_10
REMARK    4  A    between atoms: C_13  and  O_14
REMARK    5  A    between atoms: O_14  and  C_15
REMARK                            x       y       z     vdW  Elec       q    Type
REMARK                         _______ _______ _______ _____ _____    ______ ____
ROOT
ATOM      1  C   UNL     1       7.984   7.348  18.419  0.00  0.00    +0.000 A 
ATOM      2  C   UNL     1       7.939   6.108  19.058  0.00  0.00    +0.000 A 
ATOM      3  C   UNL     1       7.007   5.143  18.680  0.00  0.00    +0.000 A 
ATOM      4  C   UNL     1       6.018   5.444  17.736  0.00  0.00    +0.000 A 
ATOM      5  C   UNL     1       6.076   6.673  17.070  0.00  0.00    +0.000 A 
ATOM      6 CL   UNL     1       4.940   7.075  15.831  0.00  0.00    +0.000 Cl
ATOM      7  C   UNL     1       7.054   7.615  17.411  0.00  0.00    +0.000 A 
ENDROOT
BRANCH   1   9
ATOM      8  C   UNL     1       8.612   9.597  18.463  0.00  0.00    +0.000 C 
ATOM      9  N   UNL     1       8.874   8.370  18.792  0.00  0.00    +0.000 NA
BRANCH   8  15
ATOM     10  C   UNL     1       9.800  11.033  20.114  0.00  0.00    +0.000 A 
ATOM     11  C   UNL     1      10.676  12.078  20.414  0.00  0.00    +0.000 A 
ATOM     12  C   UNL     1      11.278  12.796  19.380  0.00  0.00    +0.000 A 
ATOM     13  C   UNL     1      11.004  12.476  18.049  0.00  0.00    +0.000 A 
ATOM     14  C   UNL     1      10.130  11.431  17.748  0.00  0.00    +0.000 A 
ATOM     15  C   UNL     1       9.530  10.704  18.781  0.00  0.00    +0.000 A 
BRANCH  10  16
ATOM     16  O   UNL     1       9.204  10.339  21.130  0.00  0.00    +0.000 OA
ATOM     17  H   UNL     1       8.411  10.820  21.420  0.00  0.00    +0.000 HD
ENDBRANCH  10  16
ENDBRANCH   8  15
ENDBRANCH   1   9
BRANCH   4  18
ATOM     18  O   UNL     1       4.989   4.571  17.436  0.00  0.00    +0.000 OA
BRANCH  18  19
ATOM     19  C   UNL     1       4.207   4.099  18.472  0.00  0.00    +0.000 A 
ATOM     20  C   UNL     1       4.080   2.741  18.781  0.00  0.00    +0.000 A 
ATOM     21  C   UNL     1       3.146   2.325  19.730  0.00  0.00    +0.000 A 
ATOM     22  C   UNL     1       2.405   3.276  20.428  0.00  0.00    +0.000 A 
ATOM     23 CL   UNL     1       1.218   2.762  21.562  0.00  0.00    +0.000 Cl
ATOM     24  C   UNL     1       2.612   4.638  20.204  0.00  0.00    +0.000 A 
ATOM     25  C   UNL     1       3.516   5.052  19.223  0.00  0.00    +0.000 A 
ENDBRANCH  18  19
ENDBRANCH   4  18
TORSDOF 5
ENDMDL
MODEL 3
REMARK VINA RESULT:      -8.3      1.305      1.751
REMARK  Name = 
REMARK  5 active torsions:
REMARK  status: ('A' for Active; 'I' for Inactive)
REMARK    1  A    between atoms: O_1  and  C_2
REMARK    2  A    between atoms: C_7  and  C_8
REMARK    3  A    between atoms: N_9  and  C_10
REMARK    4  A    between atoms: C_13  and  O_14
REMARK    5  A    between atoms: O_14  and  C_15
REMARK                            x       y       z     vdW  Elec       q    Type
REMARK                         _______ _______ _______ _____ _____    ______ ____
ROOT
ATOM      1  C   UNL     1       7.971   7.583  18.260  0.00  0.00    +0.000 A 
ATOM      2  C   UNL     1       8.164   6.364  18.911  0.00  0.00    +0.000 A 
ATOM      3  C   UNL     1       7.471   5.222  18.511  0.00  0.00    +0.000 A 
ATOM      4  C   UNL     1       6.479   5.303  17.528  0.00  0.00    +0.000 A 
ATOM      5  C   UNL     1       6.302   6.514  16.849  0.00  0.00    +0.000 A 
ATOM      6 CL   UNL     1       5.156   6.661  15.564  0.00  0.00    +0.000 Cl
ATOM      7  C   UNL     1       7.046   7.643  17.214  0.00  0.00    +0.000 A 
ENDROOT
BRANCH   1   9
ATOM      8  C   UNL     1       8.487   9.835  17.920  0.00  0.00    +0.000 C 
ATOM      9  N   UNL     1       8.611   8.771  18.652  0.00  0.00    +0.000 NA
BRANCH   8  15
ATOM     10  C   UNL     1       8.707  12.308  17.732  0.00  0.00    +0.000 A 
ATOM     11  C   UNL     1       9.354  13.503  18.053  0.00  0.00    +0.000 A 
ATOM     12  C   UNL     1      10.468  13.483  18.892  0.00  0.00    +0.000 A 
ATOM     13  C   UNL     1      10.940  12.274  19.407  0.00  0.00    +0.000 A 
ATOM     14  C   UNL     1      10.294  11.080  19.087  0.00  0.00    +0.000 A 
ATOM     15  C   UNL     1       9.173  11.095  18.252  0.00  0.00    +0.000 A 
BRANCH  10  16
ATOM     16  O   UNL     1       7.621  12.330  16.900  0.00  0.00    +0.000 OA
ATOM     17  H   UNL     1       7.121  13.149  17.055  0.00  0.00    +0.000 HD
ENDBRANCH  10  16
ENDBRANCH   8  15
ENDBRANCH   1   9
BRANCH   4  18
ATOM     18  O   UNL     1       5.669   4.231  17.201  0.00  0.00    +0.000 OA
BRANCH  18  19
ATOM     19  C   UNL     1       4.532   4.016  17.954  0.00  0.00    +0.000 A 
ATOM     20  C   UNL     1       4.544   3.373  19.196  0.00  0.00    +0.000 A 
ATOM     21  C   UNL     1       3.342   3.041  19.822  0.00  0.00    +0.000 A 
ATOM     22  C   UNL     1       2.136   3.430  19.245  0.00  0.00    +0.000 A 
ATOM     23 CL   UNL     1       0.653   2.977  19.991  0.00  0.00    +0.000 Cl
ATOM     24  C   UNL     1       2.123   4.172  18.064  0.00  0.00    +0.000 A 
ATOM     25  C   UNL     1       3.325   4.467  17.415  0.00  0.00    +0.000 A 
ENDBRANCH  18  19
ENDBRANCH   4  18
TORSDOF 5
ENDMDL
MODEL 4
REMARK VINA RESULT:      -8.1      1.301      1.522
REMARK  Name = 
REMARK  5 active torsions:
REMARK  status: ('A' for Active; 'I' for Inactive)
REMARK    1  A    between atoms: O_1  and  C_2
REMARK    2  A    between atoms: C_7  and  C_8
REMARK    3  A    between atoms: N_9  and  C_10
REMARK    4  A    between atoms: C_13  and  O_14
REMARK    5  A    between atoms: O_14  and  C_15
REMARK                            x       y       z     vdW  Elec       q    Type
REMARK                         _______ _______ _______ _____ _____    ______ ____
ROOT
ATOM      1  C   UNL     1       7.857   7.427  18.222  0.00  0.00    +0.000 A 
ATOM      2  C   UNL     1       8.123   6.168  18.761  0.00  0.00    +0.000 A 
ATOM      3  C   UNL     1       7.441   5.039  18.312  0.00  0.00    +0.000 A 
ATOM      4  C   UNL     1       6.389   5.163  17.397  0.00  0.00    +0.000 A 
ATOM      5  C   UNL     1       6.137   6.416  16.829  0.00  0.00    +0.000 A 
ATOM      6 CL   UNL     1       4.912   6.625  15.628  0.00  0.00    +0.000 Cl
ATOM      7  C   UNL     1       6.868   7.537  17.239  0.00  0.00    +0.000 A 
ENDROOT
BRANCH   1   9
ATOM      8  C   UNL     1       8.418   9.677  17.948  0.00  0.00    +0.000 C 
ATOM      9  N   UNL     1       8.484   8.602  18.670  0.00  0.00    +0.000 NA
BRANCH   8  15
ATOM     10  C   UNL     1       8.683  12.149  17.803  0.00  0.00    +0.000 A 
ATOM     11  C   UNL     1       9.322  13.331  18.181  0.00  0.00    +0.000 A 
ATOM     12  C   UNL     1      10.376  13.287  19.094  0.00  0.00    +0.000 A 
ATOM     13  C   UNL     1      10.796  12.067  19.626  0.00  0.00    +0.000 A 
ATOM     14  C   UNL     1      10.157  10.885  19.249  0.00  0.00    +0.000 A 
ATOM     15  C   UNL     1       9.096  10.925  18.340  0.00  0.00    +0.000 A 
BRANCH  10  16
ATOM     16  O   UNL     1       7.657  12.195  16.899  0.00  0.00    +0.000 OA
ATOM     17  H   UNL     1       7.018  12.872  17.180  0.00  0.00    +0.000 HD
ENDBRANCH  10  16
ENDBRANCH   8  15
ENDBRANCH   1   9
BRANCH   4  18
ATOM     18  O   UNL     1       5.593   4.093  17.033  0.00  0.00    +0.000 OA
BRANCH  18  19
ATOM     19  C   UNL     1       4.419   3.883  17.730  0.00  0.00    +0.000 A 
ATOM     20  C   UNL     1       3.152   3.973  17.146  0.00  0.00    +0.000 A 
ATOM     21  C   UNL     1       2.009   3.915  17.943  0.00  0.00    +0.000 A 
ATOM     22  C   UNL     1       2.136   3.679  19.310  0.00  0.00    +0.000 A 
ATOM     23 CL   UNL     1       0.731   3.656  20.302  0.00  0.00    +0.000 Cl
ATOM     24  C   UNL     1       3.394   3.473  19.879  0.00  0.00    +0.000 A 
ATOM     25  C   UNL     1       4.540   3.576  19.086  0.00  0.00    +0.000 A 
ENDBRANCH  18  19
ENDBRANCH   4  18
TORSDOF 5
ENDMDL
MODEL 5
REMARK VINA RESULT:      -8.1      1.295      1.668
REMARK  Name = 
REMARK  5 active torsions:
REMARK  status: ('A' for Active; 'I' for Inactive)
REMARK    1  A    between atoms: O_1  and  C_2
REMARK    2  A    between atoms: C_7  and  C_8
REMARK    3  A    between atoms: N_9  and  C_10
REMARK    4  A    between atoms: C_13  and  O_14
REMARK    5  A    between atoms: O_14  and  C_15
REMARK                            x       y       z     vdW  Elec       q    Type
REMARK                         _______ _______ _______ _____ _____    ______ ____
ROOT
ATOM      1  C   UNL     1       7.913   8.114  18.044  0.00  0.00    +0.000 A 
ATOM      2  C   UNL     1       8.279   7.021  18.831  0.00  0.00    +0.000 A 
ATOM      3  C   UNL     1       7.705   5.768  18.624  0.00  0.00    +0.000 A 
ATOM      4  C   UNL     1       6.662   5.608  17.705  0.00  0.00    +0.000 A 
ATOM      5  C   UNL     1       6.311   6.690  16.891  0.00  0.00    +0.000 A 
ATOM      6 CL   UNL     1       5.093   6.539  15.675  0.00  0.00    +0.000 Cl
ATOM      7  C   UNL     1       6.935   7.933  17.061  0.00  0.00    +0.000 A 
ENDROOT
BRANCH   1   9
ATOM      8  C   UNL     1       9.233   9.630  19.232  0.00  0.00    +0.000 C 
ATOM      9  N   UNL     1       8.428   9.407  18.240  0.00  0.00    +0.000 NA
BRANCH   8  15
ATOM     10  C   UNL     1      10.491  11.665  18.542  0.00  0.00    +0.000 A 
ATOM     11  C   UNL     1      10.990  12.940  18.813  0.00  0.00    +0.000 A 
ATOM     12  C   UNL     1      10.766  13.521  20.062  0.00  0.00    +0.000 A 
ATOM     13  C   UNL     1      10.050  12.830  21.041  0.00  0.00    +0.000 A 
ATOM     14  C   UNL     1       9.551  11.555  20.771  0.00  0.00    +0.000 A 
ATOM     15  C   UNL     1       9.767  10.973  19.519  0.00  0.00    +0.000 A 
BRANCH  10  16
ATOM     16  O   UNL     1      10.721  11.095  17.320  0.00  0.00    +0.000 OA
ATOM     17  H   UNL     1       9.897  11.108  16.805  0.00  0.00    +0.000 HD
ENDBRANCH  10  16
ENDBRANCH   8  15
ENDBRANCH   1   9
BRANCH   4  18
ATOM     18  O   UNL     1       5.968   4.420  17.570  0.00  0.00    +0.000 OA
BRANCH  18  19
ATOM     19  C   UNL     1       4.708   4.331  18.128  0.00  0.00    +0.000 A 
ATOM     20  C   UNL     1       4.365   4.921  19.349  0.00  0.00    +0.000 A 
ATOM     21  C   UNL     1       3.127   4.651  19.933  0.00  0.00    +0.000 A 
ATOM     22  C   UNL     1       2.204   3.861  19.251  0.00  0.00    +0.000 A 
ATOM     23 CL   UNL     1       0.698   3.486  19.992  0.00  0.00    +0.000 Cl
ATOM     24  C   UNL     1       2.498   3.365  17.981  0.00  0.00    +0.000 A 
ATOM     25  C   UNL     1       3.754   3.600  17.417  0.00  0.00    +0.000 A 
ENDBRANCH  18  19
ENDBRANCH   4  18
TORSDOF 5
ENDMDL
MODEL 6
REMARK VINA RESULT:      -7.6      1.233      1.552
REMARK  Name = 
REMARK  5 active torsions:
REMARK  status: ('A' for Active; 'I' for Inactive)
REMARK    1  A    between atoms: O_1  and  C_2
REMARK    2  A    between atoms: C_7  and  C_8
REMARK    3  A    between atoms: N_9  and  C_10
REMARK    4  A    between atoms: C_13  and  O_14
REMARK    5  A    between atoms: O_14  and  C_15
REMARK                            x       y       z     vdW  Elec       q    Type
REMARK                         _______ _______ _______ _____ _____    ______ ____
ROOT
ATOM      1  C   UNL     1       7.262   8.107  17.662  0.00  0.00    +0.000 A 
ATOM      2  C   UNL     1       5.930   8.091  17.246  0.00  0.00    +0.000 A 
ATOM      3  C   UNL     1       5.245   6.887  17.087  0.00  0.00    +0.000 A 
ATOM      4  C   UNL     1       5.916   5.667  17.223  0.00  0.00    +0.000 A 
ATOM      5  C   UNL     1       7.242   5.674  17.669  0.00  0.00    +0.000 A 
ATOM      6 CL   UNL     1       8.103   4.201  17.942  0.00  0.00    +0.000 Cl
ATOM      7  C   UNL     1       7.906   6.887  17.887  0.00  0.00    +0.000 A 
ENDROOT
BRANCH   1   9
ATOM      8  C   UNL     1       8.800   9.434  18.812  0.00  0.00    +0.000 C 
ATOM      9  N   UNL     1       8.009   9.290  17.795  0.00  0.00    +0.000 NA
BRANCH   8  15
ATOM     10  C   UNL     1       9.781  11.146  20.331  0.00  0.00    +0.000 A 
ATOM     11  C   UNL     1      10.518  12.313  20.539  0.00  0.00    +0.000 A 
ATOM     12  C   UNL     1      11.043  13.004  19.447  0.00  0.00    +0.000 A 
ATOM     13  C   UNL     1      10.829  12.536  18.149  0.00  0.00    +0.000 A 
ATOM     14  C   UNL     1      10.093  11.370  17.941  0.00  0.00    +0.000 A 
ATOM     15  C   UNL     1       9.572  10.669  19.033  0.00  0.00    +0.000 A 
BRANCH  10  16
ATOM     16  O   UNL     1       9.260  10.476  21.404  0.00  0.00    +0.000 OA
ATOM     17  H   UNL     1       8.605   9.832  21.087  0.00  0.00    +0.000 HD
ENDBRANCH  10  16
ENDBRANCH   8  15
ENDBRANCH   1   9
BRANCH   4  18
ATOM     18  O   UNL     1       5.316   4.454  16.935  0.00  0.00    +0.000 OA
BRANCH  18  19
ATOM     19  C   UNL     1       4.267   4.037  17.731  0.00  0.00    +0.000 A 
ATOM     20  C   UNL     1       2.932   4.063  17.316  0.00  0.00    +0.000 A 
ATOM     21  C   UNL     1       1.913   3.786  18.228  0.00  0.00    +0.000 A 
ATOM     22  C   UNL     1       2.238   3.400  19.526  0.00  0.00    +0.000 A 
ATOM     23 CL   UNL     1       0.981   3.107  20.664  0.00  0.00    +0.000 Cl
ATOM     24  C   UNL     1       3.572   3.261  19.910  0.00  0.00    +0.000 A 
ATOM     25  C   UNL     1       4.591   3.581  19.010  0.00  0.00    +0.000 A 
ENDBRANCH  18  19
ENDBRANCH   4  18
TORSDOF 5
ENDMDL
MODEL 7
REMARK VINA RESULT:      -7.4      5.047      7.559
REMARK  Name = 
REMARK  5 active torsions:
REMARK  status: ('A' for Active; 'I' for Inactive)
REMARK    1  A    between atoms: O_1  and  C_2
REMARK    2  A    between atoms: C_7  and  C_8
REMARK    3  A    between atoms: N_9  and  C_10
REMARK    4  A    between atoms: C_13  and  O_14
REMARK    5  A    between atoms: O_14  and  C_15
REMARK                            x       y       z     vdW  Elec       q    Type
REMARK                         _______ _______ _______ _____ _____    ______ ____
ROOT
ATOM      1  C   UNL     1       2.225   6.525  20.049  0.00  0.00    +0.000 A 
ATOM      2  C   UNL     1       2.930   6.931  18.916  0.00  0.00    +0.000 A 
ATOM      3  C   UNL     1       3.691   6.022  18.183  0.00  0.00    +0.000 A 
ATOM      4  C   UNL     1       3.861   4.710  18.639  0.00  0.00    +0.000 A 
ATOM      5  C   UNL     1       3.133   4.286  19.756  0.00  0.00    +0.000 A 
ATOM      6 CL   UNL     1       3.227   2.656  20.321  0.00  0.00    +0.000 Cl
ATOM      7  C   UNL     1       2.320   5.190  20.452  0.00  0.00    +0.000 A 
ENDROOT
BRANCH   1   9
ATOM      8  C   UNL     1       1.234   8.608  20.414  0.00  0.00    +0.000 C 
ATOM      9  N   UNL     1       1.480   7.410  20.847  0.00  0.00    +0.000 NA
BRANCH   8  15
ATOM     10  C   UNL     1       0.489  10.944  20.848  0.00  0.00    +0.000 A 
ATOM     11  C   UNL     1      -0.211  11.878  21.613  0.00  0.00    +0.000 A 
ATOM     12  C   UNL     1      -0.896  11.464  22.755  0.00  0.00    +0.000 A 
ATOM     13  C   UNL     1      -0.879  10.121  23.138  0.00  0.00    +0.000 A 
ATOM     14  C   UNL     1      -0.180   9.187  22.374  0.00  0.00    +0.000 A 
ATOM     15  C   UNL     1       0.502   9.596  21.224  0.00  0.00    +0.000 A 
BRANCH  10  16
ATOM     16  O   UNL     1       1.168  11.355  19.734  0.00  0.00    +0.000 OA
ATOM     17  H   UNL     1       1.930  10.768  19.592  0.00  0.00    +0.000 HD
ENDBRANCH  10  16
ENDBRANCH   8  15
ENDBRANCH   1   9
BRANCH   4  18
ATOM     18  O   UNL     1       4.719   3.816  18.025  0.00  0.00    +0.000 OA
BRANCH  18  19
ATOM     19  C   UNL     1       5.355   4.211  16.864  0.00  0.00    +0.000 A 
ATOM     20  C   UNL     1       4.779   4.094  15.595  0.00  0.00    +0.000 A 
ATOM     21  C   UNL     1       5.541   4.356  14.456  0.00  0.00    +0.000 A 
ATOM     22  C   UNL     1       6.848   4.817  14.594  0.00  0.00    +0.000 A 
ATOM     23 CL   UNL     1       7.804   5.092  13.190  0.00  0.00    +0.000 Cl
ATOM     24  C   UNL     1       7.388   5.045  15.860  0.00  0.00    +0.000 A 
ATOM     25  C   UNL     1       6.639   4.741  17.000  0.00  0.00    +0.000 A 
ENDBRANCH  18  19
ENDBRANCH   4  18
TORSDOF 5
ENDMDL
MODEL 8
REMARK VINA RESULT:      -7.4      5.096      7.732
REMARK  Name = 
REMARK  5 active torsions:
REMARK  status: ('A' for Active; 'I' for Inactive)
REMARK    1  A    between atoms: O_1  and  C_2
REMARK    2  A    between atoms: C_7  and  C_8
REMARK    3  A    between atoms: N_9  and  C_10
REMARK    4  A    between atoms: C_13  and  O_14
REMARK    5  A    between atoms: O_14  and  C_15
REMARK                            x       y       z     vdW  Elec       q    Type
REMARK                         _______ _______ _______ _____ _____    ______ ____
ROOT
ATOM      1  C   UNL     1       2.451   7.344  19.119  0.00  0.00    +0.000 A 
ATOM      2  C   UNL     1       3.239   7.474  17.975  0.00  0.00    +0.000 A 
ATOM      3  C   UNL     1       3.934   6.382  17.457  0.00  0.00    +0.000 A 
ATOM      4  C   UNL     1       3.952   5.163  18.144  0.00  0.00    +0.000 A 
ATOM      5  C   UNL     1       3.141   5.015  19.274  0.00  0.00    +0.000 A 
ATOM      6 CL   UNL     1       3.047   3.512  20.120  0.00  0.00    +0.000 Cl
ATOM      7  C   UNL     1       2.396   6.100  19.754  0.00  0.00    +0.000 A 
ENDROOT
BRANCH   1   9
ATOM      8  C   UNL     1       0.993   8.210  20.724  0.00  0.00    +0.000 C 
ATOM      9  N   UNL     1       1.767   8.422  19.705  0.00  0.00    +0.000 NA
BRANCH   8  15
ATOM     10  C   UNL     1      -0.316  10.323  20.567  0.00  0.00    +0.000 A 
ATOM     11  C   UNL     1      -1.061  11.342  21.162  0.00  0.00    +0.000 A 
ATOM     12  C   UNL     1      -1.277  11.329  22.540  0.00  0.00    +0.000 A 
ATOM     13  C   UNL     1      -0.745  10.304  23.326  0.00  0.00    +0.000 A 
ATOM     14  C   UNL     1      -0.001   9.285  22.732  0.00  0.00    +0.000 A 
ATOM     15  C   UNL     1       0.212   9.290  21.350  0.00  0.00    +0.000 A 
BRANCH  10  16
ATOM     16  O   UNL     1      -0.098  10.344  19.217  0.00  0.00    +0.000 OA
ATOM     17  H   UNL     1       0.810  10.646  19.047  0.00  0.00    +0.000 HD
ENDBRANCH  10  16
ENDBRANCH   8  15
ENDBRANCH   1   9
BRANCH   4  18
ATOM     18  O   UNL     1       4.740   4.099  17.746  0.00  0.00    +0.000 OA
BRANCH  18  19
ATOM     19  C   UNL     1       5.541   4.257  16.632  0.00  0.00    +0.000 A 
ATOM     20  C   UNL     1       6.862   4.711  16.694  0.00  0.00    +0.000 A 
ATOM     21  C   UNL     1       7.555   5.007  15.520  0.00  0.00    +0.000 A 
ATOM     22  C   UNL     1       6.953   4.763  14.287  0.00  0.00    +0.000 A 
ATOM     23 CL   UNL     1       7.787   5.174  12.840  0.00  0.00    +0.000 Cl
ATOM     24  C   UNL     1       5.678   4.202  14.221  0.00  0.00    +0.000 A 
ATOM     25  C   UNL     1       4.968   3.948  15.397  0.00  0.00    +0.000 A 
ENDBRANCH  18  19
ENDBRANCH   4  18
TORSDOF 5
ENDMDL
MODEL 9
REMARK VINA RESULT:      -7.3      5.045      7.664
REMARK  Name = 
REMARK  5 active torsions:
REMARK  status: ('A' for Active; 'I' for Inactive)
REMARK    1  A    between atoms: O_1  and  C_2
REMARK    2  A    between atoms: C_7  and  C_8
REMARK    3  A    between atoms: N_9  and  C_10
REMARK    4  A    between atoms: C_13  and  O_14
REMARK    5  A    between atoms: O_14  and  C_15
REMARK                            x       y       z     vdW  Elec       q    Type
REMARK                         _______ _______ _______ _____ _____    ______ ____
ROOT
ATOM      1  C   UNL     1       1.603   7.131  20.297  0.00  0.00    +0.000 A 
ATOM      2  C   UNL     1       2.557   7.341  19.300  0.00  0.00    +0.000 A 
ATOM      3  C   UNL     1       3.425   6.320  18.915  0.00  0.00    +0.000 A 
ATOM      4  C   UNL     1       3.440   5.104  19.607  0.00  0.00    +0.000 A 
ATOM      5  C   UNL     1       2.467   4.875  20.586  0.00  0.00    +0.000 A 
ATOM      6 CL   UNL     1       2.371   3.364  21.418  0.00  0.00    +0.000 Cl
ATOM      7  C   UNL     1       1.556   5.884  20.925  0.00  0.00    +0.000 A 
ENDROOT
BRANCH   1   9
ATOM      8  C   UNL     1       1.223   9.280  21.129  0.00  0.00    +0.000 C 
ATOM      9  N   UNL     1       0.735   8.139  20.751  0.00  0.00    +0.000 NA
BRANCH   8  15
ATOM     10  C   UNL     1      -0.564  10.083  22.667  0.00  0.00    +0.000 A 
ATOM     11  C   UNL     1      -1.367  11.106  23.174  0.00  0.00    +0.000 A 
ATOM     12  C   UNL     1      -1.237  12.401  22.672  0.00  0.00    +0.000 A 
ATOM     13  C   UNL     1      -0.313  12.676  21.663  0.00  0.00    +0.000 A 
ATOM     14  C   UNL     1       0.490  11.655  21.156  0.00  0.00    +0.000 A 
ATOM     15  C   UNL     1       0.369  10.356  21.661  0.00  0.00    +0.000 A 
BRANCH  10  16
ATOM     16  O   UNL     1      -0.701   8.812  23.154  0.00  0.00    +0.000 OA
ATOM     17  H   UNL     1      -0.130   8.709  23.934  0.00  0.00    +0.000 HD
ENDBRANCH  10  16
ENDBRANCH   8  15
ENDBRANCH   1   9
BRANCH   4  18
ATOM     18  O   UNL     1       4.377   4.119  19.357  0.00  0.00    +0.000 OA
BRANCH  18  19
ATOM     19  C   UNL     1       5.132   4.211  18.204  0.00  0.00    +0.000 A 
ATOM     20  C   UNL     1       6.457   4.661  18.188  0.00  0.00    +0.000 A 
ATOM     21  C   UNL     1       7.102   4.888  16.972  0.00  0.00    +0.000 A 
ATOM     22  C   UNL     1       6.450   4.581  15.780  0.00  0.00    +0.000 A 
ATOM     23 CL   UNL     1       7.226   4.907  14.280  0.00  0.00    +0.000 Cl
ATOM     24  C   UNL     1       5.171   4.024  15.796  0.00  0.00    +0.000 A 
ATOM     25  C   UNL     1       4.509   3.838  17.012  0.00  0.00    +0.000 A 
ENDBRANCH  18  19
ENDBRANCH   4  18
TORSDOF 5
ENDMDL
