MODEL 1
REMARK VINA RESULT:      -8.2      0.000      0.000
REMARK  Name = 
REMARK  6 active torsions:
REMARK  status: ('A' for Active; 'I' for Inactive)
REMARK    1  A    between atoms: C_1  and  O_2
REMARK    2  A    between atoms: O_2  and  C_3
REMARK    3  A    between atoms: C_8  and  C_9
REMARK    4  A    between atoms: C_13  and  N_14
REMARK    5  A    between atoms: N_17  and  C_18
REMARK    6  A    between atoms: N_21  and  C_22
REMARK                            x       y       z     vdW  Elec       q    Type
REMARK                         _______ _______ _______ _____ _____    ______ ____
ROOT
ATOM      1  C   UNL     1       2.009   6.802  19.735  0.00  0.00    +0.000 A 
ATOM      2  C   UNL     1       2.305   7.346  18.466  0.00  0.00    +0.000 A 
ATOM      3  C   UNL     1       2.033   8.682  18.147  0.00  0.00    +0.000 A 
ATOM      4  C   UNL     1       1.477   9.521  19.102  0.00  0.00    +0.000 A 
ATOM      5  C   UNL     1       1.188   9.015  20.363  0.00  0.00    +0.000 A 
ATOM      6  C   UNL     1       1.443   7.675  20.678  0.00  0.00    +0.000 A 
ENDROOT
BRANCH   5   7
ATOM      7  N   UNL     1       0.632   9.867  21.337  0.00  0.00    +0.000 N 
ATOM      8  C   UNL     1       0.234   9.425  22.660  0.00  0.00    +0.000 C 
ATOM      9  C   UNL     1      -0.824  10.438  23.124  0.00  0.00    +0.000 C 
ATOM     10  N   UNL     1      -0.509  11.736  22.481  0.00  0.00    +0.000 NA
ATOM     11  S   UNL     1       0.361  11.479  21.033  0.00  0.00    +0.000 S 
ATOM     12  O   UNL     1      -0.533  11.587  19.909  0.00  0.00    +0.000 OA
ATOM     13  O   UNL     1       1.592  12.226  21.123  0.00  0.00    +0.000 OA
BRANCH  10  14
ATOM     14  C   UNL     1      -1.527  12.821  22.484  0.00  0.00    +0.000 C 
ATOM     15  C   UNL     1      -1.227  13.950  23.482  0.00  0.00    +0.000 C 
ATOM     16  C   UNL     1      -2.532  14.230  24.224  0.00  0.00    +0.000 C 
ATOM     17  N   UNL     1      -3.580  13.589  23.412  0.00  0.00    +0.000 N 
ATOM     18  C   UNL     1      -2.963  12.381  22.811  0.00  0.00    +0.000 C 
BRANCH  17  19
ATOM     19  C   UNL     1      -4.896  13.748  23.598  0.00  0.00    +0.000 C 
ATOM     20  N   UNL     1      -6.031  13.885  23.770  0.00  0.00    +0.000 NA
ENDBRANCH  17  19
ENDBRANCH  10  14
ENDBRANCH   5   7
BRANCH   1  26
ATOM     21  C   UNL     1       3.482   4.697  19.890  0.00  0.00    +0.000 A 
ATOM     22  C   UNL     1       3.600   3.333  20.214  0.00  0.00    +0.000 A 
ATOM     23  C   UNL     1       2.490   2.590  20.610  0.00  0.00    +0.000 A 
ATOM     24  C   UNL     1       1.255   3.207  20.718  0.00  0.00    +0.000 A 
ATOM     25  C   UNL     1       1.138   4.572  20.447  0.00  0.00    +0.000 A 
ATOM     26  C   UNL     1       2.235   5.356  20.021  0.00  0.00    +0.000 A 
BRANCH  21  28
ATOM     27  C   UNL     1       5.603   4.695  18.827  0.00  0.00    +0.000 C 
ATOM     28  O   UNL     1       4.568   5.434  19.473  0.00  0.00    +0.000 OA
ENDBRANCH  21  28
ENDBRANCH   1  26
TORSDOF 5
ENDMDL
MODEL 2
REMARK VINA RESULT:      -8.0      3.190      4.528
REMARK  Name = 
REMARK  6 active torsions:
REMARK  status: ('A' for Active; 'I' for Inactive)
REMARK    1  A    between atoms: C_1  and  O_2
REMARK    2  A    between atoms: O_2  and  C_3
REMARK    3  A    between atoms: C_8  and  C_9
REMARK    4  A    between atoms: C_13  and  N_14
REMARK    5  A    between atoms: N_17  and  C_18
REMARK    6  A    between atoms: N_21  and  C_22
REMARK                            x       y       z     vdW  Elec       q    Type
REMARK                         _______ _______ _______ _____ _____    ______ ____
ROOT
ATOM      1  C   UNL     1       3.912   5.104  18.376  0.00  0.00    +0.000 A 
ATOM      2  C   UNL     1       3.410   4.052  19.172  0.00  0.00    +0.000 A 
ATOM      3  C   UNL     1       2.429   4.261  20.149  0.00  0.00    +0.000 A 
ATOM      4  C   UNL     1       1.905   5.531  20.341  0.00  0.00    +0.000 A 
ATOM      5  C   UNL     1       2.372   6.581  19.562  0.00  0.00    +0.000 A 
ATOM      6  C   UNL     1       3.365   6.377  18.596  0.00  0.00    +0.000 A 
ENDROOT
BRANCH   5   7
ATOM      7  N   UNL     1       1.834   7.870  19.749  0.00  0.00    +0.000 N 
ATOM      8  C   UNL     1       1.390   8.379  21.033  0.00  0.00    +0.000 C 
ATOM      9  C   UNL     1       0.369   9.478  20.702  0.00  0.00    +0.000 C 
ATOM     10  N   UNL     1       0.753  10.063  19.396  0.00  0.00    +0.000 NA
ATOM     11  S   UNL     1       1.640   8.925  18.480  0.00  0.00    +0.000 S 
ATOM     12  O   UNL     1       0.774   8.313  17.505  0.00  0.00    +0.000 OA
ATOM     13  O   UNL     1       2.900   9.533  18.127  0.00  0.00    +0.000 OA
BRANCH  10  14
ATOM     14  C   UNL     1      -0.216  10.923  18.666  0.00  0.00    +0.000 C 
ATOM     15  C   UNL     1      -0.438  12.298  19.315  0.00  0.00    +0.000 C 
ATOM     16  C   UNL     1      -1.947  12.524  19.347  0.00  0.00    +0.000 C 
ATOM     17  N   UNL     1      -2.503  11.532  18.411  0.00  0.00    +0.000 N 
ATOM     18  C   UNL     1      -1.627  10.338  18.498  0.00  0.00    +0.000 C 
BRANCH  17  19
ATOM     19  C   UNL     1      -3.774  11.503  17.993  0.00  0.00    +0.000 C 
ATOM     20  N   UNL     1      -4.869  11.471  17.624  0.00  0.00    +0.000 NA
ENDBRANCH  17  19
ENDBRANCH  10  14
ENDBRANCH   5   7
BRANCH   1  26
ATOM     21  C   UNL     1       6.384   4.762  17.741  0.00  0.00    +0.000 A 
ATOM     22  C   UNL     1       7.346   4.508  16.747  0.00  0.00    +0.000 A 
ATOM     23  C   UNL     1       6.985   4.415  15.405  0.00  0.00    +0.000 A 
ATOM     24  C   UNL     1       5.654   4.543  15.043  0.00  0.00    +0.000 A 
ATOM     25  C   UNL     1       4.685   4.745  16.028  0.00  0.00    +0.000 A 
ATOM     26  C   UNL     1       5.014   4.867  17.398  0.00  0.00    +0.000 A 
BRANCH  21  28
ATOM     27  C   UNL     1       7.823   5.760  19.341  0.00  0.00    +0.000 C 
ATOM     28  O   UNL     1       6.734   4.882  19.067  0.00  0.00    +0.000 OA
ENDBRANCH  21  28
ENDBRANCH   1  26
TORSDOF 5
ENDMDL
MODEL 3
REMARK VINA RESULT:      -7.8      2.369      4.122
REMARK  Name = 
REMARK  6 active torsions:
REMARK  status: ('A' for Active; 'I' for Inactive)
REMARK    1  A    between atoms: C_1  and  O_2
REMARK    2  A    between atoms: O_2  and  C_3
REMARK    3  A    between atoms: C_8  and  C_9
REMARK    4  A    between atoms: C_13  and  N_14
REMARK    5  A    between atoms: N_17  and  C_18
REMARK    6  A    between atoms: N_21  and  C_22
REMARK                            x       y       z     vdW  Elec       q    Type
REMARK                         _______ _______ _______ _____ _____    ______ ____
ROOT
ATOM      1  C   UNL     1       3.758   5.354  18.761  0.00  0.00    +0.000 A 
ATOM      2  C   UNL     1       3.339   4.398  19.712  0.00  0.00    +0.000 A 
ATOM      3  C   UNL     1       2.368   4.685  20.678  0.00  0.00    +0.000 A 
ATOM      4  C   UNL     1       1.770   5.936  20.705  0.00  0.00    +0.000 A 
ATOM      5  C   UNL     1       2.153   6.891  19.772  0.00  0.00    +0.000 A 
ATOM      6  C   UNL     1       3.136   6.611  18.816  0.00  0.00    +0.000 A 
ENDROOT
BRANCH   5   7
ATOM      7  N   UNL     1       1.539   8.159  19.791  0.00  0.00    +0.000 N 
ATOM      8  C   UNL     1       1.472   9.038  18.639  0.00  0.00    +0.000 C 
ATOM      9  C   UNL     1       1.309  10.452  19.217  0.00  0.00    +0.000 C 
ATOM     10  N   UNL     1       0.591  10.325  20.508  0.00  0.00    +0.000 NA
ATOM     11  S   UNL     1       0.849   8.773  21.173  0.00  0.00    +0.000 S 
ATOM     12  O   UNL     1       1.860   8.848  22.195  0.00  0.00    +0.000 OA
ATOM     13  O   UNL     1      -0.444   8.175  21.403  0.00  0.00    +0.000 OA
BRANCH  10  14
ATOM     14  C   UNL     1       0.567  11.477  21.448  0.00  0.00    +0.000 C 
ATOM     15  C   UNL     1      -0.703  11.548  22.311  0.00  0.00    +0.000 C 
ATOM     16  C   UNL     1      -1.180  12.997  22.260  0.00  0.00    +0.000 C 
ATOM     17  N   UNL     1      -0.031  13.762  21.746  0.00  0.00    +0.000 N 
ATOM     18  C   UNL     1       0.676  12.866  20.799  0.00  0.00    +0.000 C 
BRANCH  17  19
ATOM     19  C   UNL     1       0.048  15.097  21.719  0.00  0.00    +0.000 C 
ATOM     20  N   UNL     1       0.124  16.251  21.705  0.00  0.00    +0.000 NA
ENDBRANCH  17  19
ENDBRANCH  10  14
ENDBRANCH   5   7
BRANCH   1  26
ATOM     21  C   UNL     1       6.225   4.973  18.132  0.00  0.00    +0.000 A 
ATOM     22  C   UNL     1       7.180   4.645  17.152  0.00  0.00    +0.000 A 
ATOM     23  C   UNL     1       6.807   4.448  15.824  0.00  0.00    +0.000 A 
ATOM     24  C   UNL     1       5.473   4.544  15.465  0.00  0.00    +0.000 A 
ATOM     25  C   UNL     1       4.512   4.818  16.440  0.00  0.00    +0.000 A 
ATOM     26  C   UNL     1       4.852   5.046  17.794  0.00  0.00    +0.000 A 
BRANCH  21  28
ATOM     27  C   UNL     1       7.903   5.707  19.640  0.00  0.00    +0.000 C 
ATOM     28  O   UNL     1       6.587   5.195  19.442  0.00  0.00    +0.000 OA
ENDBRANCH  21  28
ENDBRANCH   1  26
TORSDOF 5
ENDMDL
MODEL 4
REMARK VINA RESULT:      -7.7      1.020      1.119
REMARK  Name = 
REMARK  6 active torsions:
REMARK  status: ('A' for Active; 'I' for Inactive)
REMARK    1  A    between atoms: C_1  and  O_2
REMARK    2  A    between atoms: O_2  and  C_3
REMARK    3  A    between atoms: C_8  and  C_9
REMARK    4  A    between atoms: C_13  and  N_14
REMARK    5  A    between atoms: N_17  and  C_18
REMARK    6  A    between atoms: N_21  and  C_22
REMARK                            x       y       z     vdW  Elec       q    Type
REMARK                         _______ _______ _______ _____ _____    ______ ____
ROOT
ATOM      1  C   UNL     1       2.110   6.917  19.566  0.00  0.00    +0.000 A 
ATOM      2  C   UNL     1       2.281   7.397  18.249  0.00  0.00    +0.000 A 
ATOM      3  C   UNL     1       1.938   8.703  17.882  0.00  0.00    +0.000 A 
ATOM      4  C   UNL     1       1.434   9.578  18.833  0.00  0.00    +0.000 A 
ATOM      5  C   UNL     1       1.268   9.137  20.140  0.00  0.00    +0.000 A 
ATOM      6  C   UNL     1       1.594   7.825  20.505  0.00  0.00    +0.000 A 
ENDROOT
BRANCH   5   7
ATOM      7  N   UNL     1       0.765  10.026  21.109  0.00  0.00    +0.000 N 
ATOM      8  C   UNL     1       0.256   9.605  22.401  0.00  0.00    +0.000 C 
ATOM      9  C   UNL     1      -0.702  10.721  22.843  0.00  0.00    +0.000 C 
ATOM     10  N   UNL     1      -0.213  11.988  22.249  0.00  0.00    +0.000 NA
ATOM     11  S   UNL     1       0.691  11.664  20.835  0.00  0.00    +0.000 S 
ATOM     12  O   UNL     1      -0.129  11.896  19.675  0.00  0.00    +0.000 OA
ATOM     13  O   UNL     1       1.992  12.265  21.001  0.00  0.00    +0.000 OA
BRANCH  10  14
ATOM     14  C   UNL     1      -1.102  13.181  22.234  0.00  0.00    +0.000 C 
ATOM     15  C   UNL     1      -0.351  14.512  22.068  0.00  0.00    +0.000 C 
ATOM     16  C   UNL     1      -0.927  15.466  23.112  0.00  0.00    +0.000 C 
ATOM     17  N   UNL     1      -2.188  14.841  23.549  0.00  0.00    +0.000 N 
ATOM     18  C   UNL     1      -1.971  13.376  23.486  0.00  0.00    +0.000 C 
BRANCH  17  19
ATOM     19  C   UNL     1      -3.107  15.433  24.320  0.00  0.00    +0.000 C 
ATOM     20  N   UNL     1      -3.893  15.949  24.993  0.00  0.00    +0.000 NA
ENDBRANCH  17  19
ENDBRANCH  10  14
ENDBRANCH   5   7
BRANCH   1  26
ATOM     21  C   UNL     1       3.612   4.827  19.581  0.00  0.00    +0.000 A 
ATOM     22  C   UNL     1       3.812   3.492  19.978  0.00  0.00    +0.000 A 
ATOM     23  C   UNL     1       2.814   2.784  20.646  0.00  0.00    +0.000 A 
ATOM     24  C   UNL     1       1.618   3.411  20.953  0.00  0.00    +0.000 A 
ATOM     25  C   UNL     1       1.430   4.751  20.608  0.00  0.00    +0.000 A 
ATOM     26  C   UNL     1       2.409   5.497  19.911  0.00  0.00    +0.000 A 
BRANCH  21  28
ATOM     27  C   UNL     1       5.927   5.250  19.282  0.00  0.00    +0.000 C 
ATOM     28  O   UNL     1       4.582   5.527  18.899  0.00  0.00    +0.000 OA
ENDBRANCH  21  28
ENDBRANCH   1  26
TORSDOF 5
ENDMDL
MODEL 5
REMARK VINA RESULT:      -7.6      1.823      2.382
REMARK  Name = 
REMARK  6 active torsions:
REMARK  status: ('A' for Active; 'I' for Inactive)
REMARK    1  A    between atoms: C_1  and  O_2
REMARK    2  A    between atoms: O_2  and  C_3
REMARK    3  A    between atoms: C_8  and  C_9
REMARK    4  A    between atoms: C_13  and  N_14
REMARK    5  A    between atoms: N_17  and  C_18
REMARK    6  A    between atoms: N_21  and  C_22
REMARK                            x       y       z     vdW  Elec       q    Type
REMARK                         _______ _______ _______ _____ _____    ______ ____
ROOT
ATOM      1  C   UNL     1       2.577   6.445  19.307  0.00  0.00    +0.000 A 
ATOM      2  C   UNL     1       3.317   6.862  18.179  0.00  0.00    +0.000 A 
ATOM      3  C   UNL     1       3.123   8.114  17.583  0.00  0.00    +0.000 A 
ATOM      4  C   UNL     1       2.196   8.997  18.117  0.00  0.00    +0.000 A 
ATOM      5  C   UNL     1       1.464   8.618  19.235  0.00  0.00    +0.000 A 
ATOM      6  C   UNL     1       1.644   7.359  19.822  0.00  0.00    +0.000 A 
ENDROOT
BRANCH   5   7
ATOM      7  N   UNL     1       0.529   9.516  19.784  0.00  0.00    +0.000 N 
ATOM      8  C   UNL     1      -0.209  10.489  19.001  0.00  0.00    +0.000 C 
ATOM      9  C   UNL     1      -0.598  11.596  19.992  0.00  0.00    +0.000 C 
ATOM     10  N   UNL     1      -0.742  10.968  21.327  0.00  0.00    +0.000 NA
ATOM     11  S   UNL     1       0.207   9.550  21.415  0.00  0.00    +0.000 S 
ATOM     12  O   UNL     1       1.431   9.834  22.117  0.00  0.00    +0.000 OA
ATOM     13  O   UNL     1      -0.666   8.462  21.782  0.00  0.00    +0.000 OA
BRANCH  10  14
ATOM     14  C   UNL     1      -0.800  11.829  22.538  0.00  0.00    +0.000 C 
ATOM     15  C   UNL     1      -2.187  11.880  23.199  0.00  0.00    +0.000 C 
ATOM     16  C   UNL     1      -2.475  13.351  23.488  0.00  0.00    +0.000 C 
ATOM     17  N   UNL     1      -1.171  14.027  23.374  0.00  0.00    +0.000 N 
ATOM     18  C   UNL     1      -0.415  13.302  22.324  0.00  0.00    +0.000 C 
BRANCH  17  19
ATOM     19  C   UNL     1      -0.933  15.294  23.733  0.00  0.00    +0.000 C 
ATOM     20  N   UNL     1      -0.736  16.388  24.050  0.00  0.00    +0.000 NA
ENDBRANCH  17  19
ENDBRANCH  10  14
ENDBRANCH   5   7
BRANCH   1  26
ATOM     21  C   UNL     1       3.688   4.125  19.406  0.00  0.00    +0.000 A 
ATOM     22  C   UNL     1       3.792   2.867  20.027  0.00  0.00    +0.000 A 
ATOM     23  C   UNL     1       2.939   2.506  21.068  0.00  0.00    +0.000 A 
ATOM     24  C   UNL     1       1.993   3.410  21.522  0.00  0.00    +0.000 A 
ATOM     25  C   UNL     1       1.915   4.680  20.945  0.00  0.00    +0.000 A 
ATOM     26  C   UNL     1       2.747   5.075  19.873  0.00  0.00    +0.000 A 
BRANCH  21  28
ATOM     27  C   UNL     1       4.460   3.627  17.219  0.00  0.00    +0.000 C 
ATOM     28  O   UNL     1       4.509   4.480  18.360  0.00  0.00    +0.000 OA
ENDBRANCH  21  28
ENDBRANCH   1  26
TORSDOF 5
ENDMDL
MODEL 6
REMARK VINA RESULT:      -7.6      1.043      1.184
REMARK  Name = 
REMARK  6 active torsions:
REMARK  status: ('A' for Active; 'I' for Inactive)
REMARK    1  A    between atoms: C_1  and  O_2
REMARK    2  A    between atoms: O_2  and  C_3
REMARK    3  A    between atoms: C_8  and  C_9
REMARK    4  A    between atoms: C_13  and  N_14
REMARK    5  A    between atoms: N_17  and  C_18
REMARK    6  A    between atoms: N_21  and  C_22
REMARK                            x       y       z     vdW  Elec       q    Type
REMARK                         _______ _______ _______ _____ _____    ______ ____
ROOT
ATOM      1  C   UNL     1       2.207   6.600  19.478  0.00  0.00    +0.000 A 
ATOM      2  C   UNL     1       2.690   6.982  18.207  0.00  0.00    +0.000 A 
ATOM      3  C   UNL     1       2.508   8.274  17.699  0.00  0.00    +0.000 A 
ATOM      4  C   UNL     1       1.857   9.231  18.463  0.00  0.00    +0.000 A 
ATOM      5  C   UNL     1       1.384   8.887  19.723  0.00  0.00    +0.000 A 
ATOM      6  C   UNL     1       1.550   7.590  20.225  0.00  0.00    +0.000 A 
ENDROOT
BRANCH   5   7
ATOM      7  N   UNL     1       0.731   9.860  20.504  0.00  0.00    +0.000 N 
ATOM      8  C   UNL     1       0.730   9.859  21.955  0.00  0.00    +0.000 C 
ATOM      9  C   UNL     1      -0.524  10.648  22.360  0.00  0.00    +0.000 C 
ATOM     10  N   UNL     1      -0.789  11.641  21.291  0.00  0.00    +0.000 NA
ATOM     11  S   UNL     1      -0.130  11.101  19.810  0.00  0.00    +0.000 S 
ATOM     12  O   UNL     1      -1.174  10.534  18.997  0.00  0.00    +0.000 OA
ATOM     13  O   UNL     1       0.761  12.128  19.327  0.00  0.00    +0.000 OA
BRANCH  10  14
ATOM     14  C   UNL     1      -2.106  12.330  21.243  0.00  0.00    +0.000 C 
ATOM     15  C   UNL     1      -2.082  13.662  20.476  0.00  0.00    +0.000 C 
ATOM     16  C   UNL     1      -2.824  14.675  21.345  0.00  0.00    +0.000 C 
ATOM     17  N   UNL     1      -3.564  13.867  22.330  0.00  0.00    +0.000 N 
ATOM     18  C   UNL     1      -2.724  12.676  22.607  0.00  0.00    +0.000 C 
BRANCH  17  19
ATOM     19  C   UNL     1      -4.493  14.343  23.167  0.00  0.00    +0.000 C 
ATOM     20  N   UNL     1      -5.289  14.752  23.898  0.00  0.00    +0.000 NA
ENDBRANCH  17  19
ENDBRANCH  10  14
ENDBRANCH   5   7
BRANCH   1  26
ATOM     21  C   UNL     1       3.550   4.452  19.935  0.00  0.00    +0.000 A 
ATOM     22  C   UNL     1       3.584   3.140  20.443  0.00  0.00    +0.000 A 
ATOM     23  C   UNL     1       2.429   2.525  20.922  0.00  0.00    +0.000 A 
ATOM     24  C   UNL     1       1.233   3.224  20.929  0.00  0.00    +0.000 A 
ATOM     25  C   UNL     1       1.199   4.544  20.474  0.00  0.00    +0.000 A 
ATOM     26  C   UNL     1       2.344   5.195  19.960  0.00  0.00    +0.000 A 
BRANCH  21  28
ATOM     27  C   UNL     1       5.392   4.320  18.447  0.00  0.00    +0.000 C 
ATOM     28  O   UNL     1       4.680   5.059  19.436  0.00  0.00    +0.000 OA
ENDBRANCH  21  28
ENDBRANCH   1  26
TORSDOF 5
ENDMDL
MODEL 7
REMARK VINA RESULT:      -7.5      1.234      1.593
REMARK  Name = 
REMARK  6 active torsions:
REMARK  status: ('A' for Active; 'I' for Inactive)
REMARK    1  A    between atoms: C_1  and  O_2
REMARK    2  A    between atoms: O_2  and  C_3
REMARK    3  A    between atoms: C_8  and  C_9
REMARK    4  A    between atoms: C_13  and  N_14
REMARK    5  A    between atoms: N_17  and  C_18
REMARK    6  A    between atoms: N_21  and  C_22
REMARK                            x       y       z     vdW  Elec       q    Type
REMARK                         _______ _______ _______ _____ _____    ______ ____
ROOT
ATOM      1  C   UNL     1       2.165   6.934  19.441  0.00  0.00    +0.000 A 
ATOM      2  C   UNL     1       2.292   7.530  18.168  0.00  0.00    +0.000 A 
ATOM      3  C   UNL     1       1.903   8.852  17.922  0.00  0.00    +0.000 A 
ATOM      4  C   UNL     1       1.395   9.625  18.956  0.00  0.00    +0.000 A 
ATOM      5  C   UNL     1       1.272   9.069  20.222  0.00  0.00    +0.000 A 
ATOM      6  C   UNL     1       1.644   7.741  20.465  0.00  0.00    +0.000 A 
ENDROOT
BRANCH   5   7
ATOM      7  N   UNL     1       0.766   9.855  21.275  0.00  0.00    +0.000 N 
ATOM      8  C   UNL     1       0.429   9.328  22.584  0.00  0.00    +0.000 C 
ATOM      9  C   UNL     1      -0.602  10.309  23.163  0.00  0.00    +0.000 C 
ATOM     10  N   UNL     1      -0.313  11.645  22.592  0.00  0.00    +0.000 NA
ATOM     11  S   UNL     1       0.485  11.483  21.090  0.00  0.00    +0.000 S 
ATOM     12  O   UNL     1      -0.460  11.665  20.020  0.00  0.00    +0.000 OA
ATOM     13  O   UNL     1       1.722  12.223  21.170  0.00  0.00    +0.000 OA
BRANCH  10  14
ATOM     14  C   UNL     1      -1.326  12.728  22.715  0.00  0.00    +0.000 C 
ATOM     15  C   UNL     1      -2.776  12.242  22.556  0.00  0.00    +0.000 C 
ATOM     16  C   UNL     1      -3.458  13.221  21.604  0.00  0.00    +0.000 C 
ATOM     17  N   UNL     1      -2.572  14.397  21.562  0.00  0.00    +0.000 N 
ATOM     18  C   UNL     1      -1.189  13.882  21.709  0.00  0.00    +0.000 C 
BRANCH  17  19
ATOM     19  C   UNL     1      -2.882  15.568  20.994  0.00  0.00    +0.000 C 
ATOM     20  N   UNL     1      -3.146  16.577  20.494  0.00  0.00    +0.000 NA
ENDBRANCH  17  19
ENDBRANCH  10  14
ENDBRANCH   5   7
BRANCH   1  26
ATOM     21  C   UNL     1       3.803   4.948  19.461  0.00  0.00    +0.000 A 
ATOM     22  C   UNL     1       4.037   3.585  19.719  0.00  0.00    +0.000 A 
ATOM     23  C   UNL     1       3.001   2.739  20.110  0.00  0.00    +0.000 A 
ATOM     24  C   UNL     1       1.725   3.251  20.279  0.00  0.00    +0.000 A 
ATOM     25  C   UNL     1       1.493   4.613  20.074  0.00  0.00    +0.000 A 
ATOM     26  C   UNL     1       2.512   5.499  19.655  0.00  0.00    +0.000 A 
BRANCH  21  28
ATOM     27  C   UNL     1       6.092   5.176  18.884  0.00  0.00    +0.000 C 
ATOM     28  O   UNL     1       4.814   5.786  19.050  0.00  0.00    +0.000 OA
ENDBRANCH  21  28
ENDBRANCH   1  26
TORSDOF 5
ENDMDL
MODEL 8
REMARK VINA RESULT:      -7.3      2.317      3.972
REMARK  Name = 
REMARK  6 active torsions:
REMARK  status: ('A' for Active; 'I' for Inactive)
REMARK    1  A    between atoms: C_1  and  O_2
REMARK    2  A    between atoms: O_2  and  C_3
REMARK    3  A    between atoms: C_8  and  C_9
REMARK    4  A    between atoms: C_13  and  N_14
REMARK    5  A    between atoms: N_17  and  C_18
REMARK    6  A    between atoms: N_21  and  C_22
REMARK                            x       y       z     vdW  Elec       q    Type
REMARK                         _______ _______ _______ _____ _____    ______ ____
ROOT
ATOM      1  C   UNL     1       3.459   5.770  18.819  0.00  0.00    +0.000 A 
ATOM      2  C   UNL     1       3.147   4.840  19.833  0.00  0.00    +0.000 A 
ATOM      3  C   UNL     1       2.264   5.144  20.877  0.00  0.00    +0.000 A 
ATOM      4  C   UNL     1       1.649   6.386  20.920  0.00  0.00    +0.000 A 
ATOM      5  C   UNL     1       1.928   7.316  19.927  0.00  0.00    +0.000 A 
ATOM      6  C   UNL     1       2.824   7.019  18.892  0.00  0.00    +0.000 A 
ENDROOT
BRANCH   5   7
ATOM      7  N   UNL     1       1.297   8.575  19.964  0.00  0.00    +0.000 N 
ATOM      8  C   UNL     1       1.185   9.453  18.814  0.00  0.00    +0.000 C 
ATOM      9  C   UNL     1       1.018  10.865  19.398  0.00  0.00    +0.000 C 
ATOM     10  N   UNL     1       0.337  10.727  20.707  0.00  0.00    +0.000 NA
ATOM     11  S   UNL     1       0.635   9.178  21.364  0.00  0.00    +0.000 S 
ATOM     12  O   UNL     1       1.673   9.268  22.358  0.00  0.00    +0.000 OA
ATOM     13  O   UNL     1      -0.642   8.561  21.628  0.00  0.00    +0.000 OA
BRANCH  10  14
ATOM     14  C   UNL     1       0.322  11.878  21.649  0.00  0.00    +0.000 C 
ATOM     15  C   UNL     1      -0.870  11.872  22.618  0.00  0.00    +0.000 C 
ATOM     16  C   UNL     1      -1.440  13.288  22.612  0.00  0.00    +0.000 C 
ATOM     17  N   UNL     1      -0.391  14.121  22.002  0.00  0.00    +0.000 N 
ATOM     18  C   UNL     1       0.287  13.269  20.995  0.00  0.00    +0.000 C 
BRANCH  17  19
ATOM     19  C   UNL     1      -0.398  15.459  21.972  0.00  0.00    +0.000 C 
ATOM     20  N   UNL     1      -0.414  16.615  21.951  0.00  0.00    +0.000 NA
ENDBRANCH  17  19
ENDBRANCH  10  14
ENDBRANCH   5   7
BRANCH   1  26
ATOM     21  C   UNL     1       4.371   4.347  16.876  0.00  0.00    +0.000 A 
ATOM     22  C   UNL     1       5.357   4.145  15.894  0.00  0.00    +0.000 A 
ATOM     23  C   UNL     1       6.471   4.978  15.811  0.00  0.00    +0.000 A 
ATOM     24  C   UNL     1       6.596   6.043  16.687  0.00  0.00    +0.000 A 
ATOM     25  C   UNL     1       5.598   6.283  17.633  0.00  0.00    +0.000 A 
ATOM     26  C   UNL     1       4.464   5.447  17.764  0.00  0.00    +0.000 A 
BRANCH  21  28
ATOM     27  C   UNL     1       3.532   2.241  17.573  0.00  0.00    +0.000 C 
ATOM     28  O   UNL     1       3.280   3.514  16.983  0.00  0.00    +0.000 OA
ENDBRANCH  21  28
ENDBRANCH   1  26
TORSDOF 5
ENDMDL
MODEL 9
REMARK VINA RESULT:      -7.3      2.127      2.737
REMARK  Name = 
REMARK  6 active torsions:
REMARK  status: ('A' for Active; 'I' for Inactive)
REMARK    1  A    between atoms: C_1  and  O_2
REMARK    2  A    between atoms: O_2  and  C_3
REMARK    3  A    between atoms: C_8  and  C_9
REMARK    4  A    between atoms: C_13  and  N_14
REMARK    5  A    between atoms: N_17  and  C_18
REMARK    6  A    between atoms: N_21  and  C_22
REMARK                            x       y       z     vdW  Elec       q    Type
REMARK                         _______ _______ _______ _____ _____    ______ ____
ROOT
ATOM      1  C   UNL     1       2.302   6.120  19.299  0.00  0.00    +0.000 A 
ATOM      2  C   UNL     1       3.243   6.374  18.278  0.00  0.00    +0.000 A 
ATOM      3  C   UNL     1       3.376   7.635  17.685  0.00  0.00    +0.000 A 
ATOM      4  C   UNL     1       2.582   8.688  18.116  0.00  0.00    +0.000 A 
ATOM      5  C   UNL     1       1.657   8.469  19.129  0.00  0.00    +0.000 A 
ATOM      6  C   UNL     1       1.511   7.204  19.711  0.00  0.00    +0.000 A 
ENDROOT
BRANCH   5   7
ATOM      7  N   UNL     1       0.857   9.539  19.575  0.00  0.00    +0.000 N 
ATOM      8  C   UNL     1       0.393  10.611  18.714  0.00  0.00    +0.000 C 
ATOM      9  C   UNL     1       0.123  11.797  19.653  0.00  0.00    +0.000 C 
ATOM     10  N   UNL     1      -0.265  11.240  20.971  0.00  0.00    +0.000 NA
ATOM     11  S   UNL     1       0.389   9.674  21.164  0.00  0.00    +0.000 S 
ATOM     12  O   UNL     1       1.571   9.744  21.984  0.00  0.00    +0.000 OA
ATOM     13  O   UNL     1      -0.703   8.776  21.450  0.00  0.00    +0.000 OA
BRANCH  10  14
ATOM     14  C   UNL     1      -0.280  12.128  22.164  0.00  0.00    +0.000 C 
ATOM     15  C   UNL     1      -1.544  11.989  23.027  0.00  0.00    +0.000 C 
ATOM     16  C   UNL     1      -2.016  13.407  23.335  0.00  0.00    +0.000 C 
ATOM     17  N   UNL     1      -0.868  14.272  23.015  0.00  0.00    +0.000 N 
ATOM     18  C   UNL     1      -0.170  13.633  21.873  0.00  0.00    +0.000 C 
BRANCH  17  19
ATOM     19  C   UNL     1      -0.784  15.574  23.314  0.00  0.00    +0.000 C 
ATOM     20  N   UNL     1      -0.721  16.700  23.567  0.00  0.00    +0.000 NA
ENDBRANCH  17  19
ENDBRANCH  10  14
ENDBRANCH   5   7
BRANCH   1  26
ATOM     21  C   UNL     1       1.778   3.608  19.092  0.00  0.00    +0.000 A 
ATOM     22  C   UNL     1       1.666   2.348  19.708  0.00  0.00    +0.000 A 
ATOM     23  C   UNL     1       1.835   2.203  21.083  0.00  0.00    +0.000 A 
ATOM     24  C   UNL     1       2.149   3.309  21.856  0.00  0.00    +0.000 A 
ATOM     25  C   UNL     1       2.312   4.555  21.246  0.00  0.00    +0.000 A 
ATOM     26  C   UNL     1       2.127   4.748  19.857  0.00  0.00    +0.000 A 
BRANCH  21  28
ATOM     27  C   UNL     1       2.576   3.169  16.902  0.00  0.00    +0.000 C 
ATOM     28  O   UNL     1       1.587   3.766  17.738  0.00  0.00    +0.000 OA
ENDBRANCH  21  28
ENDBRANCH   1  26
TORSDOF 5
ENDMDL
