MODEL 1
REMARK VINA RESULT:      -8.4      0.000      0.000
REMARK  Name = 
REMARK  4 active torsions:
REMARK  status: ('A' for Active; 'I' for Inactive)
REMARK    1  A    between atoms: C_2  and  C_18
REMARK    2  A    between atoms: N_3  and  C_4
REMARK    3  A    between atoms: N_8  and  C_9
REMARK    4  A    between atoms: C_9  and  C_10
REMARK                            x       y       z     vdW  Elec       q    Type
REMARK                         _______ _______ _______ _____ _____    ______ ____
ROOT
ATOM      1  O   UNL     1       6.346   4.505  19.010  0.00  0.00    +0.000 OA
ATOM      2  C   UNL     1       5.578   4.260  18.077  0.00  0.00    +0.000 C 
ATOM      3  N   UNL     1       4.388   3.607  18.263  0.00  0.00    +0.000 N 
ATOM      4  H   UNL     1       3.877   3.273  17.445  0.00  0.00    +0.000 HD
ENDROOT
BRANCH   2   5
ATOM      5  C   UNL     1       5.956   4.599  16.682  0.00  0.00    +0.000 A 
ATOM      6  C   UNL     1       7.019   5.394  16.487  0.00  0.00    +0.000 A 
ATOM      7  N   UNL     1       7.618   5.630  15.279  0.00  0.00    +0.000 NA
ATOM      8  C   UNL     1       7.152   4.977  14.260  0.00  0.00    +0.000 A 
ATOM      9  C   UNL     1       7.852   5.093  12.953  0.00  0.00    +0.000 A 
ATOM     10  C   UNL     1       7.389   4.431  11.886  0.00  0.00    +0.000 A 
ATOM     11  C   UNL     1       6.216   3.612  11.982  0.00  0.00    +0.000 A 
ATOM     12  C   UNL     1       5.578   3.496  13.166  0.00  0.00    +0.000 A 
ATOM     13  N   UNL     1       6.030   4.156  14.300  0.00  0.00    +0.000 N 
ATOM     14  C   UNL     1       5.320   4.006  15.488  0.00  0.00    +0.000 A 
ATOM     15  O   UNL     1       4.264   3.380  15.593  0.00  0.00    +0.000 OA
ENDBRANCH   2   5
BRANCH   3  16
ATOM     16  C   UNL     1       3.930   3.142  19.578  0.00  0.00    +0.000 C 
ATOM     17  C   UNL     1       2.843   2.069  19.450  0.00  0.00    +0.000 C 
ATOM     18  C   UNL     1       1.655   2.684  18.724  0.00  0.00    +0.000 C 
ATOM     19  C   UNL     1       1.104   3.860  19.532  0.00  0.00    +0.000 C 
ATOM     20  N   UNL     1       2.098   4.892  19.900  0.00  0.00    +0.000 NA
ATOM     21  C   UNL     1       3.342   4.288  20.447  0.00  0.00    +0.000 C 
BRANCH  20  22
ATOM     22  C   UNL     1       1.489   5.836  20.886  0.00  0.00    +0.000 C 
BRANCH  22  23
ATOM     23  C   UNL     1       1.497   7.292  20.437  0.00  0.00    +0.000 A 
ATOM     24  C   UNL     1       0.891   8.289  21.216  0.00  0.00    +0.000 A 
ATOM     25  C   UNL     1       0.664   9.564  20.689  0.00  0.00    +0.000 A 
ATOM     26  C   UNL     1       1.131   9.883  19.417  0.00  0.00    +0.000 A 
ATOM     27 CL   UNL     1       0.799  11.432  18.747  0.00  0.00    +0.000 Cl
ATOM     28  C   UNL     1       1.852   8.944  18.682  0.00  0.00    +0.000 A 
ATOM     29  C   UNL     1       2.025   7.649  19.183  0.00  0.00    +0.000 A 
ENDBRANCH  22  23
ENDBRANCH  20  22
ENDBRANCH   3  16
TORSDOF 4
ENDMDL
MODEL 2
REMARK VINA RESULT:      -7.9      3.324      7.876
REMARK  Name = 
REMARK  4 active torsions:
REMARK  status: ('A' for Active; 'I' for Inactive)
REMARK    1  A    between atoms: C_2  and  C_18
REMARK    2  A    between atoms: N_3  and  C_4
REMARK    3  A    between atoms: N_8  and  C_9
REMARK    4  A    between atoms: C_9  and  C_10
REMARK                            x       y       z     vdW  Elec       q    Type
REMARK                         _______ _______ _______ _____ _____    ______ ____
ROOT
ATOM      1  O   UNL     1       2.975   7.596  17.318  0.00  0.00    +0.000 OA
ATOM      2  C   UNL     1       2.299   7.338  18.316  0.00  0.00    +0.000 C 
ATOM      3  N   UNL     1       1.901   6.063  18.620  0.00  0.00    +0.000 N 
ATOM      4  H   UNL     1       1.200   5.928  19.351  0.00  0.00    +0.000 HD
ENDROOT
BRANCH   2   5
ATOM      5  C   UNL     1       1.816   8.430  19.199  0.00  0.00    +0.000 A 
ATOM      6  C   UNL     1       1.614   9.642  18.659  0.00  0.00    +0.000 A 
ATOM      7  N   UNL     1       0.982  10.686  19.278  0.00  0.00    +0.000 NA
ATOM      8  C   UNL     1       0.486  10.455  20.453  0.00  0.00    +0.000 A 
ATOM      9  C   UNL     1      -0.328  11.512  21.110  0.00  0.00    +0.000 A 
ATOM     10  C   UNL     1      -0.849  11.297  22.325  0.00  0.00    +0.000 A 
ATOM     11  C   UNL     1      -0.627  10.057  23.010  0.00  0.00    +0.000 A 
ATOM     12  C   UNL     1       0.105   9.089  22.418  0.00  0.00    +0.000 A 
ATOM     13  N   UNL     1       0.654   9.266  21.156  0.00  0.00    +0.000 N 
ATOM     14  C   UNL     1       1.410   8.235  20.606  0.00  0.00    +0.000 A 
ATOM     15  O   UNL     1       1.693   7.189  21.194  0.00  0.00    +0.000 OA
ENDBRANCH   2   5
BRANCH   3  16
ATOM     16  C   UNL     1       2.238   4.902  17.788  0.00  0.00    +0.000 C 
ATOM     17  C   UNL     1       1.884   3.585  18.487  0.00  0.00    +0.000 C 
ATOM     18  C   UNL     1       2.694   3.499  19.772  0.00  0.00    +0.000 C 
ATOM     19  C   UNL     1       4.189   3.506  19.446  0.00  0.00    +0.000 C 
ATOM     20  N   UNL     1       4.644   4.632  18.602  0.00  0.00    +0.000 NA
ATOM     21  C   UNL     1       3.750   4.840  17.433  0.00  0.00    +0.000 C 
BRANCH  20  22
ATOM     22  C   UNL     1       6.049   4.380  18.157  0.00  0.00    +0.000 C 
BRANCH  22  23
ATOM     23  C   UNL     1       6.910   5.636  18.082  0.00  0.00    +0.000 A 
ATOM     24  C   UNL     1       7.851   5.924  19.080  0.00  0.00    +0.000 A 
ATOM     25  C   UNL     1       8.445   7.188  19.154  0.00  0.00    +0.000 A 
ATOM     26  C   UNL     1       8.179   8.138  18.174  0.00  0.00    +0.000 A 
ATOM     27 CL   UNL     1       8.862   9.712  18.300  0.00  0.00    +0.000 Cl
ATOM     28  C   UNL     1       7.347   7.823  17.101  0.00  0.00    +0.000 A 
ATOM     29  C   UNL     1       6.704   6.580  17.060  0.00  0.00    +0.000 A 
ENDBRANCH  22  23
ENDBRANCH  20  22
ENDBRANCH   3  16
TORSDOF 4
ENDMDL
MODEL 3
REMARK VINA RESULT:      -7.8      3.585      8.714
REMARK  Name = 
REMARK  4 active torsions:
REMARK  status: ('A' for Active; 'I' for Inactive)
REMARK    1  A    between atoms: C_2  and  C_18
REMARK    2  A    between atoms: N_3  and  C_4
REMARK    3  A    between atoms: N_8  and  C_9
REMARK    4  A    between atoms: C_9  and  C_10
REMARK                            x       y       z     vdW  Elec       q    Type
REMARK                         _______ _______ _______ _____ _____    ______ ____
ROOT
ATOM      1  O   UNL     1       2.285   8.776  17.269  0.00  0.00    +0.000 OA
ATOM      2  C   UNL     1       1.936   8.424  18.398  0.00  0.00    +0.000 C 
ATOM      3  N   UNL     1       1.930   7.110  18.785  0.00  0.00    +0.000 N 
ATOM      4  H   UNL     1       1.469   6.858  19.660  0.00  0.00    +0.000 HD
ENDROOT
BRANCH   2   5
ATOM      5  C   UNL     1       1.425   9.422  19.372  0.00  0.00    +0.000 A 
ATOM      6  C   UNL     1       1.219  10.678  18.946  0.00  0.00    +0.000 A 
ATOM      7  N   UNL     1       0.565  11.652  19.650  0.00  0.00    +0.000 NA
ATOM      8  C   UNL     1       0.051  11.305  20.788  0.00  0.00    +0.000 A 
ATOM      9  C   UNL     1      -0.786  12.287  21.528  0.00  0.00    +0.000 A 
ATOM     10  C   UNL     1      -1.325  11.952  22.707  0.00  0.00    +0.000 A 
ATOM     11  C   UNL     1      -1.101  10.654  23.274  0.00  0.00    +0.000 A 
ATOM     12  C   UNL     1      -0.348   9.754  22.606  0.00  0.00    +0.000 A 
ATOM     13  N   UNL     1       0.221  10.056  21.378  0.00  0.00    +0.000 N 
ATOM     14  C   UNL     1       0.997   9.089  20.746  0.00  0.00    +0.000 A 
ATOM     15  O   UNL     1       1.282   7.995  21.236  0.00  0.00    +0.000 OA
ENDBRANCH   2   5
BRANCH   3  16
ATOM     16  C   UNL     1       2.332   6.014  17.895  0.00  0.00    +0.000 C 
ATOM     17  C   UNL     1       1.867   4.655  18.429  0.00  0.00    +0.000 C 
ATOM     18  C   UNL     1       2.523   4.430  19.783  0.00  0.00    +0.000 C 
ATOM     19  C   UNL     1       4.045   4.413  19.628  0.00  0.00    +0.000 C 
ATOM     20  N   UNL     1       4.622   5.591  18.944  0.00  0.00    +0.000 NA
ATOM     21  C   UNL     1       3.872   5.930  17.706  0.00  0.00    +0.000 C 
BRANCH  20  22
ATOM     22  C   UNL     1       6.061   5.330  18.638  0.00  0.00    +0.000 C 
BRANCH  22  23
ATOM     23  C   UNL     1       6.313   4.829  17.220  0.00  0.00    +0.000 A 
ATOM     24  C   UNL     1       7.165   5.526  16.351  0.00  0.00    +0.000 A 
ATOM     25  C   UNL     1       7.190   5.225  14.986  0.00  0.00    +0.000 A 
ATOM     26  C   UNL     1       6.439   4.161  14.496  0.00  0.00    +0.000 A 
ATOM     27 CL   UNL     1       6.423   3.831  12.808  0.00  0.00    +0.000 Cl
ATOM     28  C   UNL     1       5.688   3.375  15.368  0.00  0.00    +0.000 A 
ATOM     29  C   UNL     1       5.614   3.714  16.724  0.00  0.00    +0.000 A 
ENDBRANCH  22  23
ENDBRANCH  20  22
ENDBRANCH   3  16
TORSDOF 4
ENDMDL
MODEL 4
REMARK VINA RESULT:      -7.3      3.471      8.567
REMARK  Name = 
REMARK  4 active torsions:
REMARK  status: ('A' for Active; 'I' for Inactive)
REMARK    1  A    between atoms: C_2  and  C_18
REMARK    2  A    between atoms: N_3  and  C_4
REMARK    3  A    between atoms: N_8  and  C_9
REMARK    4  A    between atoms: C_9  and  C_10
REMARK                            x       y       z     vdW  Elec       q    Type
REMARK                         _______ _______ _______ _____ _____    ______ ____
ROOT
ATOM      1  O   UNL     1       2.456   8.223  17.260  0.00  0.00    +0.000 OA
ATOM      2  C   UNL     1       2.057   7.899  18.381  0.00  0.00    +0.000 C 
ATOM      3  N   UNL     1       1.923   6.589  18.758  0.00  0.00    +0.000 N 
ATOM      4  H   UNL     1       1.426   6.374  19.623  0.00  0.00    +0.000 HD
ENDROOT
BRANCH   2   5
ATOM      5  C   UNL     1       1.624   8.934  19.354  0.00  0.00    +0.000 A 
ATOM      6  C   UNL     1       1.523  10.202  18.929  0.00  0.00    +0.000 A 
ATOM      7  N   UNL     1       0.946  11.226  19.631  0.00  0.00    +0.000 NA
ATOM      8  C   UNL     1       0.400  10.920  20.766  0.00  0.00    +0.000 A 
ATOM      9  C   UNL     1      -0.358  11.966  21.504  0.00  0.00    +0.000 A 
ATOM     10  C   UNL     1      -0.928  11.674  22.680  0.00  0.00    +0.000 A 
ATOM     11  C   UNL     1      -0.812  10.362  23.246  0.00  0.00    +0.000 A 
ATOM     12  C   UNL     1      -0.132   9.405  22.580  0.00  0.00    +0.000 A 
ATOM     13  N   UNL     1       0.465   9.661  21.355  0.00  0.00    +0.000 N 
ATOM     14  C   UNL     1       1.164   8.635  20.725  0.00  0.00    +0.000 A 
ATOM     15  O   UNL     1       1.357   7.521  21.216  0.00  0.00    +0.000 OA
ENDBRANCH   2   5
BRANCH   3  16
ATOM     16  C   UNL     1       2.237   5.466  17.866  0.00  0.00    +0.000 C 
ATOM     17  C   UNL     1       1.899   4.119  18.515  0.00  0.00    +0.000 C 
ATOM     18  C   UNL     1       2.742   3.974  19.773  0.00  0.00    +0.000 C 
ATOM     19  C   UNL     1       4.228   3.995  19.408  0.00  0.00    +0.000 C 
ATOM     20  N   UNL     1       4.663   5.158  18.603  0.00  0.00    +0.000 NA
ATOM     21  C   UNL     1       3.738   5.418  17.468  0.00  0.00    +0.000 C 
BRANCH  20  22
ATOM     22  C   UNL     1       6.055   4.925  18.111  0.00  0.00    +0.000 C 
BRANCH  22  23
ATOM     23  C   UNL     1       6.165   4.806  16.596  0.00  0.00    +0.000 A 
ATOM     24  C   UNL     1       5.484   3.796  15.901  0.00  0.00    +0.000 A 
ATOM     25  C   UNL     1       5.789   3.522  14.565  0.00  0.00    +0.000 A 
ATOM     26  C   UNL     1       6.704   4.319  13.884  0.00  0.00    +0.000 A 
ATOM     27 CL   UNL     1       7.123   3.942  12.258  0.00  0.00    +0.000 Cl
ATOM     28  C   UNL     1       7.292   5.409  14.521  0.00  0.00    +0.000 A 
ATOM     29  C   UNL     1       7.034   5.646  15.876  0.00  0.00    +0.000 A 
ENDBRANCH  22  23
ENDBRANCH  20  22
ENDBRANCH   3  16
TORSDOF 4
ENDMDL
MODEL 5
REMARK VINA RESULT:      -7.1      8.539     10.563
REMARK  Name = 
REMARK  4 active torsions:
REMARK  status: ('A' for Active; 'I' for Inactive)
REMARK    1  A    between atoms: C_2  and  C_18
REMARK    2  A    between atoms: N_3  and  C_4
REMARK    3  A    between atoms: N_8  and  C_9
REMARK    4  A    between atoms: C_9  and  C_10
REMARK                            x       y       z     vdW  Elec       q    Type
REMARK                         _______ _______ _______ _____ _____    ______ ____
ROOT
ATOM      1  O   UNL     1      -0.906  11.025  20.118  0.00  0.00    +0.000 OA
ATOM      2  C   UNL     1      -0.625  11.546  19.037  0.00  0.00    +0.000 C 
ATOM      3  N   UNL     1      -1.229  11.169  17.866  0.00  0.00    +0.000 N 
ATOM      4  H   UNL     1      -0.839  11.500  16.983  0.00  0.00    +0.000 HD
ENDROOT
BRANCH   2   5
ATOM      5  C   UNL     1       0.453  12.563  18.948  0.00  0.00    +0.000 A 
ATOM      6  C   UNL     1       1.679  12.160  18.581  0.00  0.00    +0.000 A 
ATOM      7  N   UNL     1       2.717  12.989  18.254  0.00  0.00    +0.000 NA
ATOM      8  C   UNL     1       2.465  14.261  18.238  0.00  0.00    +0.000 A 
ATOM      9  C   UNL     1       3.518  15.195  17.758  0.00  0.00    +0.000 A 
ATOM     10  C   UNL     1       3.283  16.513  17.734  0.00  0.00    +0.000 A 
ATOM     11  C   UNL     1       2.025  17.042  18.174  0.00  0.00    +0.000 A 
ATOM     12  C   UNL     1       1.061  16.201  18.605  0.00  0.00    +0.000 A 
ATOM     13  N   UNL     1       1.259  14.828  18.637  0.00  0.00    +0.000 N 
ATOM     14  C   UNL     1       0.231  14.015  19.105  0.00  0.00    +0.000 A 
ATOM     15  O   UNL     1      -0.831  14.434  19.569  0.00  0.00    +0.000 OA
ENDBRANCH   2   5
BRANCH   3  16
ATOM     16  C   UNL     1      -2.251  10.117  17.798  0.00  0.00    +0.000 C 
ATOM     17  C   UNL     1      -2.310   9.477  16.407  0.00  0.00    +0.000 C 
ATOM     18  C   UNL     1      -2.676  10.560  15.402  0.00  0.00    +0.000 C 
ATOM     19  C   UNL     1      -4.049  11.143  15.743  0.00  0.00    +0.000 C 
ATOM     20  N   UNL     1      -4.200  11.629  17.132  0.00  0.00    +0.000 NA
ATOM     21  C   UNL     1      -3.677  10.647  18.119  0.00  0.00    +0.000 C 
BRANCH  20  22
ATOM     22  C   UNL     1      -5.639  11.930  17.397  0.00  0.00    +0.000 C 
BRANCH  22  23
ATOM     23  C   UNL     1      -6.042  11.800  18.861  0.00  0.00    +0.000 A 
ATOM     24  C   UNL     1      -6.987  10.847  19.266  0.00  0.00    +0.000 A 
ATOM     25  C   UNL     1      -7.550  10.902  20.544  0.00  0.00    +0.000 A 
ATOM     26  C   UNL     1      -7.100  11.847  21.461  0.00  0.00    +0.000 A 
ATOM     27 CL   UNL     1      -7.835  11.952  23.013  0.00  0.00    +0.000 Cl
ATOM     28  C   UNL     1      -6.067  12.717  21.118  0.00  0.00    +0.000 A 
ATOM     29  C   UNL     1      -5.547  12.704  19.819  0.00  0.00    +0.000 A 
ENDBRANCH  22  23
ENDBRANCH  20  22
ENDBRANCH   3  16
TORSDOF 4
ENDMDL
MODEL 6
REMARK VINA RESULT:      -7.1      4.237      7.246
REMARK  Name = 
REMARK  4 active torsions:
REMARK  status: ('A' for Active; 'I' for Inactive)
REMARK    1  A    between atoms: C_2  and  C_18
REMARK    2  A    between atoms: N_3  and  C_4
REMARK    3  A    between atoms: N_8  and  C_9
REMARK    4  A    between atoms: C_9  and  C_10
REMARK                            x       y       z     vdW  Elec       q    Type
REMARK                         _______ _______ _______ _____ _____    ______ ____
ROOT
ATOM      1  O   UNL     1       2.333   9.191  17.388  0.00  0.00    +0.000 OA
ATOM      2  C   UNL     1       1.940   8.662  18.430  0.00  0.00    +0.000 C 
ATOM      3  N   UNL     1       1.413   9.389  19.464  0.00  0.00    +0.000 N 
ATOM      4  H   UNL     1       1.269   8.930  20.364  0.00  0.00    +0.000 HD
ENDROOT
BRANCH   2   5
ATOM      5  C   UNL     1       2.097   7.200  18.637  0.00  0.00    +0.000 A 
ATOM      6  C   UNL     1       2.677   6.479  17.665  0.00  0.00    +0.000 A 
ATOM      7  N   UNL     1       3.081   5.177  17.783  0.00  0.00    +0.000 NA
ATOM      8  C   UNL     1       2.946   4.627  18.949  0.00  0.00    +0.000 A 
ATOM      9  C   UNL     1       3.492   3.261  19.166  0.00  0.00    +0.000 A 
ATOM     10  C   UNL     1       3.363   2.671  20.362  0.00  0.00    +0.000 A 
ATOM     11  C   UNL     1       2.694   3.338  21.440  0.00  0.00    +0.000 A 
ATOM     12  C   UNL     1       2.200   4.581  21.254  0.00  0.00    +0.000 A 
ATOM     13  N   UNL     1       2.322   5.233  20.035  0.00  0.00    +0.000 N 
ATOM     14  C   UNL     1       1.780   6.508  19.903  0.00  0.00    +0.000 A 
ATOM     15  O   UNL     1       1.126   7.081  20.776  0.00  0.00    +0.000 OA
ENDBRANCH   2   5
BRANCH   3  16
ATOM     16  C   UNL     1       1.278  10.850  19.425  0.00  0.00    +0.000 C 
ATOM     17  C   UNL     1       1.349  11.461  20.829  0.00  0.00    +0.000 C 
ATOM     18  C   UNL     1       0.196  10.900  21.648  0.00  0.00    +0.000 C 
ATOM     19  C   UNL     1      -1.137  11.284  21.003  0.00  0.00    +0.000 C 
ATOM     20  N   UNL     1      -1.271  10.924  19.574  0.00  0.00    +0.000 NA
ATOM     21  C   UNL     1      -0.066  11.309  18.794  0.00  0.00    +0.000 C 
BRANCH  20  22
ATOM     22  C   UNL     1      -2.496  11.572  19.014  0.00  0.00    +0.000 C 
BRANCH  22  23
ATOM     23  C   UNL     1      -2.937  11.008  17.669  0.00  0.00    +0.000 A 
ATOM     24  C   UNL     1      -2.206   9.990  17.040  0.00  0.00    +0.000 A 
ATOM     25  C   UNL     1      -2.450   9.660  15.704  0.00  0.00    +0.000 A 
ATOM     26  C   UNL     1      -3.492  10.274  15.017  0.00  0.00    +0.000 A 
ATOM     27 CL   UNL     1      -3.752   9.911  13.355  0.00  0.00    +0.000 Cl
ATOM     28  C   UNL     1      -4.313  11.193  15.667  0.00  0.00    +0.000 A 
ATOM     29  C   UNL     1      -4.031  11.569  16.985  0.00  0.00    +0.000 A 
ENDBRANCH  22  23
ENDBRANCH  20  22
ENDBRANCH   3  16
TORSDOF 4
ENDMDL
MODEL 7
REMARK VINA RESULT:      -7.1      4.064      7.142
REMARK  Name = 
REMARK  4 active torsions:
REMARK  status: ('A' for Active; 'I' for Inactive)
REMARK    1  A    between atoms: C_2  and  C_18
REMARK    2  A    between atoms: N_3  and  C_4
REMARK    3  A    between atoms: N_8  and  C_9
REMARK    4  A    between atoms: C_9  and  C_10
REMARK                            x       y       z     vdW  Elec       q    Type
REMARK                         _______ _______ _______ _____ _____    ______ ____
ROOT
ATOM      1  O   UNL     1       2.875   8.872  17.870  0.00  0.00    +0.000 OA
ATOM      2  C   UNL     1       2.124   8.444  18.750  0.00  0.00    +0.000 C 
ATOM      3  N   UNL     1       1.260   9.259  19.432  0.00  0.00    +0.000 N 
ATOM      4  H   UNL     1       0.793   8.894  20.263  0.00  0.00    +0.000 HD
ENDROOT
BRANCH   2   5
ATOM      5  C   UNL     1       2.186   7.020  19.164  0.00  0.00    +0.000 A 
ATOM      6  C   UNL     1       1.626   6.674  20.334  0.00  0.00    +0.000 A 
ATOM      7  N   UNL     1       1.415   5.390  20.758  0.00  0.00    +0.000 NA
ATOM      8  C   UNL     1       1.724   4.443  19.928  0.00  0.00    +0.000 A 
ATOM      9  C   UNL     1       1.389   3.038  20.285  0.00  0.00    +0.000 A 
ATOM     10  C   UNL     1       1.700   2.043  19.445  0.00  0.00    +0.000 A 
ATOM     11  C   UNL     1       2.363   2.311  18.203  0.00  0.00    +0.000 A 
ATOM     12  C   UNL     1       2.665   3.584  17.868  0.00  0.00    +0.000 A 
ATOM     13  N   UNL     1       2.352   4.646  18.703  0.00  0.00    +0.000 N 
ATOM     14  C   UNL     1       2.702   5.933  18.307  0.00  0.00    +0.000 A 
ATOM     15  O   UNL     1       3.345   6.198  17.290  0.00  0.00    +0.000 OA
ENDBRANCH   2   5
BRANCH   3  16
ATOM     16  C   UNL     1       1.156  10.702  19.181  0.00  0.00    +0.000 C 
ATOM     17  C   UNL     1       1.385  11.515  20.459  0.00  0.00    +0.000 C 
ATOM     18  C   UNL     1       0.308  11.131  21.464  0.00  0.00    +0.000 C 
ATOM     19  C   UNL     1      -1.074  11.465  20.899  0.00  0.00    +0.000 C 
ATOM     20  N   UNL     1      -1.362  10.898  19.562  0.00  0.00    +0.000 NA
ATOM     21  C   UNL     1      -0.233  11.113  18.619  0.00  0.00    +0.000 C 
BRANCH  20  22
ATOM     22  C   UNL     1      -2.620  11.503  19.030  0.00  0.00    +0.000 C 
BRANCH  22  23
ATOM     23  C   UNL     1      -3.045  10.958  17.672  0.00  0.00    +0.000 A 
ATOM     24  C   UNL     1      -2.377   9.870  17.092  0.00  0.00    +0.000 A 
ATOM     25  C   UNL     1      -2.584   9.541  15.749  0.00  0.00    +0.000 A 
ATOM     26  C   UNL     1      -3.533  10.234  15.004  0.00  0.00    +0.000 A 
ATOM     27 CL   UNL     1      -3.743   9.869  13.335  0.00  0.00    +0.000 Cl
ATOM     28  C   UNL     1      -4.299  11.232  15.601  0.00  0.00    +0.000 A 
ATOM     29  C   UNL     1      -4.049  11.603  16.927  0.00  0.00    +0.000 A 
ENDBRANCH  22  23
ENDBRANCH  20  22
ENDBRANCH   3  16
TORSDOF 4
ENDMDL
MODEL 8
REMARK VINA RESULT:      -7.0      4.446      8.091
REMARK  Name = 
REMARK  4 active torsions:
REMARK  status: ('A' for Active; 'I' for Inactive)
REMARK    1  A    between atoms: C_2  and  C_18
REMARK    2  A    between atoms: N_3  and  C_4
REMARK    3  A    between atoms: N_8  and  C_9
REMARK    4  A    between atoms: C_9  and  C_10
REMARK                            x       y       z     vdW  Elec       q    Type
REMARK                         _______ _______ _______ _____ _____    ______ ____
ROOT
ATOM      1  O   UNL     1       3.585   5.285  17.241  0.00  0.00    +0.000 OA
ATOM      2  C   UNL     1       3.764   6.355  17.826  0.00  0.00    +0.000 C 
ATOM      3  N   UNL     1       4.957   7.026  17.771  0.00  0.00    +0.000 N 
ATOM      4  H   UNL     1       5.111   7.807  18.410  0.00  0.00    +0.000 HD
ENDROOT
BRANCH   2   5
ATOM      5  C   UNL     1       2.701   6.928  18.690  0.00  0.00    +0.000 A 
ATOM      6  C   UNL     1       2.375   6.272  19.815  0.00  0.00    +0.000 A 
ATOM      7  N   UNL     1       1.577   6.764  20.812  0.00  0.00    +0.000 NA
ATOM      8  C   UNL     1       1.162   7.985  20.678  0.00  0.00    +0.000 A 
ATOM      9  C   UNL     1       0.406   8.613  21.795  0.00  0.00    +0.000 A 
ATOM     10  C   UNL     1      -0.034   9.872  21.679  0.00  0.00    +0.000 A 
ATOM     11  C   UNL     1       0.207  10.628  20.484  0.00  0.00    +0.000 A 
ATOM     12  C   UNL     1       0.898  10.068  19.469  0.00  0.00    +0.000 A 
ATOM     13  N   UNL     1       1.381   8.770  19.550  0.00  0.00    +0.000 N 
ATOM     14  C   UNL     1       2.074   8.246  18.463  0.00  0.00    +0.000 A 
ATOM     15  O   UNL     1       2.230   8.830  17.389  0.00  0.00    +0.000 OA
ENDBRANCH   2   5
BRANCH   3  16
ATOM     16  C   UNL     1       6.118   6.531  17.022  0.00  0.00    +0.000 C 
ATOM     17  C   UNL     1       6.805   5.370  17.749  0.00  0.00    +0.000 C 
ATOM     18  C   UNL     1       7.293   5.878  19.097  0.00  0.00    +0.000 C 
ATOM     19  C   UNL     1       8.304   7.008  18.892  0.00  0.00    +0.000 C 
ATOM     20  N   UNL     1       7.839   8.122  18.037  0.00  0.00    +0.000 NA
ATOM     21  C   UNL     1       7.194   7.628  16.792  0.00  0.00    +0.000 C 
BRANCH  20  22
ATOM     22  C   UNL     1       8.993   9.016  17.718  0.00  0.00    +0.000 C 
BRANCH  22  23
ATOM     23  C   UNL     1       9.012  10.314  18.516  0.00  0.00    +0.000 A 
ATOM     24  C   UNL     1       8.746  11.544  17.897  0.00  0.00    +0.000 A 
ATOM     25  C   UNL     1       9.020  12.746  18.556  0.00  0.00    +0.000 A 
ATOM     26  C   UNL     1       9.467  12.730  19.873  0.00  0.00    +0.000 A 
ATOM     27 CL   UNL     1       9.862  14.207  20.661  0.00  0.00    +0.000 Cl
ATOM     28  C   UNL     1       9.611  11.519  20.547  0.00  0.00    +0.000 A 
ATOM     29  C   UNL     1       9.396  10.313  19.870  0.00  0.00    +0.000 A 
ENDBRANCH  22  23
ENDBRANCH  20  22
ENDBRANCH   3  16
TORSDOF 4
ENDMDL
MODEL 9
REMARK VINA RESULT:      -6.8      8.335     10.334
REMARK  Name = 
REMARK  4 active torsions:
REMARK  status: ('A' for Active; 'I' for Inactive)
REMARK    1  A    between atoms: C_2  and  C_18
REMARK    2  A    between atoms: N_3  and  C_4
REMARK    3  A    between atoms: N_8  and  C_9
REMARK    4  A    between atoms: C_9  and  C_10
REMARK                            x       y       z     vdW  Elec       q    Type
REMARK                         _______ _______ _______ _____ _____    ______ ____
ROOT
ATOM      1  O   UNL     1      -0.853  10.627  19.781  0.00  0.00    +0.000 OA
ATOM      2  C   UNL     1      -0.554  11.245  18.757  0.00  0.00    +0.000 C 
ATOM      3  N   UNL     1      -1.095  10.941  17.536  0.00  0.00    +0.000 N 
ATOM      4  H   UNL     1      -0.686  11.360  16.700  0.00  0.00    +0.000 HD
ENDROOT
BRANCH   2   5
ATOM      5  C   UNL     1       0.481  12.310  18.797  0.00  0.00    +0.000 A 
ATOM      6  C   UNL     1       1.734  11.991  18.438  0.00  0.00    +0.000 A 
ATOM      7  N   UNL     1       2.745  12.888  18.221  0.00  0.00    +0.000 NA
ATOM      8  C   UNL     1       2.438  14.145  18.308  0.00  0.00    +0.000 A 
ATOM      9  C   UNL     1       3.464  15.160  17.949  0.00  0.00    +0.000 A 
ATOM     10  C   UNL     1       3.172  16.464  18.034  0.00  0.00    +0.000 A 
ATOM     11  C   UNL     1       1.879  16.900  18.476  0.00  0.00    +0.000 A 
ATOM     12  C   UNL     1       0.941  15.985  18.798  0.00  0.00    +0.000 A 
ATOM     13  N   UNL     1       1.197  14.624  18.714  0.00  0.00    +0.000 N 
ATOM     14  C   UNL     1       0.191  13.731  19.073  0.00  0.00    +0.000 A 
ATOM     15  O   UNL     1      -0.902  14.063  19.536  0.00  0.00    +0.000 OA
ENDBRANCH   2   5
BRANCH   3  16
ATOM     16  C   UNL     1      -2.067   9.858  17.341  0.00  0.00    +0.000 C 
ATOM     17  C   UNL     1      -2.414   9.672  15.860  0.00  0.00    +0.000 C 
ATOM     18  C   UNL     1      -3.037  10.965  15.354  0.00  0.00    +0.000 C 
ATOM     19  C   UNL     1      -4.318  11.265  16.135  0.00  0.00    +0.000 C 
ATOM     20  N   UNL     1      -4.170  11.284  17.607  0.00  0.00    +0.000 NA
ATOM     21  C   UNL     1      -3.401  10.109  18.096  0.00  0.00    +0.000 C 
BRANCH  20  22
ATOM     22  C   UNL     1      -5.523  11.334  18.239  0.00  0.00    +0.000 C 
BRANCH  22  23
ATOM     23  C   UNL     1      -5.550  12.041  19.589  0.00  0.00    +0.000 A 
ATOM     24  C   UNL     1      -4.429  12.739  20.060  0.00  0.00    +0.000 A 
ATOM     25  C   UNL     1      -4.357  13.156  21.392  0.00  0.00    +0.000 A 
ATOM     26  C   UNL     1      -5.446  12.967  22.238  0.00  0.00    +0.000 A 
ATOM     27 CL   UNL     1      -5.334  13.426  23.892  0.00  0.00    +0.000 Cl
ATOM     28  C   UNL     1      -6.619  12.394  21.750  0.00  0.00    +0.000 A 
ATOM     29  C   UNL     1      -6.668  11.920  20.434  0.00  0.00    +0.000 A 
ENDBRANCH  22  23
ENDBRANCH  20  22
ENDBRANCH   3  16
TORSDOF 4
ENDMDL
