MODEL 1
REMARK VINA RESULT:      -7.1      0.000      0.000
REMARK  Name = 
REMARK  8 active torsions:
REMARK  status: ('A' for Active; 'I' for Inactive)
REMARK    1  A    between atoms: C_1  and  C_2
REMARK    2  A    between atoms: C_2  and  C_3
REMARK    3  A    between atoms: C_2  and  O_4
REMARK    4  A    between atoms: O_4  and  C_5
REMARK    5  A    between atoms: C_5  and  C_7
REMARK    6  A    between atoms: C_8  and  N_9
REMARK    7  A    between atoms: C_13  and  C_14
REMARK    8  A    between atoms: N_20  and  C_21
REMARK                            x       y       z     vdW  Elec       q    Type
REMARK                         _______ _______ _______ _____ _____    ______ ____
ROOT
ATOM      1  N   UNL     1      -2.684  13.253  20.449  0.00  0.00    +0.000 NA
ATOM      2  C   UNL     1      -1.698  12.428  20.670  0.00  0.00    +0.000 A 
ATOM      3  S   UNL     1      -0.696  12.393  22.177  0.00  0.00    +0.000 S 
ATOM      4  C   UNL     1       0.408  11.250  21.498  0.00  0.00    +0.000 A 
ATOM      5  C   UNL     1       0.007  10.828  20.288  0.00  0.00    +0.000 A 
ATOM      6  N   UNL     1      -1.183  11.426  19.791  0.00  0.00    +0.000 N 
ENDROOT
BRANCH   1   8
ATOM      7  C   UNL     1      -4.088  14.084  22.338  0.00  0.00    +0.000 A 
ATOM      8  C   UNL     1      -3.149  14.225  21.298  0.00  0.00    +0.000 A 
ATOM      9  S   UNL     1      -2.851  15.910  21.018  0.00  0.00    +0.000 S 
ATOM     10  C   UNL     1      -3.699  16.397  22.392  0.00  0.00    +0.000 A 
ATOM     11  C   UNL     1      -4.447  15.372  22.928  0.00  0.00    +0.000 A 
ATOM     12  C   UNL     1      -5.440  15.648  24.031  0.00  0.00    +0.000 C 
ATOM     13  C   UNL     1      -5.762  17.149  24.149  0.00  0.00    +0.000 C 
ATOM     14  C   UNL     1      -4.485  17.992  24.154  0.00  0.00    +0.000 C 
ATOM     15  C   UNL     1      -3.697  17.826  22.847  0.00  0.00    +0.000 C 
BRANCH   7  16
ATOM     16  C   UNL     1      -4.622  12.777  22.754  0.00  0.00    +0.000 C 
ATOM     17  O   UNL     1      -4.257  12.176  23.763  0.00  0.00    +0.000 OA
BRANCH  16  18
ATOM     18  O   UNL     1      -5.613  12.317  21.936  0.00  0.00    +0.000 OA
BRANCH  18  20
ATOM     19  C   UNL     1      -7.628  12.951  20.761  0.00  0.00    +0.000 C 
ATOM     20  C   UNL     1      -6.919  12.892  22.111  0.00  0.00    +0.000 C 
ATOM     21  C   UNL     1      -7.701  12.000  23.070  0.00  0.00    +0.000 C 
ENDBRANCH  18  20
ENDBRANCH  16  18
ENDBRANCH   7  16
ENDBRANCH   1   8
BRANCH   5  22
ATOM     22  C   UNL     1       0.776   9.757  19.639  0.00  0.00    +0.000 A 
ATOM     23  C   UNL     1       1.179   9.884  18.303  0.00  0.00    +0.000 A 
ATOM     24  C   UNL     1       1.991   8.911  17.715  0.00  0.00    +0.000 A 
ATOM     25  C   UNL     1       2.414   7.811  18.459  0.00  0.00    +0.000 A 
ATOM     26  C   UNL     1       1.982   7.652  19.775  0.00  0.00    +0.000 A 
ATOM     27  C   UNL     1       1.134   8.600  20.351  0.00  0.00    +0.000 A 
ENDBRANCH   5  22
BRANCH   6  28
ATOM     28  C   UNL     1      -1.886  11.008  18.607  0.00  0.00    +0.000 A 
ATOM     29  C   UNL     1      -2.654   9.832  18.577  0.00  0.00    +0.000 A 
ATOM     30  C   UNL     1      -3.289   9.383  17.408  0.00  0.00    +0.000 A 
ATOM     31  C   UNL     1      -3.148  10.081  16.217  0.00  0.00    +0.000 A 
ATOM     32  C   UNL     1      -2.416  11.255  16.209  0.00  0.00    +0.000 A 
ATOM     33  C   UNL     1      -1.834  11.719  17.395  0.00  0.00    +0.000 A 
ENDBRANCH   6  28
TORSDOF 6
ENDMDL
MODEL 2
REMARK VINA RESULT:      -7.0      0.968      1.506
REMARK  Name = 
REMARK  8 active torsions:
REMARK  status: ('A' for Active; 'I' for Inactive)
REMARK    1  A    between atoms: C_1  and  C_2
REMARK    2  A    between atoms: C_2  and  C_3
REMARK    3  A    between atoms: C_2  and  O_4
REMARK    4  A    between atoms: O_4  and  C_5
REMARK    5  A    between atoms: C_5  and  C_7
REMARK    6  A    between atoms: C_8  and  N_9
REMARK    7  A    between atoms: C_13  and  C_14
REMARK    8  A    between atoms: N_20  and  C_21
REMARK                            x       y       z     vdW  Elec       q    Type
REMARK                         _______ _______ _______ _____ _____    ______ ____
ROOT
ATOM      1  N   UNL     1      -2.888  13.189  20.310  0.00  0.00    +0.000 NA
ATOM      2  C   UNL     1      -1.904  12.378  20.585  0.00  0.00    +0.000 A 
ATOM      3  S   UNL     1      -0.993  12.348  22.150  0.00  0.00    +0.000 S 
ATOM      4  C   UNL     1       0.167  11.227  21.531  0.00  0.00    +0.000 A 
ATOM      5  C   UNL     1      -0.154  10.808  20.296  0.00  0.00    +0.000 A 
ATOM      6  N   UNL     1      -1.322  11.390  19.733  0.00  0.00    +0.000 N 
ENDROOT
BRANCH   1   8
ATOM      7  C   UNL     1      -4.672  14.136  21.778  0.00  0.00    +0.000 A 
ATOM      8  C   UNL     1      -3.418  14.148  21.136  0.00  0.00    +0.000 A 
ATOM      9  S   UNL     1      -2.711  15.723  21.289  0.00  0.00    +0.000 S 
ATOM     10  C   UNL     1      -3.873  16.255  22.389  0.00  0.00    +0.000 A 
ATOM     11  C   UNL     1      -4.951  15.400  22.456  0.00  0.00    +0.000 A 
ATOM     12  C   UNL     1      -6.192  15.795  23.218  0.00  0.00    +0.000 C 
ATOM     13  C   UNL     1      -6.229  17.306  23.509  0.00  0.00    +0.000 C 
ATOM     14  C   UNL     1      -4.894  17.794  24.079  0.00  0.00    +0.000 C 
ATOM     15  C   UNL     1      -3.746  17.579  23.083  0.00  0.00    +0.000 C 
BRANCH   7  16
ATOM     16  C   UNL     1      -5.568  12.968  21.747  0.00  0.00    +0.000 C 
ATOM     17  O   UNL     1      -5.739  12.210  22.700  0.00  0.00    +0.000 OA
BRANCH  16  18
ATOM     18  O   UNL     1      -6.243  12.840  20.568  0.00  0.00    +0.000 OA
BRANCH  18  20
ATOM     19  C   UNL     1      -7.163  10.727  19.839  0.00  0.00    +0.000 C 
ATOM     20  C   UNL     1      -5.963  11.667  19.783  0.00  0.00    +0.000 C 
ATOM     21  C   UNL     1      -5.716  12.113  18.345  0.00  0.00    +0.000 C 
ENDBRANCH  18  20
ENDBRANCH  16  18
ENDBRANCH   7  16
ENDBRANCH   1   8
BRANCH   5  22
ATOM     22  C   UNL     1       0.670   9.753  19.688  0.00  0.00    +0.000 A 
ATOM     23  C   UNL     1       1.088   9.861  18.355  0.00  0.00    +0.000 A 
ATOM     24  C   UNL     1       1.949   8.908  17.806  0.00  0.00    +0.000 A 
ATOM     25  C   UNL     1       2.406   7.847  18.586  0.00  0.00    +0.000 A 
ATOM     26  C   UNL     1       1.959   7.705  19.899  0.00  0.00    +0.000 A 
ATOM     27  C   UNL     1       1.063   8.631  20.437  0.00  0.00    +0.000 A 
ENDBRANCH   5  22
BRANCH   6  28
ATOM     28  C   UNL     1      -1.946  10.969  18.506  0.00  0.00    +0.000 A 
ATOM     29  C   UNL     1      -1.869  11.738  17.333  0.00  0.00    +0.000 A 
ATOM     30  C   UNL     1      -2.529  11.367  16.151  0.00  0.00    +0.000 A 
ATOM     31  C   UNL     1      -3.319  10.226  16.113  0.00  0.00    +0.000 A 
ATOM     32  C   UNL     1      -3.405   9.431  17.242  0.00  0.00    +0.000 A 
ATOM     33  C   UNL     1      -2.697   9.785  18.397  0.00  0.00    +0.000 A 
ENDBRANCH   6  28
TORSDOF 6
ENDMDL
MODEL 3
REMARK VINA RESULT:      -6.8      0.607      1.375
REMARK  Name = 
REMARK  8 active torsions:
REMARK  status: ('A' for Active; 'I' for Inactive)
REMARK    1  A    between atoms: C_1  and  C_2
REMARK    2  A    between atoms: C_2  and  C_3
REMARK    3  A    between atoms: C_2  and  O_4
REMARK    4  A    between atoms: O_4  and  C_5
REMARK    5  A    between atoms: C_5  and  C_7
REMARK    6  A    between atoms: C_8  and  N_9
REMARK    7  A    between atoms: C_13  and  C_14
REMARK    8  A    between atoms: N_20  and  C_21
REMARK                            x       y       z     vdW  Elec       q    Type
REMARK                         _______ _______ _______ _____ _____    ______ ____
ROOT
ATOM      1  N   UNL     1      -2.733  13.365  20.379  0.00  0.00    +0.000 NA
ATOM      2  C   UNL     1      -1.711  12.595  20.632  0.00  0.00    +0.000 A 
ATOM      3  S   UNL     1      -0.713  12.664  22.142  0.00  0.00    +0.000 S 
ATOM      4  C   UNL     1       0.444  11.547  21.508  0.00  0.00    +0.000 A 
ATOM      5  C   UNL     1       0.066  11.061  20.314  0.00  0.00    +0.000 A 
ATOM      6  N   UNL     1      -1.149  11.585  19.794  0.00  0.00    +0.000 N 
ENDROOT
BRANCH   1   8
ATOM      7  C   UNL     1      -4.237  14.217  22.181  0.00  0.00    +0.000 A 
ATOM      8  C   UNL     1      -3.244  14.347  21.190  0.00  0.00    +0.000 A 
ATOM      9  S   UNL     1      -2.936  16.028  20.904  0.00  0.00    +0.000 S 
ATOM     10  C   UNL     1      -3.856  16.531  22.225  0.00  0.00    +0.000 A 
ATOM     11  C   UNL     1      -4.629  15.511  22.734  0.00  0.00    +0.000 A 
ATOM     12  C   UNL     1      -5.679  15.798  23.780  0.00  0.00    +0.000 C 
ATOM     13  C   UNL     1      -6.011  17.299  23.860  0.00  0.00    +0.000 C 
ATOM     14  C   UNL     1      -4.737  18.147  23.922  0.00  0.00    +0.000 C 
ATOM     15  C   UNL     1      -3.882  17.966  22.660  0.00  0.00    +0.000 C 
BRANCH   7  16
ATOM     16  C   UNL     1      -4.789  12.913  22.585  0.00  0.00    +0.000 C 
ATOM     17  O   UNL     1      -4.156  12.065  23.211  0.00  0.00    +0.000 OA
BRANCH  16  18
ATOM     18  O   UNL     1      -6.101  12.757  22.245  0.00  0.00    +0.000 OA
BRANCH  18  20
ATOM     19  C   UNL     1      -6.688  11.388  20.342  0.00  0.00    +0.000 C 
ATOM     20  C   UNL     1      -6.419  12.803  20.843  0.00  0.00    +0.000 C 
ATOM     21  C   UNL     1      -7.669  13.662  20.673  0.00  0.00    +0.000 C 
ENDBRANCH  18  20
ENDBRANCH  16  18
ENDBRANCH   7  16
ENDBRANCH   1   8
BRANCH   5  22
ATOM     22  C   UNL     1       0.885  10.002  19.708  0.00  0.00    +0.000 A 
ATOM     23  C   UNL     1       1.168   8.830  20.421  0.00  0.00    +0.000 A 
ATOM     24  C   UNL     1       1.865   7.784  19.812  0.00  0.00    +0.000 A 
ATOM     25  C   UNL     1       2.276   7.897  18.485  0.00  0.00    +0.000 A 
ATOM     26  C   UNL     1       2.041   9.077  17.781  0.00  0.00    +0.000 A 
ATOM     27  C   UNL     1       1.383  10.142  18.402  0.00  0.00    +0.000 A 
ENDBRANCH   5  22
BRANCH   6  28
ATOM     28  C   UNL     1      -1.828  11.090  18.626  0.00  0.00    +0.000 A 
ATOM     29  C   UNL     1      -1.795  11.778  17.401  0.00  0.00    +0.000 A 
ATOM     30  C   UNL     1      -2.508  11.335  16.275  0.00  0.00    +0.000 A 
ATOM     31  C   UNL     1      -3.309  10.204  16.348  0.00  0.00    +0.000 A 
ATOM     32  C   UNL     1      -3.353   9.487  17.530  0.00  0.00    +0.000 A 
ATOM     33  C   UNL     1      -2.593   9.910  18.628  0.00  0.00    +0.000 A 
ENDBRANCH   6  28
TORSDOF 6
ENDMDL
MODEL 4
REMARK VINA RESULT:      -6.5      2.072      3.296
REMARK  Name = 
REMARK  8 active torsions:
REMARK  status: ('A' for Active; 'I' for Inactive)
REMARK    1  A    between atoms: C_1  and  C_2
REMARK    2  A    between atoms: C_2  and  C_3
REMARK    3  A    between atoms: C_2  and  O_4
REMARK    4  A    between atoms: O_4  and  C_5
REMARK    5  A    between atoms: C_5  and  C_7
REMARK    6  A    between atoms: C_8  and  N_9
REMARK    7  A    between atoms: C_13  and  C_14
REMARK    8  A    between atoms: N_20  and  C_21
REMARK                            x       y       z     vdW  Elec       q    Type
REMARK                         _______ _______ _______ _____ _____    ______ ____
ROOT
ATOM      1  N   UNL     1      -2.792  13.136  20.566  0.00  0.00    +0.000 NA
ATOM      2  C   UNL     1      -1.812  12.303  20.783  0.00  0.00    +0.000 A 
ATOM      3  S   UNL     1      -0.874  12.187  22.328  0.00  0.00    +0.000 S 
ATOM      4  C   UNL     1       0.262  11.085  21.634  0.00  0.00    +0.000 A 
ATOM      5  C   UNL     1      -0.086  10.729  20.387  0.00  0.00    +0.000 A 
ATOM      6  N   UNL     1      -1.257  11.351  19.874  0.00  0.00    +0.000 N 
ENDROOT
BRANCH   1   8
ATOM      7  C   UNL     1      -2.695  15.260  21.875  0.00  0.00    +0.000 A 
ATOM      8  C   UNL     1      -3.296  14.060  21.446  0.00  0.00    +0.000 A 
ATOM      9  S   UNL     1      -4.686  13.732  22.428  0.00  0.00    +0.000 S 
ATOM     10  C   UNL     1      -4.647  15.243  23.176  0.00  0.00    +0.000 A 
ATOM     11  C   UNL     1      -3.466  15.910  22.932  0.00  0.00    +0.000 A 
ATOM     12  C   UNL     1      -3.141  17.182  23.676  0.00  0.00    +0.000 C 
ATOM     13  C   UNL     1      -4.031  17.362  24.919  0.00  0.00    +0.000 C 
ATOM     14  C   UNL     1      -5.506  17.126  24.585  0.00  0.00    +0.000 C 
ATOM     15  C   UNL     1      -5.747  15.692  24.091  0.00  0.00    +0.000 C 
BRANCH   7  16
ATOM     16  C   UNL     1      -1.437  15.767  21.301  0.00  0.00    +0.000 C 
ATOM     17  O   UNL     1      -0.360  15.755  21.894  0.00  0.00    +0.000 OA
BRANCH  16  18
ATOM     18  O   UNL     1      -1.571  16.201  20.014  0.00  0.00    +0.000 OA
BRANCH  18  20
ATOM     19  C   UNL     1      -0.102  14.812  18.689  0.00  0.00    +0.000 C 
ATOM     20  C   UNL     1      -0.379  16.220  19.208  0.00  0.00    +0.000 C 
ATOM     21  C   UNL     1      -0.619  17.169  18.038  0.00  0.00    +0.000 C 
ENDBRANCH  18  20
ENDBRANCH  16  18
ENDBRANCH   7  16
ENDBRANCH   1   8
BRANCH   5  22
ATOM     22  C   UNL     1       0.715   9.697  19.714  0.00  0.00    +0.000 A 
ATOM     23  C   UNL     1       1.098   9.858  18.376  0.00  0.00    +0.000 A 
ATOM     24  C   UNL     1       1.938   8.925  17.764  0.00  0.00    +0.000 A 
ATOM     25  C   UNL     1       2.409   7.830  18.487  0.00  0.00    +0.000 A 
ATOM     26  C   UNL     1       1.997   7.635  19.804  0.00  0.00    +0.000 A 
ATOM     27  C   UNL     1       1.121   8.543  20.404  0.00  0.00    +0.000 A 
ENDBRANCH   5  22
BRANCH   6  28
ATOM     28  C   UNL     1      -1.907  10.997  18.640  0.00  0.00    +0.000 A 
ATOM     29  C   UNL     1      -2.648   9.811  18.506  0.00  0.00    +0.000 A 
ATOM     30  C   UNL     1      -3.231   9.427  17.288  0.00  0.00    +0.000 A 
ATOM     31  C   UNL     1      -3.063  10.203  16.150  0.00  0.00    +0.000 A 
ATOM     32  C   UNL     1      -2.356  11.388  16.244  0.00  0.00    +0.000 A 
ATOM     33  C   UNL     1      -1.827  11.786  17.478  0.00  0.00    +0.000 A 
ENDBRANCH   6  28
TORSDOF 6
ENDMDL
MODEL 5
REMARK VINA RESULT:      -6.5      0.861      1.763
REMARK  Name = 
REMARK  8 active torsions:
REMARK  status: ('A' for Active; 'I' for Inactive)
REMARK    1  A    between atoms: C_1  and  C_2
REMARK    2  A    between atoms: C_2  and  C_3
REMARK    3  A    between atoms: C_2  and  O_4
REMARK    4  A    between atoms: O_4  and  C_5
REMARK    5  A    between atoms: C_5  and  C_7
REMARK    6  A    between atoms: C_8  and  N_9
REMARK    7  A    between atoms: C_13  and  C_14
REMARK    8  A    between atoms: N_20  and  C_21
REMARK                            x       y       z     vdW  Elec       q    Type
REMARK                         _______ _______ _______ _____ _____    ______ ____
ROOT
ATOM      1  N   UNL     1      -2.664  13.459  20.164  0.00  0.00    +0.000 NA
ATOM      2  C   UNL     1      -1.656  12.686  20.460  0.00  0.00    +0.000 A 
ATOM      3  S   UNL     1      -0.665  12.810  21.971  0.00  0.00    +0.000 S 
ATOM      4  C   UNL     1       0.477  11.647  21.398  0.00  0.00    +0.000 A 
ATOM      5  C   UNL     1       0.098  11.112  20.226  0.00  0.00    +0.000 A 
ATOM      6  N   UNL     1      -1.104  11.629  19.673  0.00  0.00    +0.000 N 
ENDROOT
BRANCH   1   8
ATOM      7  C   UNL     1      -4.437  14.576  21.521  0.00  0.00    +0.000 A 
ATOM      8  C   UNL     1      -3.164  14.486  20.924  0.00  0.00    +0.000 A 
ATOM      9  S   UNL     1      -2.372  16.024  21.028  0.00  0.00    +0.000 S 
ATOM     10  C   UNL     1      -3.537  16.674  22.060  0.00  0.00    +0.000 A 
ATOM     11  C   UNL     1      -4.664  15.885  22.129  0.00  0.00    +0.000 A 
ATOM     12  C   UNL     1      -5.905  16.386  22.828  0.00  0.00    +0.000 C 
ATOM     13  C   UNL     1      -5.863  17.910  23.045  0.00  0.00    +0.000 C 
ATOM     14  C   UNL     1      -4.522  18.349  23.639  0.00  0.00    +0.000 C 
ATOM     15  C   UNL     1      -3.357  18.021  22.694  0.00  0.00    +0.000 C 
BRANCH   7  16
ATOM     16  C   UNL     1      -5.397  13.460  21.514  0.00  0.00    +0.000 C 
ATOM     17  O   UNL     1      -6.277  13.318  20.666  0.00  0.00    +0.000 OA
BRANCH  16  18
ATOM     18  O   UNL     1      -5.180  12.558  22.514  0.00  0.00    +0.000 OA
BRANCH  18  20
ATOM     19  C   UNL     1      -6.956  12.560  24.154  0.00  0.00    +0.000 C 
ATOM     20  C   UNL     1      -5.519  12.973  23.849  0.00  0.00    +0.000 C 
ATOM     21  C   UNL     1      -4.562  12.280  24.814  0.00  0.00    +0.000 C 
ENDBRANCH  18  20
ENDBRANCH  16  18
ENDBRANCH   7  16
ENDBRANCH   1   8
BRANCH   5  22
ATOM     22  C   UNL     1       0.904  10.013  19.676  0.00  0.00    +0.000 A 
ATOM     23  C   UNL     1       1.165   8.872  20.445  0.00  0.00    +0.000 A 
ATOM     24  C   UNL     1       1.850   7.787  19.891  0.00  0.00    +0.000 A 
ATOM     25  C   UNL     1       2.269   7.831  18.562  0.00  0.00    +0.000 A 
ATOM     26  C   UNL     1       2.056   8.980  17.802  0.00  0.00    +0.000 A 
ATOM     27  C   UNL     1       1.412  10.083  18.367  0.00  0.00    +0.000 A 
ENDBRANCH   5  22
BRANCH   6  28
ATOM     28  C   UNL     1      -1.785  11.091  18.525  0.00  0.00    +0.000 A 
ATOM     29  C   UNL     1      -1.772  11.744  17.282  0.00  0.00    +0.000 A 
ATOM     30  C   UNL     1      -2.486  11.259  16.175  0.00  0.00    +0.000 A 
ATOM     31  C   UNL     1      -3.268  10.117  16.285  0.00  0.00    +0.000 A 
ATOM     32  C   UNL     1      -3.292   9.434  17.488  0.00  0.00    +0.000 A 
ATOM     33  C   UNL     1      -2.531   9.899  18.567  0.00  0.00    +0.000 A 
ENDBRANCH   6  28
TORSDOF 6
ENDMDL
MODEL 6
REMARK VINA RESULT:      -6.5      0.957      1.230
REMARK  Name = 
REMARK  8 active torsions:
REMARK  status: ('A' for Active; 'I' for Inactive)
REMARK    1  A    between atoms: C_1  and  C_2
REMARK    2  A    between atoms: C_2  and  C_3
REMARK    3  A    between atoms: C_2  and  O_4
REMARK    4  A    between atoms: O_4  and  C_5
REMARK    5  A    between atoms: C_5  and  C_7
REMARK    6  A    between atoms: C_8  and  N_9
REMARK    7  A    between atoms: C_13  and  C_14
REMARK    8  A    between atoms: N_20  and  C_21
REMARK                            x       y       z     vdW  Elec       q    Type
REMARK                         _______ _______ _______ _____ _____    ______ ____
ROOT
ATOM      1  N   UNL     1      -2.903  13.065  20.617  0.00  0.00    +0.000 NA
ATOM      2  C   UNL     1      -1.932  12.223  20.835  0.00  0.00    +0.000 A 
ATOM      3  S   UNL     1      -1.052  12.041  22.408  0.00  0.00    +0.000 S 
ATOM      4  C   UNL     1       0.111  10.969  21.712  0.00  0.00    +0.000 A 
ATOM      5  C   UNL     1      -0.190  10.667  20.438  0.00  0.00    +0.000 A 
ATOM      6  N   UNL     1      -1.341  11.310  19.908  0.00  0.00    +0.000 N 
ENDROOT
BRANCH   1   8
ATOM      7  C   UNL     1      -4.797  14.299  21.677  0.00  0.00    +0.000 A 
ATOM      8  C   UNL     1      -3.442  13.951  21.517  0.00  0.00    +0.000 A 
ATOM      9  S   UNL     1      -2.457  15.038  22.439  0.00  0.00    +0.000 S 
ATOM     10  C   UNL     1      -3.775  15.735  23.225  0.00  0.00    +0.000 A 
ATOM     11  C   UNL     1      -4.971  15.388  22.636  0.00  0.00    +0.000 A 
ATOM     12  C   UNL     1      -6.252  16.069  23.052  0.00  0.00    +0.000 C 
ATOM     13  C   UNL     1      -5.983  17.366  23.836  0.00  0.00    +0.000 C 
ATOM     14  C   UNL     1      -4.941  17.145  24.935  0.00  0.00    +0.000 C 
ATOM     15  C   UNL     1      -3.590  16.713  24.348  0.00  0.00    +0.000 C 
BRANCH   7  16
ATOM     16  C   UNL     1      -5.882  13.622  20.949  0.00  0.00    +0.000 C 
ATOM     17  O   UNL     1      -6.433  14.088  19.952  0.00  0.00    +0.000 OA
BRANCH  16  18
ATOM     18  O   UNL     1      -6.182  12.391  21.454  0.00  0.00    +0.000 OA
BRANCH  18  20
ATOM     19  C   UNL     1      -7.840  10.651  21.197  0.00  0.00    +0.000 C 
ATOM     20  C   UNL     1      -7.576  12.087  21.639  0.00  0.00    +0.000 C 
ATOM     21  C   UNL     1      -7.897  12.242  23.123  0.00  0.00    +0.000 C 
ENDBRANCH  18  20
ENDBRANCH  16  18
ENDBRANCH   7  16
ENDBRANCH   1   8
BRANCH   5  22
ATOM     22  C   UNL     1       0.637   9.664  19.752  0.00  0.00    +0.000 A 
ATOM     23  C   UNL     1       1.031   9.860  18.422  0.00  0.00    +0.000 A 
ATOM     24  C   UNL     1       1.895   8.955  17.800  0.00  0.00    +0.000 A 
ATOM     25  C   UNL     1       2.378   7.854  18.505  0.00  0.00    +0.000 A 
ATOM     26  C   UNL     1       1.955   7.624  19.814  0.00  0.00    +0.000 A 
ATOM     27  C   UNL     1       1.057   8.503  20.423  0.00  0.00    +0.000 A 
ENDBRANCH   5  22
BRANCH   6  28
ATOM     28  C   UNL     1      -1.944  11.009  18.637  0.00  0.00    +0.000 A 
ATOM     29  C   UNL     1      -2.686   9.834  18.428  0.00  0.00    +0.000 A 
ATOM     30  C   UNL     1      -3.223   9.502  17.173  0.00  0.00    +0.000 A 
ATOM     31  C   UNL     1      -3.005  10.321  16.074  0.00  0.00    +0.000 A 
ATOM     32  C   UNL     1      -2.296  11.497  16.243  0.00  0.00    +0.000 A 
ATOM     33  C   UNL     1      -1.814  11.842  17.511  0.00  0.00    +0.000 A 
ENDBRANCH   6  28
TORSDOF 6
ENDMDL
MODEL 7
REMARK VINA RESULT:      -6.5      2.049      3.490
REMARK  Name = 
REMARK  8 active torsions:
REMARK  status: ('A' for Active; 'I' for Inactive)
REMARK    1  A    between atoms: C_1  and  C_2
REMARK    2  A    between atoms: C_2  and  C_3
REMARK    3  A    between atoms: C_2  and  O_4
REMARK    4  A    between atoms: O_4  and  C_5
REMARK    5  A    between atoms: C_5  and  C_7
REMARK    6  A    between atoms: C_8  and  N_9
REMARK    7  A    between atoms: C_13  and  C_14
REMARK    8  A    between atoms: N_20  and  C_21
REMARK                            x       y       z     vdW  Elec       q    Type
REMARK                         _______ _______ _______ _____ _____    ______ ____
ROOT
ATOM      1  N   UNL     1      -2.799  13.081  20.524  0.00  0.00    +0.000 NA
ATOM      2  C   UNL     1      -1.790  12.288  20.758  0.00  0.00    +0.000 A 
ATOM      3  S   UNL     1      -0.873  12.214  22.318  0.00  0.00    +0.000 S 
ATOM      4  C   UNL     1       0.318  11.158  21.646  0.00  0.00    +0.000 A 
ATOM      5  C   UNL     1       0.005  10.787  20.393  0.00  0.00    +0.000 A 
ATOM      6  N   UNL     1      -1.181  11.360  19.860  0.00  0.00    +0.000 N 
ENDROOT
BRANCH   1   8
ATOM      7  C   UNL     1      -2.806  15.204  21.838  0.00  0.00    +0.000 A 
ATOM      8  C   UNL     1      -3.355  13.984  21.394  0.00  0.00    +0.000 A 
ATOM      9  S   UNL     1      -4.754  13.606  22.344  0.00  0.00    +0.000 S 
ATOM     10  C   UNL     1      -4.786  15.115  23.094  0.00  0.00    +0.000 A 
ATOM     11  C   UNL     1      -3.623  15.824  22.878  0.00  0.00    +0.000 A 
ATOM     12  C   UNL     1      -3.360  17.105  23.631  0.00  0.00    +0.000 C 
ATOM     13  C   UNL     1      -4.283  17.250  24.855  0.00  0.00    +0.000 C 
ATOM     14  C   UNL     1      -5.742  16.963  24.487  0.00  0.00    +0.000 C 
ATOM     15  C   UNL     1      -5.921  15.523  23.986  0.00  0.00    +0.000 C 
BRANCH   7  16
ATOM     16  C   UNL     1      -1.555  15.756  21.293  0.00  0.00    +0.000 C 
ATOM     17  O   UNL     1      -0.526  15.899  21.951  0.00  0.00    +0.000 OA
BRANCH  16  18
ATOM     18  O   UNL     1      -1.629  16.042  19.961  0.00  0.00    +0.000 OA
BRANCH  18  20
ATOM     19  C   UNL     1      -0.003  14.758  18.716  0.00  0.00    +0.000 C 
ATOM     20  C   UNL     1      -0.384  16.137  19.247  0.00  0.00    +0.000 C 
ATOM     21  C   UNL     1      -0.581  17.106  18.085  0.00  0.00    +0.000 C 
ENDBRANCH  18  20
ENDBRANCH  16  18
ENDBRANCH   7  16
ENDBRANCH   1   8
BRANCH   5  22
ATOM     22  C   UNL     1       0.859   9.787  19.735  0.00  0.00    +0.000 A 
ATOM     23  C   UNL     1       1.233   8.620  20.413  0.00  0.00    +0.000 A 
ATOM     24  C   UNL     1       1.964   7.626  19.757  0.00  0.00    +0.000 A 
ATOM     25  C   UNL     1       2.317   7.787  18.418  0.00  0.00    +0.000 A 
ATOM     26  C   UNL     1       1.990   8.965  17.748  0.00  0.00    +0.000 A 
ATOM     27  C   UNL     1       1.298   9.979  18.414  0.00  0.00    +0.000 A 
ENDBRANCH   5  22
BRANCH   6  28
ATOM     28  C   UNL     1      -1.796  10.977  18.616  0.00  0.00    +0.000 A 
ATOM     29  C   UNL     1      -1.748  11.803  17.481  0.00  0.00    +0.000 A 
ATOM     30  C   UNL     1      -2.400  11.467  16.283  0.00  0.00    +0.000 A 
ATOM     31  C   UNL     1      -3.154  10.305  16.194  0.00  0.00    +0.000 A 
ATOM     32  C   UNL     1      -3.211   9.455  17.284  0.00  0.00    +0.000 A 
ATOM     33  C   UNL     1      -2.510   9.777  18.453  0.00  0.00    +0.000 A 
ENDBRANCH   6  28
TORSDOF 6
ENDMDL
MODEL 8
REMARK VINA RESULT:      -6.5      2.293      8.293
REMARK  Name = 
REMARK  8 active torsions:
REMARK  status: ('A' for Active; 'I' for Inactive)
REMARK    1  A    between atoms: C_1  and  C_2
REMARK    2  A    between atoms: C_2  and  C_3
REMARK    3  A    between atoms: C_2  and  O_4
REMARK    4  A    between atoms: O_4  and  C_5
REMARK    5  A    between atoms: C_5  and  C_7
REMARK    6  A    between atoms: C_8  and  N_9
REMARK    7  A    between atoms: C_13  and  C_14
REMARK    8  A    between atoms: N_20  and  C_21
REMARK                            x       y       z     vdW  Elec       q    Type
REMARK                         _______ _______ _______ _____ _____    ______ ____
ROOT
ATOM      1  N   UNL     1      -1.315  11.568  21.748  0.00  0.00    +0.000 NA
ATOM      2  C   UNL     1      -1.097  12.814  22.068  0.00  0.00    +0.000 A 
ATOM      3  S   UNL     1       0.385  13.754  21.620  0.00  0.00    +0.000 S 
ATOM      4  C   UNL     1      -0.082  15.092  22.609  0.00  0.00    +0.000 A 
ATOM      5  C   UNL     1      -1.302  14.915  23.143  0.00  0.00    +0.000 A 
ATOM      6  N   UNL     1      -1.931  13.676  22.844  0.00  0.00    +0.000 N 
ENDROOT
BRANCH   1   8
ATOM      7  C   UNL     1      -0.302  10.735  19.624  0.00  0.00    +0.000 A 
ATOM      8  C   UNL     1      -0.489  10.749  21.020  0.00  0.00    +0.000 A 
ATOM      9  S   UNL     1       0.267   9.353  21.715  0.00  0.00    +0.000 S 
ATOM     10  C   UNL     1       1.037   8.923  20.278  0.00  0.00    +0.000 A 
ATOM     11  C   UNL     1       0.544   9.622  19.198  0.00  0.00    +0.000 A 
ATOM     12  C   UNL     1       0.947   9.241  17.794  0.00  0.00    +0.000 C 
ATOM     13  C   UNL     1       1.577   7.837  17.740  0.00  0.00    +0.000 C 
ATOM     14  C   UNL     1       2.643   7.666  18.825  0.00  0.00    +0.000 C 
ATOM     15  C   UNL     1       2.042   7.810  20.230  0.00  0.00    +0.000 C 
BRANCH   7  16
ATOM     16  C   UNL     1      -0.905  11.739  18.732  0.00  0.00    +0.000 C 
ATOM     17  O   UNL     1      -0.271  12.642  18.188  0.00  0.00    +0.000 OA
BRANCH  16  18
ATOM     18  O   UNL     1      -2.237  11.536  18.517  0.00  0.00    +0.000 OA
BRANCH  18  20
ATOM     19  C   UNL     1      -2.303   9.950  16.693  0.00  0.00    +0.000 C 
ATOM     20  C   UNL     1      -2.655  11.362  17.151  0.00  0.00    +0.000 C 
ATOM     21  C   UNL     1      -4.166  11.567  17.093  0.00  0.00    +0.000 C 
ENDBRANCH  18  20
ENDBRANCH  16  18
ENDBRANCH   7  16
ENDBRANCH   1   8
BRANCH   5  22
ATOM     22  C   UNL     1      -1.890  16.026  23.905  0.00  0.00    +0.000 A 
ATOM     23  C   UNL     1      -1.529  16.236  25.242  0.00  0.00    +0.000 A 
ATOM     24  C   UNL     1      -2.013  17.347  25.938  0.00  0.00    +0.000 A 
ATOM     25  C   UNL     1      -2.854  18.259  25.301  0.00  0.00    +0.000 A 
ATOM     26  C   UNL     1      -3.256  18.033  23.985  0.00  0.00    +0.000 A 
ATOM     27  C   UNL     1      -2.809  16.901  23.301  0.00  0.00    +0.000 A 
ENDBRANCH   5  22
BRANCH   6  28
ATOM     28  C   UNL     1      -3.294  13.344  23.162  0.00  0.00    +0.000 A 
ATOM     29  C   UNL     1      -4.359  13.685  22.312  0.00  0.00    +0.000 A 
ATOM     30  C   UNL     1      -5.697  13.423  22.645  0.00  0.00    +0.000 A 
ATOM     31  C   UNL     1      -6.018  12.837  23.862  0.00  0.00    +0.000 A 
ATOM     32  C   UNL     1      -4.998  12.467  24.719  0.00  0.00    +0.000 A 
ATOM     33  C   UNL     1      -3.665  12.686  24.349  0.00  0.00    +0.000 A 
ENDBRANCH   6  28
TORSDOF 6
ENDMDL
MODEL 9
REMARK VINA RESULT:      -6.4      2.241      8.230
REMARK  Name = 
REMARK  8 active torsions:
REMARK  status: ('A' for Active; 'I' for Inactive)
REMARK    1  A    between atoms: C_1  and  C_2
REMARK    2  A    between atoms: C_2  and  C_3
REMARK    3  A    between atoms: C_2  and  O_4
REMARK    4  A    between atoms: O_4  and  C_5
REMARK    5  A    between atoms: C_5  and  C_7
REMARK    6  A    between atoms: C_8  and  N_9
REMARK    7  A    between atoms: C_13  and  C_14
REMARK    8  A    between atoms: N_20  and  C_21
REMARK                            x       y       z     vdW  Elec       q    Type
REMARK                         _______ _______ _______ _____ _____    ______ ____
ROOT
ATOM      1  N   UNL     1      -1.310  11.731  21.572  0.00  0.00    +0.000 NA
ATOM      2  C   UNL     1      -1.052  12.969  21.891  0.00  0.00    +0.000 A 
ATOM      3  S   UNL     1       0.499  13.830  21.524  0.00  0.00    +0.000 S 
ATOM      4  C   UNL     1       0.038  15.203  22.466  0.00  0.00    +0.000 A 
ATOM      5  C   UNL     1      -1.219  15.093  22.926  0.00  0.00    +0.000 A 
ATOM      6  N   UNL     1      -1.888  13.881  22.604  0.00  0.00    +0.000 N 
ENDROOT
BRANCH   1   8
ATOM      7  C   UNL     1      -0.206  10.823  19.525  0.00  0.00    +0.000 A 
ATOM      8  C   UNL     1      -0.483  10.862  20.906  0.00  0.00    +0.000 A 
ATOM      9  S   UNL     1       0.153   9.437  21.659  0.00  0.00    +0.000 S 
ATOM     10  C   UNL     1       0.992   8.953  20.279  0.00  0.00    +0.000 A 
ATOM     11  C   UNL     1       0.607   9.664  19.164  0.00  0.00    +0.000 A 
ATOM     12  C   UNL     1       1.080   9.248  17.792  0.00  0.00    +0.000 C 
ATOM     13  C   UNL     1       1.638   7.813  17.790  0.00  0.00    +0.000 C 
ATOM     14  C   UNL     1       2.621   7.599  18.945  0.00  0.00    +0.000 C 
ATOM     15  C   UNL     1       1.938   7.789  20.306  0.00  0.00    +0.000 C 
BRANCH   7  16
ATOM     16  C   UNL     1      -0.696  11.847  18.588  0.00  0.00    +0.000 C 
ATOM     17  O   UNL     1      -0.010  12.777  18.168  0.00  0.00    +0.000 OA
BRANCH  16  18
ATOM     18  O   UNL     1      -1.981  11.631  18.180  0.00  0.00    +0.000 OA
BRANCH  18  20
ATOM     19  C   UNL     1      -3.236   9.604  17.787  0.00  0.00    +0.000 C 
ATOM     20  C   UNL     1      -2.192  10.569  17.234  0.00  0.00    +0.000 C 
ATOM     21  C   UNL     1      -2.693  11.190  15.934  0.00  0.00    +0.000 C 
ENDBRANCH  18  20
ENDBRANCH  16  18
ENDBRANCH   7  16
ENDBRANCH   1   8
BRANCH   5  22
ATOM     22  C   UNL     1      -1.798  16.241  23.637  0.00  0.00    +0.000 A 
ATOM     23  C   UNL     1      -2.479  17.242  22.931  0.00  0.00    +0.000 A 
ATOM     24  C   UNL     1      -3.111  18.284  23.615  0.00  0.00    +0.000 A 
ATOM     25  C   UNL     1      -3.075  18.328  25.008  0.00  0.00    +0.000 A 
ATOM     26  C   UNL     1      -2.362  17.363  25.717  0.00  0.00    +0.000 A 
ATOM     27  C   UNL     1      -1.692  16.346  25.034  0.00  0.00    +0.000 A 
ENDBRANCH   5  22
BRANCH   6  28
ATOM     28  C   UNL     1      -3.284  13.619  22.841  0.00  0.00    +0.000 A 
ATOM     29  C   UNL     1      -3.736  13.033  24.035  0.00  0.00    +0.000 A 
ATOM     30  C   UNL     1      -5.087  12.715  24.247  0.00  0.00    +0.000 A 
ATOM     31  C   UNL     1      -6.029  12.944  23.254  0.00  0.00    +0.000 A 
ATOM     32  C   UNL     1      -5.627  13.538  22.071  0.00  0.00    +0.000 A 
ATOM     33  C   UNL     1      -4.286  13.899  21.895  0.00  0.00    +0.000 A 
ENDBRANCH   6  28
TORSDOF 6
ENDMDL
