MODEL 1
REMARK VINA RESULT:      -6.7      0.000      0.000
REMARK  Name = 
REMARK  11 active torsions:
REMARK  status: ('A' for Active; 'I' for Inactive)
REMARK    1  A    between atoms: C_1  and  C_2
REMARK    2  A    between atoms: C_2  and  C_3
REMARK    3  A    between atoms: C_3  and  C_26
REMARK    4  A    between atoms: C_4  and  C_5
REMARK    5  A    between atoms: C_4  and  C_11
REMARK    6  A    between atoms: C_14  and  C_15
REMARK    7  A    between atoms: C_16  and  C_17
REMARK    8  A    between atoms: N_19  and  C_20
REMARK    9  A    between atoms: C_20  and  C_21
REMARK   10  A    between atoms: C_21  and  C_22
REMARK   11  A    between atoms: C_22  and  O_23
REMARK                            x       y       z     vdW  Elec       q    Type
REMARK                         _______ _______ _______ _____ _____    ______ ____
ROOT
ATOM      1  C   UNL     1      -1.262  11.751  21.680  0.00  0.00    +0.000 A 
ATOM      2  C   UNL     1      -0.686  11.024  22.731  0.00  0.00    +0.000 A 
ATOM      3  C   UNL     1      -0.004   9.829  22.479  0.00  0.00    +0.000 A 
ATOM      4  C   UNL     1       0.100   9.325  21.177  0.00  0.00    +0.000 A 
ATOM      5  C   UNL     1      -0.446  10.075  20.125  0.00  0.00    +0.000 A 
ATOM      6  C   UNL     1      -1.131  11.274  20.375  0.00  0.00    +0.000 A 
ENDROOT
BRANCH   1   8
ATOM      7  C   UNL     1      -1.498  14.222  21.770  0.00  0.00    +0.000 C 
ATOM      8  C   UNL     1      -2.030  12.989  21.996  0.00  0.00    +0.000 C 
BRANCH   8   9
ATOM      9  C   UNL     1      -3.382  12.858  22.592  0.00  0.00    +0.000 A 
ATOM     10  C   UNL     1      -3.501  12.647  23.974  0.00  0.00    +0.000 A 
ATOM     11  C   UNL     1      -4.758  12.600  24.576  0.00  0.00    +0.000 A 
ATOM     12  C   UNL     1      -5.905  12.760  23.802  0.00  0.00    +0.000 A 
ATOM     13  C   UNL     1      -5.797  12.963  22.426  0.00  0.00    +0.000 A 
ATOM     14  C   UNL     1      -4.539  13.016  21.822  0.00  0.00    +0.000 A 
ENDBRANCH   8   9
BRANCH   7  15
ATOM     15  C   UNL     1      -0.220  14.360  21.030  0.00  0.00    +0.000 A 
ATOM     16  C   UNL     1      -0.242  14.595  19.649  0.00  0.00    +0.000 A 
ATOM     17  C   UNL     1       0.945  14.586  18.913  0.00  0.00    +0.000 A 
ATOM     18  C   UNL     1       2.160  14.346  19.554  0.00  0.00    +0.000 A 
ATOM     19  C   UNL     1       2.191  14.135  20.932  0.00  0.00    +0.000 A 
ATOM     20  C   UNL     1       1.006  14.146  21.670  0.00  0.00    +0.000 A 
ENDBRANCH   7  15
BRANCH   7  22
ATOM     21  C   UNL     1      -1.606  15.920  23.701  0.00  0.00    +0.000 C 
ATOM     22  C   UNL     1      -2.061  15.531  22.302  0.00  0.00    +0.000 C 
ENDBRANCH   7  22
ENDBRANCH   1   8
BRANCH   4  23
ATOM     23  C   UNL     1       0.801   8.049  20.976  0.00  0.00    +0.000 C 
ATOM     24  C   UNL     1       1.834   7.879  20.133  0.00  0.00    +0.000 C 
BRANCH  24  25
ATOM     25  C   UNL     1       2.421   6.529  19.954  0.00  0.00    +0.000 C 
ATOM     26  O   UNL     1       3.188   6.246  19.041  0.00  0.00    +0.000 OA
ATOM     27  N   UNL     1       1.991   5.625  20.896  0.00  0.00    +0.000 N 
ATOM     28  H   UNL     1       1.329   5.907  21.606  0.00  0.00    +0.000 HD
BRANCH  27  29
ATOM     29  C   UNL     1       2.430   4.242  20.880  0.00  0.00    +0.000 C 
BRANCH  29  30
ATOM     30  C   UNL     1       1.272   3.250  20.776  0.00  0.00    +0.000 C 
BRANCH  30  31
ATOM     31  C   UNL     1       0.947   2.799  19.357  0.00  0.00    +0.000 C 
BRANCH  31  32
ATOM     32  O   UNL     1       1.317   3.791  18.412  0.00  0.00    +0.000 OA
ATOM     33  H   UNL     1       0.482   4.230  18.129  0.00  0.00    +0.000 HD
ENDBRANCH  31  32
ENDBRANCH  30  31
ENDBRANCH  29  30
ENDBRANCH  27  29
ENDBRANCH  24  25
ENDBRANCH   4  23
TORSDOF 10
ENDMDL
MODEL 2
REMARK VINA RESULT:      -6.6      0.615      1.061
REMARK  Name = 
REMARK  11 active torsions:
REMARK  status: ('A' for Active; 'I' for Inactive)
REMARK    1  A    between atoms: C_1  and  C_2
REMARK    2  A    between atoms: C_2  and  C_3
REMARK    3  A    between atoms: C_3  and  C_26
REMARK    4  A    between atoms: C_4  and  C_5
REMARK    5  A    between atoms: C_4  and  C_11
REMARK    6  A    between atoms: C_14  and  C_15
REMARK    7  A    between atoms: C_16  and  C_17
REMARK    8  A    between atoms: N_19  and  C_20
REMARK    9  A    between atoms: C_20  and  C_21
REMARK   10  A    between atoms: C_21  and  C_22
REMARK   11  A    between atoms: C_22  and  O_23
REMARK                            x       y       z     vdW  Elec       q    Type
REMARK                         _______ _______ _______ _____ _____    ______ ____
ROOT
ATOM      1  C   UNL     1      -1.159  11.471  21.676  0.00  0.00    +0.000 A 
ATOM      2  C   UNL     1      -0.960  10.927  20.400  0.00  0.00    +0.000 A 
ATOM      3  C   UNL     1      -0.237   9.740  20.237  0.00  0.00    +0.000 A 
ATOM      4  C   UNL     1       0.319   9.083  21.341  0.00  0.00    +0.000 A 
ATOM      5  C   UNL     1       0.086   9.611  22.620  0.00  0.00    +0.000 A 
ATOM      6  C   UNL     1      -0.638  10.802  22.785  0.00  0.00    +0.000 A 
ENDROOT
BRANCH   1   8
ATOM      7  C   UNL     1      -1.298  13.939  21.431  0.00  0.00    +0.000 C 
ATOM      8  C   UNL     1      -1.884  12.767  21.802  0.00  0.00    +0.000 C 
BRANCH   8   9
ATOM      9  C   UNL     1      -3.255  12.765  22.369  0.00  0.00    +0.000 A 
ATOM     10  C   UNL     1      -3.416  12.755  23.762  0.00  0.00    +0.000 A 
ATOM     11  C   UNL     1      -4.689  12.834  24.327  0.00  0.00    +0.000 A 
ATOM     12  C   UNL     1      -5.810  12.921  23.504  0.00  0.00    +0.000 A 
ATOM     13  C   UNL     1      -5.659  12.925  22.116  0.00  0.00    +0.000 A 
ATOM     14  C   UNL     1      -4.385  12.851  21.549  0.00  0.00    +0.000 A 
ENDBRANCH   8   9
BRANCH   7  15
ATOM     15  C   UNL     1       0.002  13.931  20.718  0.00  0.00    +0.000 A 
ATOM     16  C   UNL     1       0.024  13.961  19.317  0.00  0.00    +0.000 A 
ATOM     17  C   UNL     1       1.229  13.811  18.627  0.00  0.00    +0.000 A 
ATOM     18  C   UNL     1       2.419  13.632  19.332  0.00  0.00    +0.000 A 
ATOM     19  C   UNL     1       2.407  13.625  20.727  0.00  0.00    +0.000 A 
ATOM     20  C   UNL     1       1.204  13.778  21.419  0.00  0.00    +0.000 A 
ENDBRANCH   7  15
BRANCH   7  22
ATOM     21  C   UNL     1      -1.404  15.873  23.125  0.00  0.00    +0.000 C 
ATOM     22  C   UNL     1      -1.822  15.326  21.768  0.00  0.00    +0.000 C 
ENDBRANCH   7  22
ENDBRANCH   1   8
BRANCH   4  23
ATOM     23  C   UNL     1       1.094   7.858  21.107  0.00  0.00    +0.000 C 
ATOM     24  C   UNL     1       1.895   7.661  20.045  0.00  0.00    +0.000 C 
BRANCH  24  25
ATOM     25  C   UNL     1       2.576   6.355  19.870  0.00  0.00    +0.000 C 
ATOM     26  O   UNL     1       3.486   6.174  19.070  0.00  0.00    +0.000 OA
ATOM     27  N   UNL     1       2.061   5.367  20.675  0.00  0.00    +0.000 N 
ATOM     28  H   UNL     1       1.286   5.567  21.292  0.00  0.00    +0.000 HD
BRANCH  27  29
ATOM     29  C   UNL     1       2.573   4.010  20.636  0.00  0.00    +0.000 C 
BRANCH  29  30
ATOM     30  C   UNL     1       1.468   2.958  20.561  0.00  0.00    +0.000 C 
BRANCH  30  31
ATOM     31  C   UNL     1       1.133   2.488  19.149  0.00  0.00    +0.000 C 
BRANCH  31  32
ATOM     32  O   UNL     1       2.132   1.608  18.657  0.00  0.00    +0.000 OA
ATOM     33  H   UNL     1       2.406   1.962  17.780  0.00  0.00    +0.000 HD
ENDBRANCH  31  32
ENDBRANCH  30  31
ENDBRANCH  29  30
ENDBRANCH  27  29
ENDBRANCH  24  25
ENDBRANCH   4  23
TORSDOF 10
ENDMDL
MODEL 3
REMARK VINA RESULT:      -6.4      1.022      1.281
REMARK  Name = 
REMARK  11 active torsions:
REMARK  status: ('A' for Active; 'I' for Inactive)
REMARK    1  A    between atoms: C_1  and  C_2
REMARK    2  A    between atoms: C_2  and  C_3
REMARK    3  A    between atoms: C_3  and  C_26
REMARK    4  A    between atoms: C_4  and  C_5
REMARK    5  A    between atoms: C_4  and  C_11
REMARK    6  A    between atoms: C_14  and  C_15
REMARK    7  A    between atoms: C_16  and  C_17
REMARK    8  A    between atoms: N_19  and  C_20
REMARK    9  A    between atoms: C_20  and  C_21
REMARK   10  A    between atoms: C_21  and  C_22
REMARK   11  A    between atoms: C_22  and  O_23
REMARK                            x       y       z     vdW  Elec       q    Type
REMARK                         _______ _______ _______ _____ _____    ______ ____
ROOT
ATOM      1  C   UNL     1      -0.742  11.606  20.774  0.00  0.00    +0.000 A 
ATOM      2  C   UNL     1      -0.373  11.029  21.997  0.00  0.00    +0.000 A 
ATOM      3  C   UNL     1       0.341   9.826  22.029  0.00  0.00    +0.000 A 
ATOM      4  C   UNL     1       0.685   9.166  20.843  0.00  0.00    +0.000 A 
ATOM      5  C   UNL     1       0.346   9.767  19.621  0.00  0.00    +0.000 A 
ATOM      6  C   UNL     1      -0.371  10.972  19.587  0.00  0.00    +0.000 A 
ENDROOT
BRANCH   1   8
ATOM      7  C   UNL     1      -0.966  14.075  20.611  0.00  0.00    +0.000 C 
ATOM      8  C   UNL     1      -1.552  12.857  20.783  0.00  0.00    +0.000 C 
BRANCH   8   9
ATOM      9  C   UNL     1      -3.014  12.759  21.013  0.00  0.00    +0.000 A 
ATOM     10  C   UNL     1      -3.507  12.858  22.323  0.00  0.00    +0.000 A 
ATOM     11  C   UNL     1      -4.880  12.850  22.564  0.00  0.00    +0.000 A 
ATOM     12  C   UNL     1      -5.772  12.740  21.499  0.00  0.00    +0.000 A 
ATOM     13  C   UNL     1      -5.291  12.634  20.193  0.00  0.00    +0.000 A 
ATOM     14  C   UNL     1      -3.916  12.647  19.949  0.00  0.00    +0.000 A 
ENDBRANCH   8   9
BRANCH   7  15
ATOM     15  C   UNL     1       0.461  14.168  20.222  0.00  0.00    +0.000 A 
ATOM     16  C   UNL     1       0.805  14.279  18.868  0.00  0.00    +0.000 A 
ATOM     17  C   UNL     1       2.143  14.225  18.473  0.00  0.00    +0.000 A 
ATOM     18  C   UNL     1       3.146  14.063  19.428  0.00  0.00    +0.000 A 
ATOM     19  C   UNL     1       2.813  13.976  20.779  0.00  0.00    +0.000 A 
ATOM     20  C   UNL     1       1.476  14.032  21.177  0.00  0.00    +0.000 A 
ENDBRANCH   7  15
BRANCH   7  22
ATOM     21  C   UNL     1      -1.474  15.960  22.287  0.00  0.00    +0.000 C 
ATOM     22  C   UNL     1      -1.635  15.414  20.876  0.00  0.00    +0.000 C 
ENDBRANCH   7  22
ENDBRANCH   1   8
BRANCH   4  23
ATOM     23  C   UNL     1       1.408   7.891  20.938  0.00  0.00    +0.000 C 
ATOM     24  C   UNL     1       2.023   7.291  19.904  0.00  0.00    +0.000 C 
BRANCH  24  25
ATOM     25  C   UNL     1       2.662   5.967  20.097  0.00  0.00    +0.000 C 
ATOM     26  O   UNL     1       3.667   5.612  19.493  0.00  0.00    +0.000 OA
ATOM     27  N   UNL     1       1.993   5.172  20.997  0.00  0.00    +0.000 N 
ATOM     28  H   UNL     1       1.148   5.505  21.440  0.00  0.00    +0.000 HD
BRANCH  27  29
ATOM     29  C   UNL     1       2.444   3.828  21.307  0.00  0.00    +0.000 C 
BRANCH  29  30
ATOM     30  C   UNL     1       1.450   2.751  20.874  0.00  0.00    +0.000 C 
BRANCH  30  31
ATOM     31  C   UNL     1       1.712   2.162  19.493  0.00  0.00    +0.000 C 
BRANCH  31  32
ATOM     32  O   UNL     1       2.835   2.780  18.883  0.00  0.00    +0.000 OA
ATOM     33  H   UNL     1       2.649   2.801  17.917  0.00  0.00    +0.000 HD
ENDBRANCH  31  32
ENDBRANCH  30  31
ENDBRANCH  29  30
ENDBRANCH  27  29
ENDBRANCH  24  25
ENDBRANCH   4  23
TORSDOF 10
ENDMDL
MODEL 4
REMARK VINA RESULT:      -6.3      2.607      3.660
REMARK  Name = 
REMARK  11 active torsions:
REMARK  status: ('A' for Active; 'I' for Inactive)
REMARK    1  A    between atoms: C_1  and  C_2
REMARK    2  A    between atoms: C_2  and  C_3
REMARK    3  A    between atoms: C_3  and  C_26
REMARK    4  A    between atoms: C_4  and  C_5
REMARK    5  A    between atoms: C_4  and  C_11
REMARK    6  A    between atoms: C_14  and  C_15
REMARK    7  A    between atoms: C_16  and  C_17
REMARK    8  A    between atoms: N_19  and  C_20
REMARK    9  A    between atoms: C_20  and  C_21
REMARK   10  A    between atoms: C_21  and  C_22
REMARK   11  A    between atoms: C_22  and  O_23
REMARK                            x       y       z     vdW  Elec       q    Type
REMARK                         _______ _______ _______ _____ _____    ______ ____
ROOT
ATOM      1  C   UNL     1       0.241  10.834  18.885  0.00  0.00    +0.000 A 
ATOM      2  C   UNL     1       0.238  10.120  20.090  0.00  0.00    +0.000 A 
ATOM      3  C   UNL     1       1.008   8.960  20.232  0.00  0.00    +0.000 A 
ATOM      4  C   UNL     1       1.780   8.479  19.167  0.00  0.00    +0.000 A 
ATOM      5  C   UNL     1       1.808   9.218  17.975  0.00  0.00    +0.000 A 
ATOM      6  C   UNL     1       1.036  10.381  17.831  0.00  0.00    +0.000 A 
ENDROOT
BRANCH   1   8
ATOM      7  C   UNL     1      -0.169  13.280  19.037  0.00  0.00    +0.000 C 
ATOM      8  C   UNL     1      -0.637  12.032  18.755  0.00  0.00    +0.000 C 
BRANCH   8   9
ATOM      9  C   UNL     1      -2.048  11.840  18.338  0.00  0.00    +0.000 A 
ATOM     10  C   UNL     1      -2.320  11.414  17.030  0.00  0.00    +0.000 A 
ATOM     11  C   UNL     1      -3.630  11.147  16.632  0.00  0.00    +0.000 A 
ATOM     12  C   UNL     1      -4.677  11.308  17.537  0.00  0.00    +0.000 A 
ATOM     13  C   UNL     1      -4.416  11.738  18.838  0.00  0.00    +0.000 A 
ATOM     14  C   UNL     1      -3.105  12.001  19.240  0.00  0.00    +0.000 A 
ENDBRANCH   8   9
BRANCH   7  15
ATOM     15  C   UNL     1       1.274  13.495  19.297  0.00  0.00    +0.000 A 
ATOM     16  C   UNL     1       1.753  13.466  20.613  0.00  0.00    +0.000 A 
ATOM     17  C   UNL     1       3.078  13.806  20.890  0.00  0.00    +0.000 A 
ATOM     18  C   UNL     1       3.934  14.174  19.852  0.00  0.00    +0.000 A 
ATOM     19  C   UNL     1       3.471  14.181  18.537  0.00  0.00    +0.000 A 
ATOM     20  C   UNL     1       2.147  13.839  18.258  0.00  0.00    +0.000 A 
ENDBRANCH   7  15
BRANCH   7  22
ATOM     21  C   UNL     1      -1.437  14.844  20.639  0.00  0.00    +0.000 C 
ATOM     22  C   UNL     1      -1.032  14.520  19.209  0.00  0.00    +0.000 C 
ENDBRANCH   7  22
ENDBRANCH   1   8
BRANCH   4  23
ATOM     23  C   UNL     1       2.543   7.240  19.363  0.00  0.00    +0.000 C 
ATOM     24  C   UNL     1       3.344   6.690  18.433  0.00  0.00    +0.000 C 
BRANCH  24  25
ATOM     25  C   UNL     1       4.012   5.396  18.711  0.00  0.00    +0.000 C 
ATOM     26  O   UNL     1       4.965   5.282  19.473  0.00  0.00    +0.000 OA
ATOM     27  N   UNL     1       3.473   4.348  18.004  0.00  0.00    +0.000 N 
ATOM     28  H   UNL     1       2.708   4.507  17.363  0.00  0.00    +0.000 HD
BRANCH  27  29
ATOM     29  C   UNL     1       4.002   3.001  18.117  0.00  0.00    +0.000 C 
BRANCH  29  30
ATOM     30  C   UNL     1       2.927   1.925  17.974  0.00  0.00    +0.000 C 
BRANCH  30  31
ATOM     31  C   UNL     1       1.677   2.160  18.815  0.00  0.00    +0.000 C 
BRANCH  31  32
ATOM     32  O   UNL     1       0.790   3.056  18.163  0.00  0.00    +0.000 OA
ATOM     33  H   UNL     1       0.691   2.727  17.241  0.00  0.00    +0.000 HD
ENDBRANCH  31  32
ENDBRANCH  30  31
ENDBRANCH  29  30
ENDBRANCH  27  29
ENDBRANCH  24  25
ENDBRANCH   4  23
TORSDOF 10
ENDMDL
MODEL 5
REMARK VINA RESULT:      -6.3      0.695      1.180
REMARK  Name = 
REMARK  11 active torsions:
REMARK  status: ('A' for Active; 'I' for Inactive)
REMARK    1  A    between atoms: C_1  and  C_2
REMARK    2  A    between atoms: C_2  and  C_3
REMARK    3  A    between atoms: C_3  and  C_26
REMARK    4  A    between atoms: C_4  and  C_5
REMARK    5  A    between atoms: C_4  and  C_11
REMARK    6  A    between atoms: C_14  and  C_15
REMARK    7  A    between atoms: C_16  and  C_17
REMARK    8  A    between atoms: N_19  and  C_20
REMARK    9  A    between atoms: C_20  and  C_21
REMARK   10  A    between atoms: C_21  and  C_22
REMARK   11  A    between atoms: C_22  and  O_23
REMARK                            x       y       z     vdW  Elec       q    Type
REMARK                         _______ _______ _______ _____ _____    ______ ____
ROOT
ATOM      1  C   UNL     1      -0.865  11.557  21.411  0.00  0.00    +0.000 A 
ATOM      2  C   UNL     1      -0.332  10.879  22.515  0.00  0.00    +0.000 A 
ATOM      3  C   UNL     1       0.302   9.642  22.352  0.00  0.00    +0.000 A 
ATOM      4  C   UNL     1       0.399   9.049  21.089  0.00  0.00    +0.000 A 
ATOM      5  C   UNL     1      -0.103   9.748  19.981  0.00  0.00    +0.000 A 
ATOM      6  C   UNL     1      -0.740  10.988  20.142  0.00  0.00    +0.000 A 
ENDROOT
BRANCH   1   8
ATOM      7  C   UNL     1      -0.981  14.038  21.378  0.00  0.00    +0.000 C 
ATOM      8  C   UNL     1      -1.584  12.843  21.634  0.00  0.00    +0.000 C 
BRANCH   8   9
ATOM      9  C   UNL     1      -2.967  12.805  22.169  0.00  0.00    +0.000 A 
ATOM     10  C   UNL     1      -3.161  12.804  23.558  0.00  0.00    +0.000 A 
ATOM     11  C   UNL     1      -4.448  12.850  24.092  0.00  0.00    +0.000 A 
ATOM     12  C   UNL     1      -5.552  12.893  23.242  0.00  0.00    +0.000 A 
ATOM     13  C   UNL     1      -5.369  12.888  21.859  0.00  0.00    +0.000 A 
ATOM     14  C   UNL     1      -4.080  12.848  21.322  0.00  0.00    +0.000 A 
ENDBRANCH   8   9
BRANCH   7  15
ATOM     15  C   UNL     1       0.334  14.080  20.695  0.00  0.00    +0.000 A 
ATOM     16  C   UNL     1       1.509  14.123  21.457  0.00  0.00    +0.000 A 
ATOM     17  C   UNL     1       2.746  14.305  20.837  0.00  0.00    +0.000 A 
ATOM     18  C   UNL     1       2.817  14.444  19.451  0.00  0.00    +0.000 A 
ATOM     19  C   UNL     1       1.654  14.378  18.685  0.00  0.00    +0.000 A 
ATOM     20  C   UNL     1       0.416  14.193  19.302  0.00  0.00    +0.000 A 
ENDBRANCH   7  15
BRANCH   7  22
ATOM     21  C   UNL     1      -2.309  16.161  20.784  0.00  0.00    +0.000 C 
ATOM     22  C   UNL     1      -1.503  15.395  21.823  0.00  0.00    +0.000 C 
ENDBRANCH   7  22
ENDBRANCH   1   8
BRANCH   4  23
ATOM     23  C   UNL     1       1.048   7.735  20.982  0.00  0.00    +0.000 C 
ATOM     24  C   UNL     1       2.000   7.433  20.082  0.00  0.00    +0.000 C 
BRANCH  24  25
ATOM     25  C   UNL     1       2.536   6.051  20.015  0.00  0.00    +0.000 C 
ATOM     26  O   UNL     1       3.342   5.684  19.168  0.00  0.00    +0.000 OA
ATOM     27  N   UNL     1       2.012   5.223  20.980  0.00  0.00    +0.000 N 
ATOM     28  H   UNL     1       1.324   5.573  21.631  0.00  0.00    +0.000 HD
BRANCH  27  29
ATOM     29  C   UNL     1       2.390   3.825  21.068  0.00  0.00    +0.000 C 
BRANCH  29  30
ATOM     30  C   UNL     1       1.327   2.884  20.503  0.00  0.00    +0.000 C 
BRANCH  30  31
ATOM     31  C   UNL     1       1.640   2.332  19.117  0.00  0.00    +0.000 C 
BRANCH  31  32
ATOM     32  O   UNL     1       0.967   3.074  18.111  0.00  0.00    +0.000 OA
ATOM     33  H   UNL     1       0.197   3.501  18.552  0.00  0.00    +0.000 HD
ENDBRANCH  31  32
ENDBRANCH  30  31
ENDBRANCH  29  30
ENDBRANCH  27  29
ENDBRANCH  24  25
ENDBRANCH   4  23
TORSDOF 10
ENDMDL
MODEL 6
REMARK VINA RESULT:      -6.3      2.873      5.342
REMARK  Name = 
REMARK  11 active torsions:
REMARK  status: ('A' for Active; 'I' for Inactive)
REMARK    1  A    between atoms: C_1  and  C_2
REMARK    2  A    between atoms: C_2  and  C_3
REMARK    3  A    between atoms: C_3  and  C_26
REMARK    4  A    between atoms: C_4  and  C_5
REMARK    5  A    between atoms: C_4  and  C_11
REMARK    6  A    between atoms: C_14  and  C_15
REMARK    7  A    between atoms: C_16  and  C_17
REMARK    8  A    between atoms: N_19  and  C_20
REMARK    9  A    between atoms: C_20  and  C_21
REMARK   10  A    between atoms: C_21  and  C_22
REMARK   11  A    between atoms: C_22  and  O_23
REMARK                            x       y       z     vdW  Elec       q    Type
REMARK                         _______ _______ _______ _____ _____    ______ ____
ROOT
ATOM      1  C   UNL     1       1.312  10.841  18.980  0.00  0.00    +0.000 A 
ATOM      2  C   UNL     1       1.950  10.327  17.844  0.00  0.00    +0.000 A 
ATOM      3  C   UNL     1       2.281   8.969  17.767  0.00  0.00    +0.000 A 
ATOM      4  C   UNL     1       2.000   8.103  18.829  0.00  0.00    +0.000 A 
ATOM      5  C   UNL     1       1.327   8.615  19.949  0.00  0.00    +0.000 A 
ATOM      6  C   UNL     1       0.995   9.976  20.029  0.00  0.00    +0.000 A 
ENDROOT
BRANCH   1   8
ATOM      7  C   UNL     1      -0.196  12.797  18.714  0.00  0.00    +0.000 C 
ATOM      8  C   UNL     1       1.028  12.303  19.048  0.00  0.00    +0.000 C 
BRANCH   8   9
ATOM      9  C   UNL     1       2.117  13.222  19.461  0.00  0.00    +0.000 A 
ATOM     10  C   UNL     1       2.347  13.436  20.828  0.00  0.00    +0.000 A 
ATOM     11  C   UNL     1       3.413  14.230  21.249  0.00  0.00    +0.000 A 
ATOM     12  C   UNL     1       4.255  14.819  20.308  0.00  0.00    +0.000 A 
ATOM     13  C   UNL     1       4.029  14.618  18.946  0.00  0.00    +0.000 A 
ATOM     14  C   UNL     1       2.965  13.819  18.522  0.00  0.00    +0.000 A 
ENDBRANCH   8   9
BRANCH   7  15
ATOM     15  C   UNL     1      -1.329  11.875  18.457  0.00  0.00    +0.000 A 
ATOM     16  C   UNL     1      -1.237  10.937  17.420  0.00  0.00    +0.000 A 
ATOM     17  C   UNL     1      -2.343  10.159  17.073  0.00  0.00    +0.000 A 
ATOM     18  C   UNL     1      -3.547  10.313  17.760  0.00  0.00    +0.000 A 
ATOM     19  C   UNL     1      -3.638  11.228  18.808  0.00  0.00    +0.000 A 
ATOM     20  C   UNL     1      -2.533  12.005  19.159  0.00  0.00    +0.000 A 
ENDBRANCH   7  15
BRANCH   7  22
ATOM     21  C   UNL     1      -0.776  15.089  19.731  0.00  0.00    +0.000 C 
ATOM     22  C   UNL     1      -0.514  14.265  18.478  0.00  0.00    +0.000 C 
ENDBRANCH   7  22
ENDBRANCH   1   8
BRANCH   4  23
ATOM     23  C   UNL     1       2.398   6.694  18.706  0.00  0.00    +0.000 C 
ATOM     24  C   UNL     1       3.354   6.249  17.872  0.00  0.00    +0.000 C 
BRANCH  24  25
ATOM     25  C   UNL     1       3.625   4.794  17.776  0.00  0.00    +0.000 C 
ATOM     26  O   UNL     1       4.602   4.330  17.198  0.00  0.00    +0.000 OA
ATOM     27  N   UNL     1       2.655   4.024  18.371  0.00  0.00    +0.000 N 
ATOM     28  H   UNL     1       1.853   4.462  18.803  0.00  0.00    +0.000 HD
BRANCH  27  29
ATOM     29  C   UNL     1       2.723   2.575  18.364  0.00  0.00    +0.000 C 
BRANCH  29  30
ATOM     30  C   UNL     1       1.650   1.924  19.236  0.00  0.00    +0.000 C 
BRANCH  30  31
ATOM     31  C   UNL     1       1.401   2.625  20.567  0.00  0.00    +0.000 C 
BRANCH  31  32
ATOM     32  O   UNL     1       0.502   3.711  20.407  0.00  0.00    +0.000 OA
ATOM     33  H   UNL     1       1.051   4.528  20.404  0.00  0.00    +0.000 HD
ENDBRANCH  31  32
ENDBRANCH  30  31
ENDBRANCH  29  30
ENDBRANCH  27  29
ENDBRANCH  24  25
ENDBRANCH   4  23
TORSDOF 10
ENDMDL
MODEL 7
REMARK VINA RESULT:      -6.3      2.434      5.232
REMARK  Name = 
REMARK  11 active torsions:
REMARK  status: ('A' for Active; 'I' for Inactive)
REMARK    1  A    between atoms: C_1  and  C_2
REMARK    2  A    between atoms: C_2  and  C_3
REMARK    3  A    between atoms: C_3  and  C_26
REMARK    4  A    between atoms: C_4  and  C_5
REMARK    5  A    between atoms: C_4  and  C_11
REMARK    6  A    between atoms: C_14  and  C_15
REMARK    7  A    between atoms: C_16  and  C_17
REMARK    8  A    between atoms: N_19  and  C_20
REMARK    9  A    between atoms: C_20  and  C_21
REMARK   10  A    between atoms: C_21  and  C_22
REMARK   11  A    between atoms: C_22  and  O_23
REMARK                            x       y       z     vdW  Elec       q    Type
REMARK                         _______ _______ _______ _____ _____    ______ ____
ROOT
ATOM      1  C   UNL     1       1.091  11.432  19.766  0.00  0.00    +0.000 A 
ATOM      2  C   UNL     1       1.422  10.489  18.783  0.00  0.00    +0.000 A 
ATOM      3  C   UNL     1       1.488   9.127  19.097  0.00  0.00    +0.000 A 
ATOM      4  C   UNL     1       1.244   8.681  20.401  0.00  0.00    +0.000 A 
ATOM      5  C   UNL     1       0.877   9.624  21.373  0.00  0.00    +0.000 A 
ATOM      6  C   UNL     1       0.812  10.990  21.060  0.00  0.00    +0.000 A 
ENDROOT
BRANCH   1   8
ATOM      7  C   UNL     1      -0.051  13.495  18.984  0.00  0.00    +0.000 C 
ATOM      8  C   UNL     1       1.089  12.878  19.405  0.00  0.00    +0.000 C 
BRANCH   8   9
ATOM      9  C   UNL     1       2.361  13.636  19.485  0.00  0.00    +0.000 A 
ATOM     10  C   UNL     1       2.840  14.035  20.742  0.00  0.00    +0.000 A 
ATOM     11  C   UNL     1       4.072  14.677  20.858  0.00  0.00    +0.000 A 
ATOM     12  C   UNL     1       4.834  14.928  19.719  0.00  0.00    +0.000 A 
ATOM     13  C   UNL     1       4.363  14.541  18.463  0.00  0.00    +0.000 A 
ATOM     14  C   UNL     1       3.132  13.893  18.346  0.00  0.00    +0.000 A 
ENDBRANCH   8   9
BRANCH   7  15
ATOM     15  C   UNL     1      -1.352  12.788  19.055  0.00  0.00    +0.000 A 
ATOM     16  C   UNL     1      -1.771  11.997  17.977  0.00  0.00    +0.000 A 
ATOM     17  C   UNL     1      -3.051  11.441  17.966  0.00  0.00    +0.000 A 
ATOM     18  C   UNL     1      -3.920  11.669  19.032  0.00  0.00    +0.000 A 
ATOM     19  C   UNL     1      -3.501  12.435  20.119  0.00  0.00    +0.000 A 
ATOM     20  C   UNL     1      -2.221  12.991  20.134  0.00  0.00    +0.000 A 
ENDBRANCH   7  15
BRANCH   7  22
ATOM     21  C   UNL     1      -0.349  16.033  19.283  0.00  0.00    +0.000 C 
ATOM     22  C   UNL     1      -0.115  14.867  18.333  0.00  0.00    +0.000 C 
ENDBRANCH   7  22
ENDBRANCH   1   8
BRANCH   4  23
ATOM     23  C   UNL     1       1.358   7.243  20.680  0.00  0.00    +0.000 C 
ATOM     24  C   UNL     1       2.118   6.392  19.967  0.00  0.00    +0.000 C 
BRANCH  24  25
ATOM     25  C   UNL     1       2.102   4.945  20.291  0.00  0.00    +0.000 C 
ATOM     26  O   UNL     1       2.199   4.512  21.433  0.00  0.00    +0.000 OA
ATOM     27  N   UNL     1       1.999   4.145  19.179  0.00  0.00    +0.000 N 
ATOM     28  H   UNL     1       1.956   4.557  18.257  0.00  0.00    +0.000 HD
BRANCH  27  29
ATOM     29  C   UNL     1       1.991   2.697  19.281  0.00  0.00    +0.000 C 
BRANCH  29  30
ATOM     30  C   UNL     1       3.178   2.044  18.574  0.00  0.00    +0.000 C 
BRANCH  30  31
ATOM     31  C   UNL     1       4.213   3.024  18.032  0.00  0.00    +0.000 C 
BRANCH  31  32
ATOM     32  O   UNL     1       5.200   3.312  19.010  0.00  0.00    +0.000 OA
ATOM     33  H   UNL     1       4.735   3.327  19.877  0.00  0.00    +0.000 HD
ENDBRANCH  31  32
ENDBRANCH  30  31
ENDBRANCH  29  30
ENDBRANCH  27  29
ENDBRANCH  24  25
ENDBRANCH   4  23
TORSDOF 10
ENDMDL
MODEL 8
REMARK VINA RESULT:      -6.3      2.554      5.214
REMARK  Name = 
REMARK  11 active torsions:
REMARK  status: ('A' for Active; 'I' for Inactive)
REMARK    1  A    between atoms: C_1  and  C_2
REMARK    2  A    between atoms: C_2  and  C_3
REMARK    3  A    between atoms: C_3  and  C_26
REMARK    4  A    between atoms: C_4  and  C_5
REMARK    5  A    between atoms: C_4  and  C_11
REMARK    6  A    between atoms: C_14  and  C_15
REMARK    7  A    between atoms: C_16  and  C_17
REMARK    8  A    between atoms: N_19  and  C_20
REMARK    9  A    between atoms: C_20  and  C_21
REMARK   10  A    between atoms: C_21  and  C_22
REMARK   11  A    between atoms: C_22  and  O_23
REMARK                            x       y       z     vdW  Elec       q    Type
REMARK                         _______ _______ _______ _____ _____    ______ ____
ROOT
ATOM      1  C   UNL     1       1.282  11.353  19.252  0.00  0.00    +0.000 A 
ATOM      2  C   UNL     1       1.857  10.689  18.161  0.00  0.00    +0.000 A 
ATOM      3  C   UNL     1       2.038   9.301  18.188  0.00  0.00    +0.000 A 
ATOM      4  C   UNL     1       1.666   8.553  19.310  0.00  0.00    +0.000 A 
ATOM      5  C   UNL     1       1.057   9.217  20.385  0.00  0.00    +0.000 A 
ATOM      6  C   UNL     1       0.876  10.609  20.361  0.00  0.00    +0.000 A 
ENDROOT
BRANCH   1   8
ATOM      7  C   UNL     1      -0.021  13.437  18.891  0.00  0.00    +0.000 C 
ATOM      8  C   UNL     1       1.160  12.838  19.209  0.00  0.00    +0.000 C 
BRANCH   8   9
ATOM      9  C   UNL     1       2.361  13.661  19.492  0.00  0.00    +0.000 A 
ATOM     10  C   UNL     1       2.701  13.937  20.825  0.00  0.00    +0.000 A 
ATOM     11  C   UNL     1       3.868  14.639  21.127  0.00  0.00    +0.000 A 
ATOM     12  C   UNL     1       4.702  15.073  20.099  0.00  0.00    +0.000 A 
ATOM     13  C   UNL     1       4.369  14.809  18.770  0.00  0.00    +0.000 A 
ATOM     14  C   UNL     1       3.204  14.102  18.466  0.00  0.00    +0.000 A 
ENDBRANCH   8   9
BRANCH   7  15
ATOM     15  C   UNL     1      -1.258  12.629  18.766  0.00  0.00    +0.000 A 
ATOM     16  C   UNL     1      -1.529  11.959  17.566  0.00  0.00    +0.000 A 
ATOM     17  C   UNL     1      -2.752  11.312  17.379  0.00  0.00    +0.000 A 
ATOM     18  C   UNL     1      -3.711  11.328  18.392  0.00  0.00    +0.000 A 
ATOM     19  C   UNL     1      -3.438  11.973  19.598  0.00  0.00    +0.000 A 
ATOM     20  C   UNL     1      -2.215  12.618  19.788  0.00  0.00    +0.000 A 
ENDBRANCH   7  15
BRANCH   7  22
ATOM     21  C   UNL     1      -0.549  15.818  19.714  0.00  0.00    +0.000 C 
ATOM     22  C   UNL     1      -0.193  14.908  18.547  0.00  0.00    +0.000 C 
ENDBRANCH   7  22
ENDBRANCH   1   8
BRANCH   4  23
ATOM     23  C   UNL     1       1.908   7.104  19.295  0.00  0.00    +0.000 C 
ATOM     24  C   UNL     1       2.391   6.429  18.237  0.00  0.00    +0.000 C 
BRANCH  24  25
ATOM     25  C   UNL     1       2.527   4.954  18.306  0.00  0.00    +0.000 C 
ATOM     26  O   UNL     1       1.944   4.189  17.547  0.00  0.00    +0.000 OA
ATOM     27  N   UNL     1       3.348   4.536  19.326  0.00  0.00    +0.000 N 
ATOM     28  H   UNL     1       3.776   5.212  19.943  0.00  0.00    +0.000 HD
BRANCH  27  29
ATOM     29  C   UNL     1       3.592   3.128  19.578  0.00  0.00    +0.000 C 
BRANCH  29  30
ATOM     30  C   UNL     1       2.716   2.562  20.695  0.00  0.00    +0.000 C 
BRANCH  30  31
ATOM     31  C   UNL     1       1.653   3.523  21.217  0.00  0.00    +0.000 C 
BRANCH  31  32
ATOM     32  O   UNL     1       0.504   3.508  20.385  0.00  0.00    +0.000 OA
ATOM     33  H   UNL     1       0.403   2.581  20.068  0.00  0.00    +0.000 HD
ENDBRANCH  31  32
ENDBRANCH  30  31
ENDBRANCH  29  30
ENDBRANCH  27  29
ENDBRANCH  24  25
ENDBRANCH   4  23
TORSDOF 10
ENDMDL
MODEL 9
REMARK VINA RESULT:      -6.3      2.341      5.234
REMARK  Name = 
REMARK  11 active torsions:
REMARK  status: ('A' for Active; 'I' for Inactive)
REMARK    1  A    between atoms: C_1  and  C_2
REMARK    2  A    between atoms: C_2  and  C_3
REMARK    3  A    between atoms: C_3  and  C_26
REMARK    4  A    between atoms: C_4  and  C_5
REMARK    5  A    between atoms: C_4  and  C_11
REMARK    6  A    between atoms: C_14  and  C_15
REMARK    7  A    between atoms: C_16  and  C_17
REMARK    8  A    between atoms: N_19  and  C_20
REMARK    9  A    between atoms: C_20  and  C_21
REMARK   10  A    between atoms: C_21  and  C_22
REMARK   11  A    between atoms: C_22  and  O_23
REMARK                            x       y       z     vdW  Elec       q    Type
REMARK                         _______ _______ _______ _____ _____    ______ ____
ROOT
ATOM      1  C   UNL     1       1.078  11.443  19.834  0.00  0.00    +0.000 A 
ATOM      2  C   UNL     1       1.364  10.477  18.861  0.00  0.00    +0.000 A 
ATOM      3  C   UNL     1       1.387   9.118  19.193  0.00  0.00    +0.000 A 
ATOM      4  C   UNL     1       1.145   8.698  20.506  0.00  0.00    +0.000 A 
ATOM      5  C   UNL     1       0.823   9.666  21.469  0.00  0.00    +0.000 A 
ATOM      6  C   UNL     1       0.800  11.030  21.138  0.00  0.00    +0.000 A 
ENDROOT
BRANCH   1   8
ATOM      7  C   UNL     1      -0.003  13.534  19.039  0.00  0.00    +0.000 C 
ATOM      8  C   UNL     1       1.120  12.884  19.454  0.00  0.00    +0.000 C 
BRANCH   8   9
ATOM      9  C   UNL     1       2.419  13.598  19.507  0.00  0.00    +0.000 A 
ATOM     10  C   UNL     1       3.149  13.775  18.322  0.00  0.00    +0.000 A 
ATOM     11  C   UNL     1       4.333  14.511  18.324  0.00  0.00    +0.000 A 
ATOM     12  C   UNL     1       4.799  15.074  19.511  0.00  0.00    +0.000 A 
ATOM     13  C   UNL     1       4.083  14.898  20.696  0.00  0.00    +0.000 A 
ATOM     14  C   UNL     1       2.894  14.165  20.694  0.00  0.00    +0.000 A 
ENDBRANCH   8   9
BRANCH   7  15
ATOM     15  C   UNL     1      -1.327  12.874  19.137  0.00  0.00    +0.000 A 
ATOM     16  C   UNL     1      -1.783  12.077  18.079  0.00  0.00    +0.000 A 
ATOM     17  C   UNL     1      -3.082  11.564  18.091  0.00  0.00    +0.000 A 
ATOM     18  C   UNL     1      -3.931  11.843  19.162  0.00  0.00    +0.000 A 
ATOM     19  C   UNL     1      -3.475  12.616  20.229  0.00  0.00    +0.000 A 
ATOM     20  C   UNL     1      -2.176  13.127  20.220  0.00  0.00    +0.000 A 
ENDBRANCH   7  15
BRANCH   7  22
ATOM     21  C   UNL     1      -0.231  16.084  19.304  0.00  0.00    +0.000 C 
ATOM     22  C   UNL     1      -0.028  14.899  18.370  0.00  0.00    +0.000 C 
ENDBRANCH   7  22
ENDBRANCH   1   8
BRANCH   4  23
ATOM     23  C   UNL     1       1.213   7.261  20.803  0.00  0.00    +0.000 C 
ATOM     24  C   UNL     1       2.016   6.393  20.163  0.00  0.00    +0.000 C 
BRANCH  24  25
ATOM     25  C   UNL     1       1.951   4.949  20.495  0.00  0.00    +0.000 C 
ATOM     26  O   UNL     1       2.436   4.472  21.514  0.00  0.00    +0.000 OA
ATOM     27  N   UNL     1       1.320   4.202  19.529  0.00  0.00    +0.000 N 
ATOM     28  H   UNL     1       0.970   4.645  18.691  0.00  0.00    +0.000 HD
BRANCH  27  29
ATOM     29  C   UNL     1       1.176   2.764  19.654  0.00  0.00    +0.000 C 
BRANCH  29  30
ATOM     30  C   UNL     1       1.804   1.998  18.489  0.00  0.00    +0.000 C 
BRANCH  30  31
ATOM     31  C   UNL     1       3.324   1.896  18.543  0.00  0.00    +0.000 C 
BRANCH  31  32
ATOM     32  O   UNL     1       3.928   3.132  18.195  0.00  0.00    +0.000 OA
ATOM     33  H   UNL     1       4.893   2.957  18.117  0.00  0.00    +0.000 HD
ENDBRANCH  31  32
ENDBRANCH  30  31
ENDBRANCH  29  30
ENDBRANCH  27  29
ENDBRANCH  24  25
ENDBRANCH   4  23
TORSDOF 10
ENDMDL
