MODEL 1
REMARK VINA RESULT:      -8.4      0.000      0.000
REMARK  Name = 
REMARK  9 active torsions:
REMARK  status: ('A' for Active; 'I' for Inactive)
REMARK    1  A    between atoms: N_1  and  C_2
REMARK    2  A    between atoms: C_4  and  C_5
REMARK    3  A    between atoms: C_7  and  C_8
REMARK    4  A    between atoms: C_16  and  N_17
REMARK    5  A    between atoms: C_20  and  C_21
REMARK    6  A    between atoms: N_23  and  CA_24
REMARK    7  A    between atoms: CA_24  and  C_25
REMARK    8  A    between atoms: CA_24  and  C_27
REMARK    9  A    between atoms: C_25  and  O_26
REMARK                            x       y       z     vdW  Elec       q    Type
REMARK                         _______ _______ _______ _____ _____    ______ ____
ROOT
ATOM      1  C   UNL     1       1.581   7.994  20.058  0.00  0.00    +0.000 A 
ATOM      2  C   UNL     1       0.952   9.235  19.894  0.00  0.00    +0.000 A 
ATOM      3  C   UNL     1       1.163  10.059  18.778  0.00  0.00    +0.000 A 
ATOM      4  C   UNL     1       1.975   9.514  17.757  0.00  0.00    +0.000 A 
ATOM      5  C   UNL     1       2.460   8.195  17.826  0.00  0.00    +0.000 A 
ATOM      6  C   UNL     1       2.259   7.414  18.977  0.00  0.00    +0.000 A 
ENDROOT
BRANCH   3   7
ATOM      7  C   UNL     1       0.611  11.444  18.769  0.00  0.00    +0.000 A 
ATOM      8  C   UNL     1       1.488  12.544  18.909  0.00  0.00    +0.000 A 
ATOM      9  C   UNL     1       1.047  13.863  18.993  0.00  0.00    +0.000 A 
ATOM     10  C   UNL     1      -0.317  14.053  18.881  0.00  0.00    +0.000 A 
ATOM     11  N   UNL     1      -1.213  13.041  18.714  0.00  0.00    +0.000 NA
ATOM     12  C   UNL     1      -0.748  11.779  18.682  0.00  0.00    +0.000 A 
BRANCH   9  13
ATOM     13  C   UNL     1       2.007  15.023  19.240  0.00  0.00    +0.000 C 
ATOM     14  C   UNL     1       1.281  16.374  19.362  0.00  0.00    +0.000 C 
ATOM     15  C   UNL     1       2.281  17.512  19.517  0.00  0.00    +0.000 C 
ATOM     16  O   UNL     1       3.208  17.521  18.433  0.00  0.00    +0.000 OA
ATOM     17  C   UNL     1       3.988  16.329  18.380  0.00  0.00    +0.000 C 
ATOM     18  C   UNL     1       3.094  15.113  18.153  0.00  0.00    +0.000 C 
ENDBRANCH   9  13
BRANCH  12  19
ATOM     19  N   UNL     1      -1.747  10.806  18.552  0.00  0.00    +0.000 N 
ATOM     20  H   UNL     1      -2.632  11.310  18.455  0.00  0.00    +0.000 HD
ATOM     21  H   UNL     1      -1.746  10.181  19.349  0.00  0.00    +0.000 HD
ENDBRANCH  12  19
ENDBRANCH   3   7
BRANCH   6  22
ATOM     22  C   UNL     1       2.692   5.971  19.060  0.00  0.00    +0.000 C 
ATOM     23  O   UNL     1       1.974   5.116  19.575  0.00  0.00    +0.000 OA
ATOM     24  N   UNL     1       3.887   5.622  18.464  0.00  0.00    +0.000 N 
ATOM     25  H   UNL     1       4.417   6.332  17.981  0.00  0.00    +0.000 HD
BRANCH  24  26
ATOM     26  CA  UNL     1       4.345   4.222  18.251  0.00  0.00    +0.000 C 
BRANCH  26  27
ATOM     27  C   UNL     1       5.344   4.249  17.084  0.00  0.00    +0.000 A 
ATOM     28  C   UNL     1       6.711   4.538  17.206  0.00  0.00    +0.000 A 
ATOM     29  C   UNL     1       7.479   4.830  16.064  0.00  0.00    +0.000 A 
ATOM     30  C   UNL     1       6.902   4.802  14.797  0.00  0.00    +0.000 A 
ATOM     31  C   UNL     1       5.585   4.385  14.652  0.00  0.00    +0.000 A 
ATOM     32  C   UNL     1       4.825   4.083  15.782  0.00  0.00    +0.000 A 
ENDBRANCH  26  27
BRANCH  26  33
ATOM     33  C   UNL     1       4.877   3.620  19.581  0.00  0.00    +0.000 C 
BRANCH  33  34
ATOM     34  O   UNL     1       5.024   2.198  19.557  0.00  0.00    +0.000 OA
ATOM     35  H   UNL     1       5.052   1.907  18.620  0.00  0.00    +0.000 HD
ENDBRANCH  33  34
ENDBRANCH  26  33
ENDBRANCH  24  26
ENDBRANCH   6  22
BRANCH   1  36
ATOM     36  N   UNL     1       1.767   7.572  21.384  0.00  0.00    +0.000 N 
ATOM     37  H   UNL     1       2.674   7.719  21.806  0.00  0.00    +0.000 HD
ATOM     38  H   UNL     1       0.964   7.718  22.000  0.00  0.00    +0.000 HD
ENDBRANCH   1  36
TORSDOF 9
ENDMDL
MODEL 2
REMARK VINA RESULT:      -8.3      2.656      3.625
REMARK  Name = 
REMARK  9 active torsions:
REMARK  status: ('A' for Active; 'I' for Inactive)
REMARK    1  A    between atoms: N_1  and  C_2
REMARK    2  A    between atoms: C_4  and  C_5
REMARK    3  A    between atoms: C_7  and  C_8
REMARK    4  A    between atoms: C_16  and  N_17
REMARK    5  A    between atoms: C_20  and  C_21
REMARK    6  A    between atoms: N_23  and  CA_24
REMARK    7  A    between atoms: CA_24  and  C_25
REMARK    8  A    between atoms: CA_24  and  C_27
REMARK    9  A    between atoms: C_25  and  O_26
REMARK                            x       y       z     vdW  Elec       q    Type
REMARK                         _______ _______ _______ _____ _____    ______ ____
ROOT
ATOM      1  C   UNL     1       1.624   7.666  19.871  0.00  0.00    +0.000 A 
ATOM      2  C   UNL     1       1.132   8.973  19.987  0.00  0.00    +0.000 A 
ATOM      3  C   UNL     1       1.328   9.955  19.003  0.00  0.00    +0.000 A 
ATOM      4  C   UNL     1       1.968   9.519  17.819  0.00  0.00    +0.000 A 
ATOM      5  C   UNL     1       2.300   8.167  17.616  0.00  0.00    +0.000 A 
ATOM      6  C   UNL     1       2.122   7.221  18.639  0.00  0.00    +0.000 A 
ENDROOT
BRANCH   3   7
ATOM      7  C   UNL     1       0.943  11.367  19.285  0.00  0.00    +0.000 A 
ATOM      8  C   UNL     1      -0.102  11.634  20.200  0.00  0.00    +0.000 A 
ATOM      9  C   UNL     1      -0.578  12.917  20.458  0.00  0.00    +0.000 A 
ATOM     10  C   UNL     1       0.066  13.946  19.796  0.00  0.00    +0.000 A 
ATOM     11  N   UNL     1       1.098  13.760  18.927  0.00  0.00    +0.000 NA
ATOM     12  C   UNL     1       1.498  12.501  18.675  0.00  0.00    +0.000 A 
BRANCH   9  13
ATOM     13  C   UNL     1      -1.769  13.169  21.376  0.00  0.00    +0.000 C 
ATOM     14  C   UNL     1      -1.783  12.231  22.595  0.00  0.00    +0.000 C 
ATOM     15  C   UNL     1      -3.034  12.455  23.436  0.00  0.00    +0.000 C 
ATOM     16  O   UNL     1      -4.209  12.290  22.645  0.00  0.00    +0.000 OA
ATOM     17  C   UNL     1      -4.284  13.239  21.583  0.00  0.00    +0.000 C 
ATOM     18  C   UNL     1      -3.110  13.065  20.625  0.00  0.00    +0.000 C 
ENDBRANCH   9  13
BRANCH  12  19
ATOM     19  N   UNL     1       2.532  12.409  17.735  0.00  0.00    +0.000 N 
ATOM     20  H   UNL     1       3.386  12.709  18.212  0.00  0.00    +0.000 HD
ATOM     21  H   UNL     1       2.329  12.973  16.919  0.00  0.00    +0.000 HD
ENDBRANCH  12  19
ENDBRANCH   3   7
BRANCH   6  22
ATOM     22  C   UNL     1       2.389   5.750  18.434  0.00  0.00    +0.000 C 
ATOM     23  O   UNL     1       1.612   5.040  17.797  0.00  0.00    +0.000 OA
ATOM     24  N   UNL     1       3.578   5.239  18.913  0.00  0.00    +0.000 N 
ATOM     25  H   UNL     1       4.232   5.863  19.363  0.00  0.00    +0.000 HD
BRANCH  24  26
ATOM     26  CA  UNL     1       4.101   3.881  18.596  0.00  0.00    +0.000 C 
BRANCH  26  27
ATOM     27  C   UNL     1       5.276   4.068  17.624  0.00  0.00    +0.000 A 
ATOM     28  C   UNL     1       6.508   4.650  17.957  0.00  0.00    +0.000 A 
ATOM     29  C   UNL     1       7.401   5.046  16.946  0.00  0.00    +0.000 A 
ATOM     30  C   UNL     1       7.091   4.834  15.605  0.00  0.00    +0.000 A 
ATOM     31  C   UNL     1       5.939   4.137  15.269  0.00  0.00    +0.000 A 
ATOM     32  C   UNL     1       5.056   3.732  16.270  0.00  0.00    +0.000 A 
ENDBRANCH  26  27
BRANCH  26  33
ATOM     33  C   UNL     1       4.424   3.110  19.905  0.00  0.00    +0.000 C 
BRANCH  33  34
ATOM     34  O   UNL     1       5.125   1.881  19.697  0.00  0.00    +0.000 OA
ATOM     35  H   UNL     1       5.026   1.329  20.502  0.00  0.00    +0.000 HD
ENDBRANCH  33  34
ENDBRANCH  26  33
ENDBRANCH  24  26
ENDBRANCH   6  22
BRANCH   1  36
ATOM     36  N   UNL     1       1.887   7.002  21.080  0.00  0.00    +0.000 N 
ATOM     37  H   UNL     1       2.085   7.565  21.897  0.00  0.00    +0.000 HD
ATOM     38  H   UNL     1       1.323   6.166  21.244  0.00  0.00    +0.000 HD
ENDBRANCH   1  36
TORSDOF 9
ENDMDL
MODEL 3
REMARK VINA RESULT:      -8.3      3.382      9.831
REMARK  Name = 
REMARK  9 active torsions:
REMARK  status: ('A' for Active; 'I' for Inactive)
REMARK    1  A    between atoms: N_1  and  C_2
REMARK    2  A    between atoms: C_4  and  C_5
REMARK    3  A    between atoms: C_7  and  C_8
REMARK    4  A    between atoms: C_16  and  N_17
REMARK    5  A    between atoms: C_20  and  C_21
REMARK    6  A    between atoms: N_23  and  CA_24
REMARK    7  A    between atoms: CA_24  and  C_25
REMARK    8  A    between atoms: CA_24  and  C_27
REMARK    9  A    between atoms: C_25  and  O_26
REMARK                            x       y       z     vdW  Elec       q    Type
REMARK                         _______ _______ _______ _____ _____    ______ ____
ROOT
ATOM      1  C   UNL     1       1.531   9.059  18.753  0.00  0.00    +0.000 A 
ATOM      2  C   UNL     1       1.838   7.726  18.451  0.00  0.00    +0.000 A 
ATOM      3  C   UNL     1       1.982   6.733  19.432  0.00  0.00    +0.000 A 
ATOM      4  C   UNL     1       1.690   7.131  20.757  0.00  0.00    +0.000 A 
ATOM      5  C   UNL     1       1.201   8.417  21.049  0.00  0.00    +0.000 A 
ATOM      6  C   UNL     1       1.106   9.396  20.045  0.00  0.00    +0.000 A 
ENDROOT
BRANCH   3   7
ATOM      7  C   UNL     1       2.497   5.387  19.048  0.00  0.00    +0.000 A 
ATOM      8  C   UNL     1       3.659   5.289  18.247  0.00  0.00    +0.000 A 
ATOM      9  C   UNL     1       4.158   4.077  17.776  0.00  0.00    +0.000 A 
ATOM     10  C   UNL     1       3.477   2.945  18.181  0.00  0.00    +0.000 A 
ATOM     11  N   UNL     1       2.372   2.967  18.976  0.00  0.00    +0.000 NA
ATOM     12  C   UNL     1       1.898   4.162  19.373  0.00  0.00    +0.000 A 
BRANCH   9  13
ATOM     13  C   UNL     1       5.356   4.006  16.835  0.00  0.00    +0.000 C 
ATOM     14  C   UNL     1       6.588   4.741  17.390  0.00  0.00    +0.000 C 
ATOM     15  C   UNL     1       7.729   4.722  16.381  0.00  0.00    +0.000 C 
ATOM     16  O   UNL     1       7.311   5.283  15.137  0.00  0.00    +0.000 OA
ATOM     17  C   UNL     1       6.254   4.537  14.536  0.00  0.00    +0.000 C 
ATOM     18  C   UNL     1       5.019   4.544  15.432  0.00  0.00    +0.000 C 
ENDBRANCH   9  13
BRANCH  12  19
ATOM     19  N   UNL     1       0.735   4.085  20.148  0.00  0.00    +0.000 N 
ATOM     20  H   UNL     1       0.610   3.099  20.389  0.00  0.00    +0.000 HD
ATOM     21  H   UNL     1      -0.059   4.462  19.645  0.00  0.00    +0.000 HD
ENDBRANCH  12  19
ENDBRANCH   3   7
BRANCH   6  22
ATOM     22  C   UNL     1       0.512  10.760  20.300  0.00  0.00    +0.000 C 
ATOM     23  O   UNL     1       1.225  11.736  20.524  0.00  0.00    +0.000 OA
ATOM     24  N   UNL     1      -0.857  10.897  20.191  0.00  0.00    +0.000 N 
ATOM     25  H   UNL     1      -1.409  10.093  19.928  0.00  0.00    +0.000 HD
BRANCH  24  26
ATOM     26  CA  UNL     1      -1.575  12.200  20.178  0.00  0.00    +0.000 C 
BRANCH  26  27
ATOM     27  C   UNL     1      -2.713  12.077  19.153  0.00  0.00    +0.000 A 
ATOM     28  C   UNL     1      -4.070  12.297  19.432  0.00  0.00    +0.000 A 
ATOM     29  C   UNL     1      -5.058  11.875  18.524  0.00  0.00    +0.000 A 
ATOM     30  C   UNL     1      -4.701  11.268  17.323  0.00  0.00    +0.000 A 
ATOM     31  C   UNL     1      -3.361  11.168  16.975  0.00  0.00    +0.000 A 
ATOM     32  C   UNL     1      -2.379  11.596  17.869  0.00  0.00    +0.000 A 
ENDBRANCH  26  27
BRANCH  26  33
ATOM     33  C   UNL     1      -2.004  12.593  21.619  0.00  0.00    +0.000 C 
BRANCH  33  34
ATOM     34  O   UNL     1      -0.928  13.055  22.439  0.00  0.00    +0.000 OA
ATOM     35  H   UNL     1      -0.756  13.996  22.220  0.00  0.00    +0.000 HD
ENDBRANCH  33  34
ENDBRANCH  26  33
ENDBRANCH  24  26
ENDBRANCH   6  22
BRANCH   1  36
ATOM     36  N   UNL     1       1.986  10.016  17.831  0.00  0.00    +0.000 N 
ATOM     37  H   UNL     1       2.841  10.512  18.045  0.00  0.00    +0.000 HD
ATOM     38  H   UNL     1       1.854   9.764  16.849  0.00  0.00    +0.000 HD
ENDBRANCH   1  36
TORSDOF 9
ENDMDL
MODEL 4
REMARK VINA RESULT:      -8.3      3.435      4.376
REMARK  Name = 
REMARK  9 active torsions:
REMARK  status: ('A' for Active; 'I' for Inactive)
REMARK    1  A    between atoms: N_1  and  C_2
REMARK    2  A    between atoms: C_4  and  C_5
REMARK    3  A    between atoms: C_7  and  C_8
REMARK    4  A    between atoms: C_16  and  N_17
REMARK    5  A    between atoms: C_20  and  C_21
REMARK    6  A    between atoms: N_23  and  CA_24
REMARK    7  A    between atoms: CA_24  and  C_25
REMARK    8  A    between atoms: CA_24  and  C_27
REMARK    9  A    between atoms: C_25  and  O_26
REMARK                            x       y       z     vdW  Elec       q    Type
REMARK                         _______ _______ _______ _____ _____    ______ ____
ROOT
ATOM      1  C   UNL     1       2.481   6.359  19.655  0.00  0.00    +0.000 A 
ATOM      2  C   UNL     1       1.493   7.343  19.789  0.00  0.00    +0.000 A 
ATOM      3  C   UNL     1       1.479   8.523  19.028  0.00  0.00    +0.000 A 
ATOM      4  C   UNL     1       2.473   8.619  18.026  0.00  0.00    +0.000 A 
ATOM      5  C   UNL     1       3.355   7.556  17.758  0.00  0.00    +0.000 A 
ATOM      6  C   UNL     1       3.362   6.406  18.566  0.00  0.00    +0.000 A 
ENDROOT
BRANCH   3   7
ATOM      7  C   UNL     1       0.509   9.604  19.362  0.00  0.00    +0.000 A 
ATOM      8  C   UNL     1      -0.487   9.959  18.423  0.00  0.00    +0.000 A 
ATOM      9  C   UNL     1      -1.379  11.011  18.621  0.00  0.00    +0.000 A 
ATOM     10  C   UNL     1      -1.273  11.674  19.829  0.00  0.00    +0.000 A 
ATOM     11  N   UNL     1      -0.358  11.362  20.789  0.00  0.00    +0.000 NA
ATOM     12  C   UNL     1       0.512  10.368  20.538  0.00  0.00    +0.000 A 
BRANCH   9  13
ATOM     13  C   UNL     1      -2.380  11.436  17.552  0.00  0.00    +0.000 C 
ATOM     14  C   UNL     1      -3.823  11.489  18.082  0.00  0.00    +0.000 C 
ATOM     15  C   UNL     1      -4.798  11.829  16.961  0.00  0.00    +0.000 C 
ATOM     16  O   UNL     1      -4.677  10.897  15.888  0.00  0.00    +0.000 OA
ATOM     17  C   UNL     1      -3.382  10.925  15.292  0.00  0.00    +0.000 C 
ATOM     18  C   UNL     1      -2.316  10.528  16.309  0.00  0.00    +0.000 C 
ENDBRANCH   9  13
BRANCH  12  19
ATOM     19  N   UNL     1       1.441  10.151  21.563  0.00  0.00    +0.000 N 
ATOM     20  H   UNL     1       2.084  10.948  21.546  0.00  0.00    +0.000 HD
ATOM     21  H   UNL     1       1.920   9.268  21.434  0.00  0.00    +0.000 HD
ENDBRANCH  12  19
ENDBRANCH   3   7
BRANCH   6  22
ATOM     22  C   UNL     1       4.235   5.213  18.264  0.00  0.00    +0.000 C 
ATOM     23  O   UNL     1       3.808   4.064  18.371  0.00  0.00    +0.000 OA
ATOM     24  N   UNL     1       5.507   5.450  17.784  0.00  0.00    +0.000 N 
ATOM     25  H   UNL     1       5.802   6.403  17.633  0.00  0.00    +0.000 HD
BRANCH  24  26
ATOM     26  CA  UNL     1       6.404   4.404  17.222  0.00  0.00    +0.000 C 
BRANCH  26  27
ATOM     27  C   UNL     1       6.298   4.496  15.692  0.00  0.00    +0.000 A 
ATOM     28  C   UNL     1       5.267   3.935  14.925  0.00  0.00    +0.000 A 
ATOM     29  C   UNL     1       5.406   3.812  13.530  0.00  0.00    +0.000 A 
ATOM     30  C   UNL     1       6.552   4.277  12.890  0.00  0.00    +0.000 A 
ATOM     31  C   UNL     1       7.518   4.956  13.621  0.00  0.00    +0.000 A 
ATOM     32  C   UNL     1       7.377   5.089  15.001  0.00  0.00    +0.000 A 
ENDBRANCH  26  27
BRANCH  26  33
ATOM     33  C   UNL     1       7.835   4.549  17.809  0.00  0.00    +0.000 C 
BRANCH  33  34
ATOM     34  O   UNL     1       7.871   5.136  19.112  0.00  0.00    +0.000 OA
ATOM     35  H   UNL     1       7.264   4.630  19.694  0.00  0.00    +0.000 HD
ENDBRANCH  33  34
ENDBRANCH  26  33
ENDBRANCH  24  26
ENDBRANCH   6  22
BRANCH   1  36
ATOM     36  N   UNL     1       2.729   5.582  20.798  0.00  0.00    +0.000 N 
ATOM     37  H   UNL     1       3.573   5.024  20.818  0.00  0.00    +0.000 HD
ATOM     38  H   UNL     1       2.468   6.021  21.683  0.00  0.00    +0.000 HD
ENDBRANCH   1  36
TORSDOF 9
ENDMDL
MODEL 5
REMARK VINA RESULT:      -8.3      4.517     10.949
REMARK  Name = 
REMARK  9 active torsions:
REMARK  status: ('A' for Active; 'I' for Inactive)
REMARK    1  A    between atoms: N_1  and  C_2
REMARK    2  A    between atoms: C_4  and  C_5
REMARK    3  A    between atoms: C_7  and  C_8
REMARK    4  A    between atoms: C_16  and  N_17
REMARK    5  A    between atoms: C_20  and  C_21
REMARK    6  A    between atoms: N_23  and  CA_24
REMARK    7  A    between atoms: CA_24  and  C_25
REMARK    8  A    between atoms: CA_24  and  C_27
REMARK    9  A    between atoms: C_25  and  O_26
REMARK                            x       y       z     vdW  Elec       q    Type
REMARK                         _______ _______ _______ _____ _____    ______ ____
ROOT
ATOM      1  C   UNL     1      -0.140  10.163  22.422  0.00  0.00    +0.000 A 
ATOM      2  C   UNL     1       0.756   9.442  21.622  0.00  0.00    +0.000 A 
ATOM      3  C   UNL     1       0.740   9.490  20.219  0.00  0.00    +0.000 A 
ATOM      4  C   UNL     1      -0.175  10.404  19.646  0.00  0.00    +0.000 A 
ATOM      5  C   UNL     1      -0.949  11.268  20.442  0.00  0.00    +0.000 A 
ATOM      6  C   UNL     1      -0.934  11.164  21.843  0.00  0.00    +0.000 A 
ENDROOT
BRANCH   3   7
ATOM      7  C   UNL     1       1.596   8.551  19.440  0.00  0.00    +0.000 A 
ATOM      8  C   UNL     1       1.919   7.287  19.987  0.00  0.00    +0.000 A 
ATOM      9  C   UNL     1       2.777   6.385  19.363  0.00  0.00    +0.000 A 
ATOM     10  C   UNL     1       3.271   6.773  18.132  0.00  0.00    +0.000 A 
ATOM     11  N   UNL     1       2.976   7.961  17.535  0.00  0.00    +0.000 NA
ATOM     12  C   UNL     1       2.177   8.821  18.193  0.00  0.00    +0.000 A 
BRANCH   9  13
ATOM     13  C   UNL     1       3.184   5.069  20.018  0.00  0.00    +0.000 C 
ATOM     14  C   UNL     1       3.787   4.071  19.015  0.00  0.00    +0.000 C 
ATOM     15  C   UNL     1       4.095   2.742  19.694  0.00  0.00    +0.000 C 
ATOM     16  O   UNL     1       2.926   2.209  20.313  0.00  0.00    +0.000 OA
ATOM     17  C   UNL     1       2.424   3.059  21.342  0.00  0.00    +0.000 C 
ATOM     18  C   UNL     1       2.011   4.410  20.767  0.00  0.00    +0.000 C 
ENDBRANCH   9  13
BRANCH  12  19
ATOM     19  N   UNL     1       1.968  10.032  17.522  0.00  0.00    +0.000 N 
ATOM     20  H   UNL     1       2.895  10.397  17.285  0.00  0.00    +0.000 HD
ATOM     21  H   UNL     1       1.437  10.675  18.096  0.00  0.00    +0.000 HD
ENDBRANCH  12  19
ENDBRANCH   3   7
BRANCH   6  22
ATOM     22  C   UNL     1      -1.687  12.122  22.733  0.00  0.00    +0.000 C 
ATOM     23  O   UNL     1      -1.096  12.882  23.499  0.00  0.00    +0.000 OA
ATOM     24  N   UNL     1      -3.059  12.178  22.603  0.00  0.00    +0.000 N 
ATOM     25  H   UNL     1      -3.508  11.597  21.910  0.00  0.00    +0.000 HD
BRANCH  24  26
ATOM     26  CA  UNL     1      -3.923  13.219  23.225  0.00  0.00    +0.000 C 
BRANCH  26  27
ATOM     27  C   UNL     1      -5.113  13.440  22.279  0.00  0.00    +0.000 A 
ATOM     28  C   UNL     1      -6.186  14.308  22.530  0.00  0.00    +0.000 A 
ATOM     29  C   UNL     1      -7.361  14.224  21.761  0.00  0.00    +0.000 A 
ATOM     30  C   UNL     1      -7.460  13.305  20.720  0.00  0.00    +0.000 A 
ATOM     31  C   UNL     1      -6.357  12.536  20.375  0.00  0.00    +0.000 A 
ATOM     32  C   UNL     1      -5.187  12.625  21.129  0.00  0.00    +0.000 A 
ENDBRANCH  26  27
BRANCH  26  33
ATOM     33  C   UNL     1      -4.284  12.817  24.682  0.00  0.00    +0.000 C 
BRANCH  33  34
ATOM     34  O   UNL     1      -5.181  11.706  24.773  0.00  0.00    +0.000 OA
ATOM     35  H   UNL     1      -4.823  10.977  24.222  0.00  0.00    +0.000 HD
ENDBRANCH  33  34
ENDBRANCH  26  33
ENDBRANCH  24  26
ENDBRANCH   6  22
BRANCH   1  36
ATOM     36  N   UNL     1      -0.419   9.609  23.681  0.00  0.00    +0.000 N 
ATOM     37  H   UNL     1       0.264   8.980  24.084  0.00  0.00    +0.000 HD
ATOM     38  H   UNL     1      -0.880  10.242  24.339  0.00  0.00    +0.000 HD
ENDBRANCH   1  36
TORSDOF 9
ENDMDL
MODEL 6
REMARK VINA RESULT:      -8.2      0.652      1.061
REMARK  Name = 
REMARK  9 active torsions:
REMARK  status: ('A' for Active; 'I' for Inactive)
REMARK    1  A    between atoms: N_1  and  C_2
REMARK    2  A    between atoms: C_4  and  C_5
REMARK    3  A    between atoms: C_7  and  C_8
REMARK    4  A    between atoms: C_16  and  N_17
REMARK    5  A    between atoms: C_20  and  C_21
REMARK    6  A    between atoms: N_23  and  CA_24
REMARK    7  A    between atoms: CA_24  and  C_25
REMARK    8  A    between atoms: CA_24  and  C_27
REMARK    9  A    between atoms: C_25  and  O_26
REMARK                            x       y       z     vdW  Elec       q    Type
REMARK                         _______ _______ _______ _____ _____    ______ ____
ROOT
ATOM      1  C   UNL     1       1.569   8.187  20.125  0.00  0.00    +0.000 A 
ATOM      2  C   UNL     1       0.991   9.451  19.945  0.00  0.00    +0.000 A 
ATOM      3  C   UNL     1       1.213  10.239  18.805  0.00  0.00    +0.000 A 
ATOM      4  C   UNL     1       1.980   9.635  17.781  0.00  0.00    +0.000 A 
ATOM      5  C   UNL     1       2.409   8.299  17.872  0.00  0.00    +0.000 A 
ATOM      6  C   UNL     1       2.200   7.554  19.045  0.00  0.00    +0.000 A 
ENDROOT
BRANCH   3   7
ATOM      7  C   UNL     1       0.720  11.645  18.774  0.00  0.00    +0.000 A 
ATOM      8  C   UNL     1       1.649  12.707  18.667  0.00  0.00    +0.000 A 
ATOM      9  C   UNL     1       1.280  14.049  18.714  0.00  0.00    +0.000 A 
ATOM     10  C   UNL     1      -0.075  14.299  18.823  0.00  0.00    +0.000 A 
ATOM     11  N   UNL     1      -1.024  13.326  18.898  0.00  0.00    +0.000 NA
ATOM     12  C   UNL     1      -0.619  12.043  18.893  0.00  0.00    +0.000 A 
BRANCH   9  13
ATOM     13  C   UNL     1       2.310  15.173  18.693  0.00  0.00    +0.000 C 
ATOM     14  C   UNL     1       3.690  14.701  18.204  0.00  0.00    +0.000 C 
ATOM     15  C   UNL     1       4.708  15.831  18.285  0.00  0.00    +0.000 C 
ATOM     16  O   UNL     1       4.782  16.349  19.612  0.00  0.00    +0.000 OA
ATOM     17  C   UNL     1       3.545  16.914  20.040  0.00  0.00    +0.000 C 
ATOM     18  C   UNL     1       2.451  15.851  20.069  0.00  0.00    +0.000 C 
ENDBRANCH   9  13
BRANCH  12  19
ATOM     19  N   UNL     1      -1.661  11.116  19.020  0.00  0.00    +0.000 N 
ATOM     20  H   UNL     1      -2.424  11.599  19.501  0.00  0.00    +0.000 HD
ATOM     21  H   UNL     1      -1.351  10.292  19.522  0.00  0.00    +0.000 HD
ENDBRANCH  12  19
ENDBRANCH   3   7
BRANCH   6  22
ATOM     22  C   UNL     1       2.573   6.096  19.154  0.00  0.00    +0.000 C 
ATOM     23  O   UNL     1       1.817   5.280  19.679  0.00  0.00    +0.000 OA
ATOM     24  N   UNL     1       3.755   5.689  18.571  0.00  0.00    +0.000 N 
ATOM     25  H   UNL     1       4.316   6.368  18.078  0.00  0.00    +0.000 HD
BRANCH  24  26
ATOM     26  CA  UNL     1       4.156   4.268  18.382  0.00  0.00    +0.000 C 
BRANCH  26  27
ATOM     27  C   UNL     1       5.255   4.249  17.309  0.00  0.00    +0.000 A 
ATOM     28  C   UNL     1       6.588   4.631  17.519  0.00  0.00    +0.000 A 
ATOM     29  C   UNL     1       7.440   4.865  16.425  0.00  0.00    +0.000 A 
ATOM     30  C   UNL     1       6.983   4.686  15.122  0.00  0.00    +0.000 A 
ATOM     31  C   UNL     1       5.709   4.178  14.905  0.00  0.00    +0.000 A 
ATOM     32  C   UNL     1       4.866   3.934  15.988  0.00  0.00    +0.000 A 
ENDBRANCH  26  27
BRANCH  26  33
ATOM     33  C   UNL     1       4.535   3.630  19.747  0.00  0.00    +0.000 C 
BRANCH  33  34
ATOM     34  O   UNL     1       5.113   2.326  19.638  0.00  0.00    +0.000 OA
ATOM     35  H   UNL     1       5.970   2.328  20.115  0.00  0.00    +0.000 HD
ENDBRANCH  33  34
ENDBRANCH  26  33
ENDBRANCH  24  26
ENDBRANCH   6  22
BRANCH   1  36
ATOM     36  N   UNL     1       1.765   7.789  21.457  0.00  0.00    +0.000 N 
ATOM     37  H   UNL     1       1.010   7.938  22.113  0.00  0.00    +0.000 HD
ATOM     38  H   UNL     1       2.286   6.917  21.574  0.00  0.00    +0.000 HD
ENDBRANCH   1  36
TORSDOF 9
ENDMDL
MODEL 7
REMARK VINA RESULT:      -8.1      2.360      3.321
REMARK  Name = 
REMARK  9 active torsions:
REMARK  status: ('A' for Active; 'I' for Inactive)
REMARK    1  A    between atoms: N_1  and  C_2
REMARK    2  A    between atoms: C_4  and  C_5
REMARK    3  A    between atoms: C_7  and  C_8
REMARK    4  A    between atoms: C_16  and  N_17
REMARK    5  A    between atoms: C_20  and  C_21
REMARK    6  A    between atoms: N_23  and  CA_24
REMARK    7  A    between atoms: CA_24  and  C_25
REMARK    8  A    between atoms: CA_24  and  C_27
REMARK    9  A    between atoms: C_25  and  O_26
REMARK                            x       y       z     vdW  Elec       q    Type
REMARK                         _______ _______ _______ _____ _____    ______ ____
ROOT
ATOM      1  C   UNL     1       1.558   8.024  20.119  0.00  0.00    +0.000 A 
ATOM      2  C   UNL     1       0.994   9.304  20.026  0.00  0.00    +0.000 A 
ATOM      3  C   UNL     1       1.227  10.166  18.943  0.00  0.00    +0.000 A 
ATOM      4  C   UNL     1       1.989   9.626  17.881  0.00  0.00    +0.000 A 
ATOM      5  C   UNL     1       2.403   8.282  17.880  0.00  0.00    +0.000 A 
ATOM      6  C   UNL     1       2.183   7.460  18.998  0.00  0.00    +0.000 A 
ENDROOT
BRANCH   3   7
ATOM      7  C   UNL     1       0.750  11.577  19.009  0.00  0.00    +0.000 A 
ATOM      8  C   UNL     1      -0.446  11.875  19.702  0.00  0.00    +0.000 A 
ATOM      9  C   UNL     1      -1.005  13.150  19.742  0.00  0.00    +0.000 A 
ATOM     10  C   UNL     1      -0.292  14.143  19.097  0.00  0.00    +0.000 A 
ATOM     11  N   UNL     1       0.881  13.930  18.438  0.00  0.00    +0.000 NA
ATOM     12  C   UNL     1       1.362  12.675  18.388  0.00  0.00    +0.000 A 
BRANCH   9  13
ATOM     13  C   UNL     1      -2.345  13.426  20.415  0.00  0.00    +0.000 C 
ATOM     14  C   UNL     1      -2.499  14.895  20.845  0.00  0.00    +0.000 C 
ATOM     15  C   UNL     1      -3.811  15.105  21.592  0.00  0.00    +0.000 C 
ATOM     16  O   UNL     1      -3.899  14.228  22.713  0.00  0.00    +0.000 OA
ATOM     17  C   UNL     1      -3.892  12.855  22.327  0.00  0.00    +0.000 C 
ATOM     18  C   UNL     1      -2.584  12.503  21.625  0.00  0.00    +0.000 C 
ENDBRANCH   9  13
BRANCH  12  19
ATOM     19  N   UNL     1       2.546  12.547  17.652  0.00  0.00    +0.000 N 
ATOM     20  H   UNL     1       2.418  13.097  16.798  0.00  0.00    +0.000 HD
ATOM     21  H   UNL     1       2.745  11.574  17.455  0.00  0.00    +0.000 HD
ENDBRANCH  12  19
ENDBRANCH   3   7
BRANCH   6  22
ATOM     22  C   UNL     1       2.540   5.994  19.007  0.00  0.00    +0.000 C 
ATOM     23  O   UNL     1       1.726   5.140  19.354  0.00  0.00    +0.000 OA
ATOM     24  N   UNL     1       3.784   5.631  18.533  0.00  0.00    +0.000 N 
ATOM     25  H   UNL     1       4.401   6.349  18.182  0.00  0.00    +0.000 HD
BRANCH  24  26
ATOM     26  CA  UNL     1       4.205   4.231  18.255  0.00  0.00    +0.000 C 
BRANCH  26  27
ATOM     27  C   UNL     1       5.240   4.289  17.122  0.00  0.00    +0.000 A 
ATOM     28  C   UNL     1       6.599   4.593  17.292  0.00  0.00    +0.000 A 
ATOM     29  C   UNL     1       7.399   4.914  16.181  0.00  0.00    +0.000 A 
ATOM     30  C   UNL     1       6.863   4.898  14.896  0.00  0.00    +0.000 A 
ATOM     31  C   UNL     1       5.557   4.467  14.702  0.00  0.00    +0.000 A 
ATOM     32  C   UNL     1       4.765   4.138  15.801  0.00  0.00    +0.000 A 
ENDBRANCH  26  27
BRANCH  26  33
ATOM     33  C   UNL     1       4.675   3.539  19.564  0.00  0.00    +0.000 C 
BRANCH  33  34
ATOM     34  O   UNL     1       5.002   2.156  19.405  0.00  0.00    +0.000 OA
ATOM     35  H   UNL     1       5.580   1.889  20.152  0.00  0.00    +0.000 HD
ENDBRANCH  33  34
ENDBRANCH  26  33
ENDBRANCH  24  26
ENDBRANCH   6  22
BRANCH   1  36
ATOM     36  N   UNL     1       1.747   7.533  21.420  0.00  0.00    +0.000 N 
ATOM     37  H   UNL     1       2.477   6.848  21.567  0.00  0.00    +0.000 HD
ATOM     38  H   UNL     1       1.634   8.225  22.164  0.00  0.00    +0.000 HD
ENDBRANCH   1  36
TORSDOF 9
ENDMDL
MODEL 8
REMARK VINA RESULT:      -8.1      2.669      3.805
REMARK  Name = 
REMARK  9 active torsions:
REMARK  status: ('A' for Active; 'I' for Inactive)
REMARK    1  A    between atoms: N_1  and  C_2
REMARK    2  A    between atoms: C_4  and  C_5
REMARK    3  A    between atoms: C_7  and  C_8
REMARK    4  A    between atoms: C_16  and  N_17
REMARK    5  A    between atoms: C_20  and  C_21
REMARK    6  A    between atoms: N_23  and  CA_24
REMARK    7  A    between atoms: CA_24  and  C_25
REMARK    8  A    between atoms: CA_24  and  C_27
REMARK    9  A    between atoms: C_25  and  O_26
REMARK                            x       y       z     vdW  Elec       q    Type
REMARK                         _______ _______ _______ _____ _____    ______ ____
ROOT
ATOM      1  C   UNL     1       1.581   8.090  20.028  0.00  0.00    +0.000 A 
ATOM      2  C   UNL     1       0.958   9.344  20.045  0.00  0.00    +0.000 A 
ATOM      3  C   UNL     1       1.137  10.302  19.035  0.00  0.00    +0.000 A 
ATOM      4  C   UNL     1       1.909   9.887  17.925  0.00  0.00    +0.000 A 
ATOM      5  C   UNL     1       2.385   8.569  17.810  0.00  0.00    +0.000 A 
ATOM      6  C   UNL     1       2.217   7.649  18.859  0.00  0.00    +0.000 A 
ENDROOT
BRANCH   3   7
ATOM      7  C   UNL     1       0.596  11.679  19.221  0.00  0.00    +0.000 A 
ATOM      8  C   UNL     1      -0.486  11.887  20.107  0.00  0.00    +0.000 A 
ATOM      9  C   UNL     1      -1.104  13.125  20.276  0.00  0.00    +0.000 A 
ATOM     10  C   UNL     1      -0.564  14.173  19.556  0.00  0.00    +0.000 A 
ATOM     11  N   UNL     1       0.496  14.047  18.709  0.00  0.00    +0.000 NA
ATOM     12  C   UNL     1       1.034  12.826  18.544  0.00  0.00    +0.000 A 
BRANCH   9  13
ATOM     13  C   UNL     1      -2.330  13.302  21.166  0.00  0.00    +0.000 C 
ATOM     14  C   UNL     1      -2.267  12.439  22.438  0.00  0.00    +0.000 C 
ATOM     15  C   UNL     1      -3.548  12.579  23.250  0.00  0.00    +0.000 C 
ATOM     16  O   UNL     1      -4.686  12.246  22.457  0.00  0.00    +0.000 OA
ATOM     17  C   UNL     1      -4.841  13.120  21.340  0.00  0.00    +0.000 C 
ATOM     18  C   UNL     1      -3.639  13.015  20.407  0.00  0.00    +0.000 C 
ENDBRANCH   9  13
BRANCH  12  19
ATOM     19  N   UNL     1       2.088  12.788  17.622  0.00  0.00    +0.000 N 
ATOM     20  H   UNL     1       2.842  13.355  18.018  0.00  0.00    +0.000 HD
ATOM     21  H   UNL     1       1.786  13.127  16.716  0.00  0.00    +0.000 HD
ENDBRANCH  12  19
ENDBRANCH   3   7
BRANCH   6  22
ATOM     22  C   UNL     1       2.641   6.205  18.744  0.00  0.00    +0.000 C 
ATOM     23  O   UNL     1       1.899   5.290  19.099  0.00  0.00    +0.000 OA
ATOM     24  N   UNL     1       3.857   5.937  18.150  0.00  0.00    +0.000 N 
ATOM     25  H   UNL     1       4.409   6.705  17.797  0.00  0.00    +0.000 HD
BRANCH  24  26
ATOM     26  CA  UNL     1       4.318   4.579  17.748  0.00  0.00    +0.000 C 
BRANCH  26  27
ATOM     27  C   UNL     1       5.177   4.751  16.487  0.00  0.00    +0.000 A 
ATOM     28  C   UNL     1       4.886   4.189  15.235  0.00  0.00    +0.000 A 
ATOM     29  C   UNL     1       5.868   4.149  14.229  0.00  0.00    +0.000 A 
ATOM     30  C   UNL     1       7.128   4.699  14.449  0.00  0.00    +0.000 A 
ATOM     31  C   UNL     1       7.383   5.378  15.633  0.00  0.00    +0.000 A 
ATOM     32  C   UNL     1       6.408   5.429  16.628  0.00  0.00    +0.000 A 
ENDBRANCH  26  27
BRANCH  26  33
ATOM     33  C   UNL     1       5.009   3.869  18.945  0.00  0.00    +0.000 C 
BRANCH  33  34
ATOM     34  O   UNL     1       4.102   3.207  19.830  0.00  0.00    +0.000 OA
ATOM     35  H   UNL     1       3.245   3.098  19.367  0.00  0.00    +0.000 HD
ENDBRANCH  33  34
ENDBRANCH  26  33
ENDBRANCH  24  26
ENDBRANCH   6  22
BRANCH   1  36
ATOM     36  N   UNL     1       1.809   7.503  21.283  0.00  0.00    +0.000 N 
ATOM     37  H   UNL     1       1.187   7.749  22.042  0.00  0.00    +0.000 HD
ATOM     38  H   UNL     1       2.106   6.525  21.254  0.00  0.00    +0.000 HD
ENDBRANCH   1  36
TORSDOF 9
ENDMDL
MODEL 9
REMARK VINA RESULT:      -8.0      4.440     10.913
REMARK  Name = 
REMARK  9 active torsions:
REMARK  status: ('A' for Active; 'I' for Inactive)
REMARK    1  A    between atoms: N_1  and  C_2
REMARK    2  A    between atoms: C_4  and  C_5
REMARK    3  A    between atoms: C_7  and  C_8
REMARK    4  A    between atoms: C_16  and  N_17
REMARK    5  A    between atoms: C_20  and  C_21
REMARK    6  A    between atoms: N_23  and  CA_24
REMARK    7  A    between atoms: CA_24  and  C_25
REMARK    8  A    between atoms: CA_24  and  C_27
REMARK    9  A    between atoms: C_25  and  O_26
REMARK                            x       y       z     vdW  Elec       q    Type
REMARK                         _______ _______ _______ _____ _____    ______ ____
ROOT
ATOM      1  C   UNL     1      -0.013  11.789  21.071  0.00  0.00    +0.000 A 
ATOM      2  C   UNL     1       0.557  10.839  20.214  0.00  0.00    +0.000 A 
ATOM      3  C   UNL     1       0.727   9.492  20.568  0.00  0.00    +0.000 A 
ATOM      4  C   UNL     1       0.184   9.113  21.818  0.00  0.00    +0.000 A 
ATOM      5  C   UNL     1      -0.555  10.015  22.605  0.00  0.00    +0.000 A 
ATOM      6  C   UNL     1      -0.670  11.366  22.235  0.00  0.00    +0.000 A 
ENDROOT
BRANCH   3   7
ATOM      7  C   UNL     1       1.513   8.590  19.680  0.00  0.00    +0.000 A 
ATOM      8  C   UNL     1       1.908   7.317  20.155  0.00  0.00    +0.000 A 
ATOM      9  C   UNL     1       2.713   6.447  19.422  0.00  0.00    +0.000 A 
ATOM     10  C   UNL     1       3.074   6.878  18.159  0.00  0.00    +0.000 A 
ATOM     11  N   UNL     1       2.702   8.076  17.630  0.00  0.00    +0.000 NA
ATOM     12  C   UNL     1       1.961   8.904  18.389  0.00  0.00    +0.000 A 
BRANCH   9  13
ATOM     13  C   UNL     1       3.204   5.122  19.995  0.00  0.00    +0.000 C 
ATOM     14  C   UNL     1       3.884   4.237  18.936  0.00  0.00    +0.000 C 
ATOM     15  C   UNL     1       4.277   2.890  19.530  0.00  0.00    +0.000 C 
ATOM     16  O   UNL     1       3.142   2.238  20.096  0.00  0.00    +0.000 OA
ATOM     17  C   UNL     1       2.573   2.981  21.172  0.00  0.00    +0.000 C 
ATOM     18  C   UNL     1       2.072   4.336  20.681  0.00  0.00    +0.000 C 
ENDBRANCH   9  13
BRANCH  12  19
ATOM     19  N   UNL     1       1.667  10.128  17.778  0.00  0.00    +0.000 N 
ATOM     20  H   UNL     1       0.651  10.157  17.657  0.00  0.00    +0.000 HD
ATOM     21  H   UNL     1       2.161  10.220  16.898  0.00  0.00    +0.000 HD
ENDBRANCH  12  19
ENDBRANCH   3   7
BRANCH   6  22
ATOM     22  C   UNL     1      -1.518  12.346  23.008  0.00  0.00    +0.000 C 
ATOM     23  O   UNL     1      -1.016  13.306  23.589  0.00  0.00    +0.000 OA
ATOM     24  N   UNL     1      -2.888  12.179  22.973  0.00  0.00    +0.000 N 
ATOM     25  H   UNL     1      -3.275  11.427  22.423  0.00  0.00    +0.000 HD
BRANCH  24  26
ATOM     26  CA  UNL     1      -3.871  13.176  23.478  0.00  0.00    +0.000 C 
BRANCH  26  27
ATOM     27  C   UNL     1      -4.917  13.376  22.371  0.00  0.00    +0.000 A 
ATOM     28  C   UNL     1      -6.092  14.130  22.505  0.00  0.00    +0.000 A 
ATOM     29  C   UNL     1      -7.122  14.014  21.554  0.00  0.00    +0.000 A 
ATOM     30  C   UNL     1      -6.975  13.177  20.451  0.00  0.00    +0.000 A 
ATOM     31  C   UNL     1      -5.765  12.530  20.237  0.00  0.00    +0.000 A 
ATOM     32  C   UNL     1      -4.738  12.653  21.172  0.00  0.00    +0.000 A 
ENDBRANCH  26  27
BRANCH  26  33
ATOM     33  C   UNL     1      -4.426  12.733  24.860  0.00  0.00    +0.000 C 
BRANCH  33  34
ATOM     34  O   UNL     1      -5.311  11.612  24.798  0.00  0.00    +0.000 OA
ATOM     35  H   UNL     1      -4.778  10.793  24.893  0.00  0.00    +0.000 HD
ENDBRANCH  33  34
ENDBRANCH  26  33
ENDBRANCH  24  26
ENDBRANCH   6  22
BRANCH   1  36
ATOM     36  N   UNL     1       0.399  13.117  20.875  0.00  0.00    +0.000 N 
ATOM     37  H   UNL     1      -0.046  13.648  20.138  0.00  0.00    +0.000 HD
ATOM     38  H   UNL     1       0.605  13.636  21.731  0.00  0.00    +0.000 HD
ENDBRANCH   1  36
TORSDOF 9
ENDMDL
