MODEL 1
REMARK VINA RESULT:      -8.6      0.000      0.000
REMARK  Name = 
REMARK  5 active torsions:
REMARK  status: ('A' for Active; 'I' for Inactive)
REMARK    1  A    between atoms: C_1  and  C_2
REMARK    2  A    between atoms: C_5  and  S_6
REMARK    3  A    between atoms: S_6  and  N_9
REMARK    4  A    between atoms: N_12  and  C_13
REMARK    5  A    between atoms: C_15  and  C_16
REMARK                            x       y       z     vdW  Elec       q    Type
REMARK                         _______ _______ _______ _____ _____    ______ ____
ROOT
ATOM      1  N   UNL     1       1.498   9.435  19.202  0.00  0.00    +0.000 NA
ATOM      2  C   UNL     1       1.989   9.033  17.867  0.00  0.00    +0.000 C 
ATOM      3  C   UNL     1       3.284   8.253  18.112  0.00  0.00    +0.000 C 
ATOM      4  N   UNL     1       3.013   7.044  18.909  0.00  0.00    +0.000 N 
ATOM      5  C   UNL     1       2.219   7.220  20.143  0.00  0.00    +0.000 C 
ATOM      6  C   UNL     1       1.060   8.258  19.995  0.00  0.00    +0.000 C 
ENDROOT
BRANCH   4   7
ATOM      7  C   UNL     1       3.092   5.816  18.259  0.00  0.00    +0.000 A 
ATOM      8  N   UNL     1       4.024   5.744  17.282  0.00  0.00    +0.000 NA
ATOM      9  C   UNL     1       4.220   4.569  16.683  0.00  0.00    +0.000 A 
ATOM     10  N   UNL     1       3.559   3.444  16.968  0.00  0.00    +0.000 NA
ATOM     11  C   UNL     1       2.634   3.531  17.932  0.00  0.00    +0.000 A 
ATOM     12  C   UNL     1       1.945   2.374  18.265  0.00  0.00    +0.000 A 
ATOM     13  C   UNL     1       0.977   2.368  19.261  0.00  0.00    +0.000 A 
ATOM     14  C   UNL     1       0.723   3.555  19.914  0.00  0.00    +0.000 A 
ATOM     15  N   UNL     1       1.363   4.707  19.627  0.00  0.00    +0.000 NA
ATOM     16  C   UNL     1       2.315   4.703  18.641  0.00  0.00    +0.000 A 
BRANCH   9  17
ATOM     17  C   UNL     1       5.231   4.499  15.624  0.00  0.00    +0.000 A 
ATOM     18  C   UNL     1       5.132   3.930  14.365  0.00  0.00    +0.000 A 
ATOM     19  C   UNL     1       6.323   4.066  13.595  0.00  0.00    +0.000 A 
ATOM     20  C   UNL     1       7.308   4.730  14.288  0.00  0.00    +0.000 A 
ATOM     21  S   UNL     1       6.795   5.185  15.851  0.00  0.00    +0.000 S 
ENDBRANCH   9  17
ENDBRANCH   4   7
BRANCH   1  22
ATOM     22  S   UNL     1       0.841  10.954  19.422  0.00  0.00    +0.000 S 
ATOM     23  O   UNL     1       1.579  11.888  18.598  0.00  0.00    +0.000 OA
ATOM     24  O   UNL     1       0.703  11.176  20.847  0.00  0.00    +0.000 OA
BRANCH  22  29
ATOM     25  C   UNL     1      -4.672  10.802  16.887  0.00  0.00    +0.000 C 
ATOM     26  C   UNL     1      -3.320  10.801  17.544  0.00  0.00    +0.000 A 
ATOM     27  C   UNL     1      -3.072  11.610  18.658  0.00  0.00    +0.000 A 
ATOM     28  C   UNL     1      -1.811  11.627  19.254  0.00  0.00    +0.000 A 
ATOM     29  C   UNL     1      -0.792  10.823  18.737  0.00  0.00    +0.000 A 
ATOM     30  C   UNL     1      -1.020  10.024  17.613  0.00  0.00    +0.000 A 
ATOM     31  C   UNL     1      -2.287  10.007  17.024  0.00  0.00    +0.000 A 
ENDBRANCH  22  29
ENDBRANCH   1  22
TORSDOF 4
ENDMDL
MODEL 2
REMARK VINA RESULT:      -8.6      2.301      3.173
REMARK  Name = 
REMARK  5 active torsions:
REMARK  status: ('A' for Active; 'I' for Inactive)
REMARK    1  A    between atoms: C_1  and  C_2
REMARK    2  A    between atoms: C_5  and  S_6
REMARK    3  A    between atoms: S_6  and  N_9
REMARK    4  A    between atoms: N_12  and  C_13
REMARK    5  A    between atoms: C_15  and  C_16
REMARK                            x       y       z     vdW  Elec       q    Type
REMARK                         _______ _______ _______ _____ _____    ______ ____
ROOT
ATOM      1  N   UNL     1       0.873   9.528  19.251  0.00  0.00    +0.000 NA
ATOM      2  C   UNL     1       1.228   9.008  17.914  0.00  0.00    +0.000 C 
ATOM      3  C   UNL     1       2.670   8.508  18.026  0.00  0.00    +0.000 C 
ATOM      4  N   UNL     1       2.761   7.413  19.008  0.00  0.00    +0.000 N 
ATOM      5  C   UNL     1       2.141   7.647  20.330  0.00  0.00    +0.000 C 
ATOM      6  C   UNL     1       0.795   8.436  20.254  0.00  0.00    +0.000 C 
ENDROOT
BRANCH   4   7
ATOM      7  C   UNL     1       2.978   6.129  18.519  0.00  0.00    +0.000 A 
ATOM      8  N   UNL     1       3.904   6.039  17.538  0.00  0.00    +0.000 NA
ATOM      9  C   UNL     1       4.232   4.826  17.090  0.00  0.00    +0.000 A 
ATOM     10  N   UNL     1       3.711   3.679  17.532  0.00  0.00    +0.000 NA
ATOM     11  C   UNL     1       2.790   3.784  18.499  0.00  0.00    +0.000 A 
ATOM     12  C   UNL     1       2.244   2.607  18.992  0.00  0.00    +0.000 A 
ATOM     13  C   UNL     1       1.291   2.620  20.004  0.00  0.00    +0.000 A 
ATOM     14  C   UNL     1       0.905   3.843  20.505  0.00  0.00    +0.000 A 
ATOM     15  N   UNL     1       1.403   5.015  20.058  0.00  0.00    +0.000 NA
ATOM     16  C   UNL     1       2.340   4.992  19.058  0.00  0.00    +0.000 A 
BRANCH   9  17
ATOM     17  C   UNL     1       5.236   4.737  16.026  0.00  0.00    +0.000 A 
ATOM     18  C   UNL     1       5.099   4.230  14.744  0.00  0.00    +0.000 A 
ATOM     19  C   UNL     1       6.296   4.322  13.976  0.00  0.00    +0.000 A 
ATOM     20  C   UNL     1       7.322   4.891  14.693  0.00  0.00    +0.000 A 
ATOM     21  S   UNL     1       6.841   5.310  16.275  0.00  0.00    +0.000 S 
ENDBRANCH   9  17
ENDBRANCH   4   7
BRANCH   1  22
ATOM     22  S   UNL     1      -0.026  10.929  19.384  0.00  0.00    +0.000 S 
ATOM     23  O   UNL     1      -0.696  10.914  20.667  0.00  0.00    +0.000 OA
ATOM     24  O   UNL     1      -0.781  11.091  18.159  0.00  0.00    +0.000 OA
BRANCH  22  29
ATOM     25  C   UNL     1       4.380  15.095  19.653  0.00  0.00    +0.000 C 
ATOM     26  C   UNL     1       3.256  14.100  19.580  0.00  0.00    +0.000 A 
ATOM     27  C   UNL     1       2.610  13.672  20.745  0.00  0.00    +0.000 A 
ATOM     28  C   UNL     1       1.583  12.731  20.680  0.00  0.00    +0.000 A 
ATOM     29  C   UNL     1       1.191  12.221  19.440  0.00  0.00    +0.000 A 
ATOM     30  C   UNL     1       1.839  12.626  18.270  0.00  0.00    +0.000 A 
ATOM     31  C   UNL     1       2.864  13.572  18.340  0.00  0.00    +0.000 A 
ENDBRANCH  22  29
ENDBRANCH   1  22
TORSDOF 4
ENDMDL
MODEL 3
REMARK VINA RESULT:      -8.1      5.370      9.759
REMARK  Name = 
REMARK  5 active torsions:
REMARK  status: ('A' for Active; 'I' for Inactive)
REMARK    1  A    between atoms: C_1  and  C_2
REMARK    2  A    between atoms: C_5  and  S_6
REMARK    3  A    between atoms: S_6  and  N_9
REMARK    4  A    between atoms: N_12  and  C_13
REMARK    5  A    between atoms: C_15  and  C_16
REMARK                            x       y       z     vdW  Elec       q    Type
REMARK                         _______ _______ _______ _____ _____    ______ ____
ROOT
ATOM      1  N   UNL     1       0.179  11.755  19.981  0.00  0.00    +0.000 NA
ATOM      2  C   UNL     1       0.052  12.440  18.677  0.00  0.00    +0.000 C 
ATOM      3  C   UNL     1      -0.345  13.883  18.996  0.00  0.00    +0.000 C 
ATOM      4  N   UNL     1       0.709  14.544  19.786  0.00  0.00    +0.000 N 
ATOM      5  C   UNL     1       1.206  13.821  20.975  0.00  0.00    +0.000 C 
ATOM      6  C   UNL     1       1.331  12.278  20.758  0.00  0.00    +0.000 C 
ENDROOT
BRANCH   4   7
ATOM      7  C   UNL     1       1.472  15.518  19.150  0.00  0.00    +0.000 A 
ATOM      8  N   UNL     1       2.810  15.348  19.243  0.00  0.00    +0.000 NA
ATOM      9  C   UNL     1       3.600  16.191  18.576  0.00  0.00    +0.000 A 
ATOM     10  N   UNL     1       3.174  17.205  17.818  0.00  0.00    +0.000 NA
ATOM     11  C   UNL     1       1.847  17.365  17.740  0.00  0.00    +0.000 A 
ATOM     12  C   UNL     1       1.373  18.398  16.944  0.00  0.00    +0.000 A 
ATOM     13  C   UNL     1       0.011  18.631  16.795  0.00  0.00    +0.000 A 
ATOM     14  C   UNL     1      -0.858  17.798  17.465  0.00  0.00    +0.000 A 
ATOM     15  N   UNL     1      -0.449  16.782  18.253  0.00  0.00    +0.000 NA
ATOM     16  C   UNL     1       0.897  16.562  18.395  0.00  0.00    +0.000 A 
BRANCH   9  17
ATOM     17  C   UNL     1       5.050  16.001  18.683  0.00  0.00    +0.000 A 
ATOM     18  C   UNL     1       5.966  16.719  19.434  0.00  0.00    +0.000 A 
ATOM     19  C   UNL     1       7.300  16.236  19.299  0.00  0.00    +0.000 A 
ATOM     20  C   UNL     1       7.372  15.163  18.443  0.00  0.00    +0.000 A 
ATOM     21  S   UNL     1       5.843  14.745  17.810  0.00  0.00    +0.000 S 
ENDBRANCH   9  17
ENDBRANCH   4   7
BRANCH   1  22
ATOM     22  S   UNL     1      -0.379  10.191  20.155  0.00  0.00    +0.000 S 
ATOM     23  O   UNL     1      -1.526  10.023  19.288  0.00  0.00    +0.000 OA
ATOM     24  O   UNL     1      -0.478   9.910  21.572  0.00  0.00    +0.000 OA
BRANCH  22  29
ATOM     25  C   UNL     1       3.851   6.516  17.824  0.00  0.00    +0.000 C 
ATOM     26  C   UNL     1       2.840   7.457  18.416  0.00  0.00    +0.000 A 
ATOM     27  C   UNL     1       2.396   7.286  19.731  0.00  0.00    +0.000 A 
ATOM     28  C   UNL     1       1.440   8.144  20.274  0.00  0.00    +0.000 A 
ATOM     29  C   UNL     1       0.930   9.188  19.498  0.00  0.00    +0.000 A 
ATOM     30  C   UNL     1       1.351   9.361  18.176  0.00  0.00    +0.000 A 
ATOM     31  C   UNL     1       2.312   8.500  17.640  0.00  0.00    +0.000 A 
ENDBRANCH  22  29
ENDBRANCH   1  22
TORSDOF 4
ENDMDL
MODEL 4
REMARK VINA RESULT:      -8.0      5.387      9.706
REMARK  Name = 
REMARK  5 active torsions:
REMARK  status: ('A' for Active; 'I' for Inactive)
REMARK    1  A    between atoms: C_1  and  C_2
REMARK    2  A    between atoms: C_5  and  S_6
REMARK    3  A    between atoms: S_6  and  N_9
REMARK    4  A    between atoms: N_12  and  C_13
REMARK    5  A    between atoms: C_15  and  C_16
REMARK                            x       y       z     vdW  Elec       q    Type
REMARK                         _______ _______ _______ _____ _____    ______ ____
ROOT
ATOM      1  N   UNL     1       0.179  11.890  20.038  0.00  0.00    +0.000 NA
ATOM      2  C   UNL     1      -0.093  12.621  18.782  0.00  0.00    +0.000 C 
ATOM      3  C   UNL     1      -0.317  14.080  19.184  0.00  0.00    +0.000 C 
ATOM      4  N   UNL     1       0.897  14.634  19.810  0.00  0.00    +0.000 N 
ATOM      5  C   UNL     1       1.513  13.840  20.894  0.00  0.00    +0.000 C 
ATOM      6  C   UNL     1       1.476  12.299  20.633  0.00  0.00    +0.000 C 
ENDROOT
BRANCH   4   7
ATOM      7  C   UNL     1       1.629  15.564  19.079  0.00  0.00    +0.000 A 
ATOM      8  N   UNL     1       2.965  15.362  19.070  0.00  0.00    +0.000 NA
ATOM      9  C   UNL     1       3.719  16.159  18.311  0.00  0.00    +0.000 A 
ATOM     10  N   UNL     1       3.256  17.157  17.552  0.00  0.00    +0.000 NA
ATOM     11  C   UNL     1       1.931  17.350  17.576  0.00  0.00    +0.000 A 
ATOM     12  C   UNL     1       1.419  18.367  16.783  0.00  0.00    +0.000 A 
ATOM     13  C   UNL     1       0.056  18.631  16.736  0.00  0.00    +0.000 A 
ATOM     14  C   UNL     1      -0.776  17.846  17.504  0.00  0.00    +0.000 A 
ATOM     15  N   UNL     1      -0.328  16.847  18.293  0.00  0.00    +0.000 NA
ATOM     16  C   UNL     1       1.019  16.596  18.335  0.00  0.00    +0.000 A 
BRANCH   9  17
ATOM     17  C   UNL     1       5.167  15.934  18.307  0.00  0.00    +0.000 A 
ATOM     18  C   UNL     1       5.875  14.846  17.823  0.00  0.00    +0.000 A 
ATOM     19  C   UNL     1       7.285  14.983  17.979  0.00  0.00    +0.000 A 
ATOM     20  C   UNL     1       7.621  16.171  18.585  0.00  0.00    +0.000 A 
ATOM     21  S   UNL     1       6.245  17.109  18.960  0.00  0.00    +0.000 S 
ENDBRANCH   9  17
ENDBRANCH   4   7
BRANCH   1  22
ATOM     22  S   UNL     1      -0.470  10.370  20.270  0.00  0.00    +0.000 S 
ATOM     23  O   UNL     1      -1.693  10.279  19.500  0.00  0.00    +0.000 OA
ATOM     24  O   UNL     1      -0.474  10.101  21.694  0.00  0.00    +0.000 OA
BRANCH  22  29
ATOM     25  C   UNL     1       3.819   6.858  17.800  0.00  0.00    +0.000 C 
ATOM     26  C   UNL     1       2.722   7.696  18.394  0.00  0.00    +0.000 A 
ATOM     27  C   UNL     1       2.187   8.774  17.679  0.00  0.00    +0.000 A 
ATOM     28  C   UNL     1       1.186   9.567  18.239  0.00  0.00    +0.000 A 
ATOM     29  C   UNL     1       0.709   9.275  19.519  0.00  0.00    +0.000 A 
ATOM     30  C   UNL     1       1.246   8.213  20.251  0.00  0.00    +0.000 A 
ATOM     31  C   UNL     1       2.246   7.419  19.683  0.00  0.00    +0.000 A 
ENDBRANCH  22  29
ENDBRANCH   1  22
TORSDOF 4
ENDMDL
MODEL 5
REMARK VINA RESULT:      -8.0      1.263      1.582
REMARK  Name = 
REMARK  5 active torsions:
REMARK  status: ('A' for Active; 'I' for Inactive)
REMARK    1  A    between atoms: C_1  and  C_2
REMARK    2  A    between atoms: C_5  and  S_6
REMARK    3  A    between atoms: S_6  and  N_9
REMARK    4  A    between atoms: N_12  and  C_13
REMARK    5  A    between atoms: C_15  and  C_16
REMARK                            x       y       z     vdW  Elec       q    Type
REMARK                         _______ _______ _______ _____ _____    ______ ____
ROOT
ATOM      1  N   UNL     1       1.405   9.380  19.491  0.00  0.00    +0.000 NA
ATOM      2  C   UNL     1       1.799   8.376  20.502  0.00  0.00    +0.000 C 
ATOM      3  C   UNL     1       1.173   7.055  20.049  0.00  0.00    +0.000 C 
ATOM      4  N   UNL     1       1.712   6.654  18.737  0.00  0.00    +0.000 N 
ATOM      5  C   UNL     1       1.704   7.676  17.670  0.00  0.00    +0.000 C 
ATOM      6  C   UNL     1       2.050   9.112  18.181  0.00  0.00    +0.000 C 
ENDROOT
BRANCH   4   7
ATOM      7  C   UNL     1       2.585   5.571  18.706  0.00  0.00    +0.000 A 
ATOM      8  N   UNL     1       3.504   5.605  17.715  0.00  0.00    +0.000 NA
ATOM      9  C   UNL     1       4.432   4.648  17.684  0.00  0.00    +0.000 A 
ATOM     10  N   UNL     1       4.527   3.642  18.558  0.00  0.00    +0.000 NA
ATOM     11  C   UNL     1       3.605   3.617  19.529  0.00  0.00    +0.000 A 
ATOM     12  C   UNL     1       3.689   2.595  20.464  0.00  0.00    +0.000 A 
ATOM     13  C   UNL     1       2.783   2.498  21.513  0.00  0.00    +0.000 A 
ATOM     14  C   UNL     1       1.795   3.454  21.597  0.00  0.00    +0.000 A 
ATOM     15  N   UNL     1       1.669   4.465  20.713  0.00  0.00    +0.000 NA
ATOM     16  C   UNL     1       2.565   4.551  19.680  0.00  0.00    +0.000 A 
BRANCH   9  17
ATOM     17  C   UNL     1       5.426   4.691  16.606  0.00  0.00    +0.000 A 
ATOM     18  C   UNL     1       5.232   4.547  15.242  0.00  0.00    +0.000 A 
ATOM     19  C   UNL     1       6.439   4.662  14.492  0.00  0.00    +0.000 A 
ATOM     20  C   UNL     1       7.527   4.885  15.303  0.00  0.00    +0.000 A 
ATOM     21  S   UNL     1       7.092   4.955  16.952  0.00  0.00    +0.000 S 
ENDBRANCH   9  17
ENDBRANCH   4   7
BRANCH   1  22
ATOM     22  S   UNL     1       0.972  10.919  19.975  0.00  0.00    +0.000 S 
ATOM     23  O   UNL     1       1.749  11.868  19.207  0.00  0.00    +0.000 OA
ATOM     24  O   UNL     1       0.990  10.951  21.423  0.00  0.00    +0.000 OA
BRANCH  22  29
ATOM     25  C   UNL     1      -4.705  11.732  17.987  0.00  0.00    +0.000 C 
ATOM     26  C   UNL     1      -3.316  11.495  18.511  0.00  0.00    +0.000 A 
ATOM     27  C   UNL     1      -2.814  12.267  19.564  0.00  0.00    +0.000 A 
ATOM     28  C   UNL     1      -1.517  12.065  20.035  0.00  0.00    +0.000 A 
ATOM     29  C   UNL     1      -0.718  11.077  19.455  0.00  0.00    +0.000 A 
ATOM     30  C   UNL     1      -1.200  10.310  18.390  0.00  0.00    +0.000 A 
ATOM     31  C   UNL     1      -2.501  10.514  17.925  0.00  0.00    +0.000 A 
ENDBRANCH  22  29
ENDBRANCH   1  22
TORSDOF 4
ENDMDL
MODEL 6
REMARK VINA RESULT:      -8.0      2.330      3.303
REMARK  Name = 
REMARK  5 active torsions:
REMARK  status: ('A' for Active; 'I' for Inactive)
REMARK    1  A    between atoms: C_1  and  C_2
REMARK    2  A    between atoms: C_5  and  S_6
REMARK    3  A    between atoms: S_6  and  N_9
REMARK    4  A    between atoms: N_12  and  C_13
REMARK    5  A    between atoms: C_15  and  C_16
REMARK                            x       y       z     vdW  Elec       q    Type
REMARK                         _______ _______ _______ _____ _____    ______ ____
ROOT
ATOM      1  N   UNL     1       0.999   9.395  19.225  0.00  0.00    +0.000 NA
ATOM      2  C   UNL     1       1.346   8.949  17.859  0.00  0.00    +0.000 C 
ATOM      3  C   UNL     1       2.782   8.427  17.939  0.00  0.00    +0.000 C 
ATOM      4  N   UNL     1       2.862   7.276  18.856  0.00  0.00    +0.000 N 
ATOM      5  C   UNL     1       2.247   7.439  20.190  0.00  0.00    +0.000 C 
ATOM      6  C   UNL     1       0.909   8.248  20.164  0.00  0.00    +0.000 C 
ENDROOT
BRANCH   4   7
ATOM      7  C   UNL     1       3.063   6.019  18.292  0.00  0.00    +0.000 A 
ATOM      8  N   UNL     1       4.035   5.962  17.354  0.00  0.00    +0.000 NA
ATOM      9  C   UNL     1       4.347   4.771  16.842  0.00  0.00    +0.000 A 
ATOM     10  N   UNL     1       3.767   3.615  17.180  0.00  0.00    +0.000 NA
ATOM     11  C   UNL     1       2.802   3.689  18.105  0.00  0.00    +0.000 A 
ATOM     12  C   UNL     1       2.195   2.502  18.491  0.00  0.00    +0.000 A 
ATOM     13  C   UNL     1       1.192   2.481  19.452  0.00  0.00    +0.000 A 
ATOM     14  C   UNL     1       0.820   3.682  20.015  0.00  0.00    +0.000 A 
ATOM     15  N   UNL     1       1.377   4.863  19.673  0.00  0.00    +0.000 NA
ATOM     16  C   UNL     1       2.363   4.873  18.722  0.00  0.00    +0.000 A 
BRANCH   9  17
ATOM     17  C   UNL     1       5.401   4.716  15.825  0.00  0.00    +0.000 A 
ATOM     18  C   UNL     1       6.711   5.158  15.909  0.00  0.00    +0.000 A 
ATOM     19  C   UNL     1       7.457   4.925  14.717  0.00  0.00    +0.000 A 
ATOM     20  C   UNL     1       6.695   4.316  13.747  0.00  0.00    +0.000 A 
ATOM     21  S   UNL     1       5.098   4.029  14.274  0.00  0.00    +0.000 S 
ENDBRANCH   9  17
ENDBRANCH   4   7
BRANCH   1  22
ATOM     22  S   UNL     1       0.117  10.796  19.441  0.00  0.00    +0.000 S 
ATOM     23  O   UNL     1      -0.520  10.732  20.740  0.00  0.00    +0.000 OA
ATOM     24  O   UNL     1      -0.668  11.016  18.244  0.00  0.00    +0.000 OA
BRANCH  22  29
ATOM     25  C   UNL     1       4.074  15.395  19.584  0.00  0.00    +0.000 C 
ATOM     26  C   UNL     1       3.131  14.225  19.563  0.00  0.00    +0.000 A 
ATOM     27  C   UNL     1       2.913  13.512  18.379  0.00  0.00    +0.000 A 
ATOM     28  C   UNL     1       2.021  12.441  18.353  0.00  0.00    +0.000 A 
ATOM     29  C   UNL     1       1.347  12.074  19.520  0.00  0.00    +0.000 A 
ATOM     30  C   UNL     1       1.541  12.789  20.705  0.00  0.00    +0.000 A 
ATOM     31  C   UNL     1       2.440  13.859  20.727  0.00  0.00    +0.000 A 
ENDBRANCH  22  29
ENDBRANCH   1  22
TORSDOF 4
ENDMDL
MODEL 7
REMARK VINA RESULT:      -7.8      5.380      9.079
REMARK  Name = 
REMARK  5 active torsions:
REMARK  status: ('A' for Active; 'I' for Inactive)
REMARK    1  A    between atoms: C_1  and  C_2
REMARK    2  A    between atoms: C_5  and  S_6
REMARK    3  A    between atoms: S_6  and  N_9
REMARK    4  A    between atoms: N_12  and  C_13
REMARK    5  A    between atoms: C_15  and  C_16
REMARK                            x       y       z     vdW  Elec       q    Type
REMARK                         _______ _______ _______ _____ _____    ______ ____
ROOT
ATOM      1  N   UNL     1       4.011  15.485  19.923  0.00  0.00    +0.000 NA
ATOM      2  C   UNL     1       3.990  14.478  21.006  0.00  0.00    +0.000 C 
ATOM      3  C   UNL     1       2.627  14.620  21.687  0.00  0.00    +0.000 C 
ATOM      4  N   UNL     1       1.542  14.326  20.734  0.00  0.00    +0.000 N 
ATOM      5  C   UNL     1       1.593  15.015  19.427  0.00  0.00    +0.000 C 
ATOM      6  C   UNL     1       3.041  15.149  18.851  0.00  0.00    +0.000 C 
ENDROOT
BRANCH   4   7
ATOM      7  C   UNL     1       0.843  13.135  20.905  0.00  0.00    +0.000 A 
ATOM      8  N   UNL     1       1.316  12.086  20.196  0.00  0.00    +0.000 NA
ATOM      9  C   UNL     1       0.754  10.892  20.385  0.00  0.00    +0.000 A 
ATOM     10  N   UNL     1      -0.255  10.644  21.226  0.00  0.00    +0.000 NA
ATOM     11  C   UNL     1      -0.717  11.693  21.917  0.00  0.00    +0.000 A 
ATOM     12  C   UNL     1      -1.752  11.463  22.813  0.00  0.00    +0.000 A 
ATOM     13  C   UNL     1      -2.286  12.490  23.581  0.00  0.00    +0.000 A 
ATOM     14  C   UNL     1      -1.752  13.750  23.426  0.00  0.00    +0.000 A 
ATOM     15  N   UNL     1      -0.748  14.027  22.567  0.00  0.00    +0.000 NA
ATOM     16  C   UNL     1      -0.230  13.008  21.812  0.00  0.00    +0.000 A 
BRANCH   9  17
ATOM     17  C   UNL     1       1.271   9.759  19.611  0.00  0.00    +0.000 A 
ATOM     18  C   UNL     1       1.549   9.690  18.256  0.00  0.00    +0.000 A 
ATOM     19  C   UNL     1       2.057   8.420  17.855  0.00  0.00    +0.000 A 
ATOM     20  C   UNL     1       2.148   7.547  18.913  0.00  0.00    +0.000 A 
ATOM     21  S   UNL     1       1.627   8.257  20.375  0.00  0.00    +0.000 S 
ENDBRANCH   9  17
ENDBRANCH   4   7
BRANCH   1  22
ATOM     22  S   UNL     1       5.406  16.352  19.625  0.00  0.00    +0.000 S 
ATOM     23  O   UNL     1       5.862  16.918  20.878  0.00  0.00    +0.000 OA
ATOM     24  O   UNL     1       5.164  17.202  18.477  0.00  0.00    +0.000 OA
BRANCH  22  29
ATOM     25  C   UNL     1       9.626  12.394  17.791  0.00  0.00    +0.000 C 
ATOM     26  C   UNL     1       8.556  13.337  18.266  0.00  0.00    +0.000 A 
ATOM     27  C   UNL     1       7.473  13.656  17.439  0.00  0.00    +0.000 A 
ATOM     28  C   UNL     1       6.492  14.549  17.870  0.00  0.00    +0.000 A 
ATOM     29  C   UNL     1       6.589  15.120  19.141  0.00  0.00    +0.000 A 
ATOM     30  C   UNL     1       7.674  14.824  19.971  0.00  0.00    +0.000 A 
ATOM     31  C   UNL     1       8.651  13.926  19.536  0.00  0.00    +0.000 A 
ENDBRANCH  22  29
ENDBRANCH   1  22
TORSDOF 4
ENDMDL
MODEL 8
REMARK VINA RESULT:      -7.8      2.880      8.534
REMARK  Name = 
REMARK  5 active torsions:
REMARK  status: ('A' for Active; 'I' for Inactive)
REMARK    1  A    between atoms: C_1  and  C_2
REMARK    2  A    between atoms: C_5  and  S_6
REMARK    3  A    between atoms: S_6  and  N_9
REMARK    4  A    between atoms: N_12  and  C_13
REMARK    5  A    between atoms: C_15  and  C_16
REMARK                            x       y       z     vdW  Elec       q    Type
REMARK                         _______ _______ _______ _____ _____    ______ ____
ROOT
ATOM      1  N   UNL     1       2.430   6.679  19.086  0.00  0.00    +0.000 NA
ATOM      2  C   UNL     1       1.377   6.989  20.076  0.00  0.00    +0.000 C 
ATOM      3  C   UNL     1       1.563   8.464  20.440  0.00  0.00    +0.000 C 
ATOM      4  N   UNL     1       1.373   9.315  19.253  0.00  0.00    +0.000 N 
ATOM      5  C   UNL     1       2.117   8.939  18.033  0.00  0.00    +0.000 C 
ATOM      6  C   UNL     1       2.198   7.394  17.806  0.00  0.00    +0.000 C 
ENDROOT
BRANCH   4   7
ATOM      7  C   UNL     1       0.216  10.086  19.194  0.00  0.00    +0.000 A 
ATOM      8  N   UNL     1      -0.496   9.964  18.052  0.00  0.00    +0.000 NA
ATOM      9  C   UNL     1      -1.665  10.600  17.966  0.00  0.00    +0.000 A 
ATOM     10  N   UNL     1      -2.196  11.362  18.927  0.00  0.00    +0.000 NA
ATOM     11  C   UNL     1      -1.476  11.479  20.051  0.00  0.00    +0.000 A 
ATOM     12  C   UNL     1      -2.011  12.247  21.075  0.00  0.00    +0.000 A 
ATOM     13  C   UNL     1      -1.340  12.414  22.280  0.00  0.00    +0.000 A 
ATOM     14  C   UNL     1      -0.122  11.787  22.428  0.00  0.00    +0.000 A 
ATOM     15  N   UNL     1       0.442  11.032  21.462  0.00  0.00    +0.000 NA
ATOM     16  C   UNL     1      -0.227  10.876  20.276  0.00  0.00    +0.000 A 
BRANCH   9  17
ATOM     17  C   UNL     1      -2.431  10.464  16.724  0.00  0.00    +0.000 A 
ATOM     18  C   UNL     1      -2.140   9.701  15.605  0.00  0.00    +0.000 A 
ATOM     19  C   UNL     1      -3.130   9.807  14.585  0.00  0.00    +0.000 A 
ATOM     20  C   UNL     1      -4.151  10.654  14.946  0.00  0.00    +0.000 A 
ATOM     21  S   UNL     1      -3.914  11.312  16.503  0.00  0.00    +0.000 S 
ENDBRANCH   9  17
ENDBRANCH   4   7
BRANCH   1  22
ATOM     22  S   UNL     1       3.232   5.217  19.159  0.00  0.00    +0.000 S 
ATOM     23  O   UNL     1       2.257   4.159  18.998  0.00  0.00    +0.000 OA
ATOM     24  O   UNL     1       4.105   5.246  20.314  0.00  0.00    +0.000 OA
BRANCH  22  29
ATOM     25  C   UNL     1       6.989   5.025  14.396  0.00  0.00    +0.000 C 
ATOM     26  C   UNL     1       6.027   5.100  15.548  0.00  0.00    +0.000 A 
ATOM     27  C   UNL     1       6.159   6.101  16.517  0.00  0.00    +0.000 A 
ATOM     28  C   UNL     1       5.282   6.157  17.600  0.00  0.00    +0.000 A 
ATOM     29  C   UNL     1       4.259   5.212  17.710  0.00  0.00    +0.000 A 
ATOM     30  C   UNL     1       4.126   4.197  16.759  0.00  0.00    +0.000 A 
ATOM     31  C   UNL     1       5.005   4.148  15.674  0.00  0.00    +0.000 A 
ENDBRANCH  22  29
ENDBRANCH   1  22
TORSDOF 4
ENDMDL
MODEL 9
REMARK VINA RESULT:      -7.7      3.026      8.917
REMARK  Name = 
REMARK  5 active torsions:
REMARK  status: ('A' for Active; 'I' for Inactive)
REMARK    1  A    between atoms: C_1  and  C_2
REMARK    2  A    between atoms: C_5  and  S_6
REMARK    3  A    between atoms: S_6  and  N_9
REMARK    4  A    between atoms: N_12  and  C_13
REMARK    5  A    between atoms: C_15  and  C_16
REMARK                            x       y       z     vdW  Elec       q    Type
REMARK                         _______ _______ _______ _____ _____    ______ ____
ROOT
ATOM      1  N   UNL     1       1.902   6.806  19.577  0.00  0.00    +0.000 NA
ATOM      2  C   UNL     1       0.926   7.498  20.446  0.00  0.00    +0.000 C 
ATOM      3  C   UNL     1       1.518   8.881  20.725  0.00  0.00    +0.000 C 
ATOM      4  N   UNL     1       1.667   9.640  19.471  0.00  0.00    +0.000 N 
ATOM      5  C   UNL     1       2.344   8.954  18.350  0.00  0.00    +0.000 C 
ATOM      6  C   UNL     1       1.978   7.439  18.236  0.00  0.00    +0.000 C 
ENDROOT
BRANCH   4   7
ATOM      7  C   UNL     1       0.797  10.705  19.257  0.00  0.00    +0.000 A 
ATOM      8  N   UNL     1      -0.261  10.430  18.462  0.00  0.00    +0.000 NA
ATOM      9  C   UNL     1      -1.185  11.376  18.293  0.00  0.00    +0.000 A 
ATOM     10  N   UNL     1      -1.150  12.591  18.847  0.00  0.00    +0.000 NA
ATOM     11  C   UNL     1      -0.092  12.852  19.627  0.00  0.00    +0.000 A 
ATOM     12  C   UNL     1      -0.037  14.099  20.232  0.00  0.00    +0.000 A 
ATOM     13  C   UNL     1       1.016  14.452  21.067  0.00  0.00    +0.000 A 
ATOM     14  C   UNL     1       2.008  13.520  21.277  0.00  0.00    +0.000 A 
ATOM     15  N   UNL     1       2.002  12.295  20.710  0.00  0.00    +0.000 NA
ATOM     16  C   UNL     1       0.960  11.957  19.886  0.00  0.00    +0.000 A 
BRANCH   9  17
ATOM     17  C   UNL     1      -2.329  11.070  17.429  0.00  0.00    +0.000 A 
ATOM     18  C   UNL     1      -2.346  10.400  16.216  0.00  0.00    +0.000 A 
ATOM     19  C   UNL     1      -3.654  10.276  15.665  0.00  0.00    +0.000 A 
ATOM     20  C   UNL     1      -4.606  10.861  16.466  0.00  0.00    +0.000 A 
ATOM     21  S   UNL     1      -3.923  11.550  17.871  0.00  0.00    +0.000 S 
ENDBRANCH   9  17
ENDBRANCH   4   7
BRANCH   1  22
ATOM     22  S   UNL     1       2.228   5.187  19.819  0.00  0.00    +0.000 S 
ATOM     23  O   UNL     1       1.177   4.416  19.189  0.00  0.00    +0.000 OA
ATOM     24  O   UNL     1       2.539   5.002  21.222  0.00  0.00    +0.000 OA
BRANCH  22  29
ATOM     25  C   UNL     1       7.244   4.504  16.471  0.00  0.00    +0.000 C 
ATOM     26  C   UNL     1       6.012   4.630  17.323  0.00  0.00    +0.000 A 
ATOM     27  C   UNL     1       4.781   4.147  16.866  0.00  0.00    +0.000 A 
ATOM     28  C   UNL     1       3.633   4.284  17.645  0.00  0.00    +0.000 A 
ATOM     29  C   UNL     1       3.718   4.901  18.896  0.00  0.00    +0.000 A 
ATOM     30  C   UNL     1       4.937   5.404  19.358  0.00  0.00    +0.000 A 
ATOM     31  C   UNL     1       6.085   5.259  18.574  0.00  0.00    +0.000 A 
ENDBRANCH  22  29
ENDBRANCH   1  22
TORSDOF 4
ENDMDL
