MODEL 1
REMARK VINA RESULT:      -8.6      0.000      0.000
REMARK  Name = 
REMARK  7 active torsions:
REMARK  status: ('A' for Active; 'I' for Inactive)
REMARK    1  A    between atoms: C_1  and  C_2
REMARK    2  A    between atoms: C_2  and  C_3
REMARK    3  A    between atoms: C_3  and  C_4
REMARK    4  A    between atoms: C_9  and  O_10
REMARK    5  A    between atoms: O_10  and  C_11
REMARK    6  A    between atoms: C_14  and  N_15
REMARK    7  A    between atoms: C_23  and  C_24
REMARK                            x       y       z     vdW  Elec       q    Type
REMARK                         _______ _______ _______ _____ _____    ______ ____
ROOT
ATOM      1  C   UNL     1       3.632   5.517  18.962  0.00  0.00    +0.000 A 
ATOM      2  C   UNL     1       2.808   5.345  20.075  0.00  0.00    +0.000 A 
ATOM      3  C   UNL     1       1.959   6.400  20.505  0.00  0.00    +0.000 A 
ATOM      4  C   UNL     1       1.936   7.628  19.828  0.00  0.00    +0.000 A 
ATOM      5  C   UNL     1       2.785   7.676  18.715  0.00  0.00    +0.000 A 
ATOM      6  N   UNL     1       3.642   6.681  18.264  0.00  0.00    +0.000 NA
ENDROOT
BRANCH   4   7
ATOM      7  N   UNL     1       1.094   8.750  20.144  0.00  0.00    +0.000 N 
ATOM      8  C   UNL     1       1.066   9.472  21.338  0.00  0.00    +0.000 C 
ATOM      9  O   UNL     1       1.904   9.330  22.229  0.00  0.00    +0.000 OA
ATOM     10  N   UNL     1      -0.161  10.174  21.563  0.00  0.00    +0.000 N 
ATOM     11  C   UNL     1      -0.647  10.006  22.978  0.00  0.00    +0.000 C 
ATOM     12  C   UNL     1      -1.663  11.102  23.232  0.00  0.00    +0.000 C 
ATOM     13  C   UNL     1      -0.944  12.167  22.485  0.00  0.00    +0.000 A 
ATOM     14  C   UNL     1      -0.843  13.505  22.822  0.00  0.00    +0.000 A 
ATOM     15  C   UNL     1      -0.230  14.362  21.912  0.00  0.00    +0.000 A 
ATOM     16  C   UNL     1       0.165  15.733  22.393  0.00  0.00    +0.000 C 
ATOM     17  C   UNL     1       0.034  13.861  20.620  0.00  0.00    +0.000 A 
ATOM     18 CL   UNL     1       0.231  14.959  19.297  0.00  0.00    +0.000 Cl
ATOM     19  C   UNL     1       0.071  12.467  20.358  0.00  0.00    +0.000 A 
ATOM     20  C   UNL     1      -0.288  11.609  21.377  0.00  0.00    +0.000 A 
ATOM     21  H   UNL     1       0.514   9.132  19.411  0.00  0.00    +0.000 HD
ENDBRANCH   4   7
BRANCH   1  22
ATOM     22  O   UNL     1       4.549   4.497  18.659  0.00  0.00    +0.000 OA
BRANCH  22  28
ATOM     23  C   UNL     1       6.644   4.890  17.499  0.00  0.00    +0.000 A 
ATOM     24  N   UNL     1       7.428   4.885  16.375  0.00  0.00    +0.000 NA
ATOM     25  C   UNL     1       6.867   4.498  15.216  0.00  0.00    +0.000 A 
ATOM     26  C   UNL     1       5.545   4.081  15.107  0.00  0.00    +0.000 A 
ATOM     27  C   UNL     1       4.769   4.082  16.256  0.00  0.00    +0.000 A 
ATOM     28  C   UNL     1       5.283   4.525  17.482  0.00  0.00    +0.000 A 
BRANCH  23  29
ATOM     29  C   UNL     1       7.384   5.352  18.733  0.00  0.00    +0.000 C 
BRANCH  29  31
ATOM     30  C   UNL     1       7.293   7.611  17.621  0.00  0.00    +0.000 C 
ATOM     31  C   UNL     1       8.056   6.719  18.596  0.00  0.00    +0.000 C 
ENDBRANCH  29  31
ENDBRANCH  23  29
ENDBRANCH  22  28
ENDBRANCH   1  22
TORSDOF 5
ENDMDL
MODEL 2
REMARK VINA RESULT:      -8.4      5.027      7.729
REMARK  Name = 
REMARK  7 active torsions:
REMARK  status: ('A' for Active; 'I' for Inactive)
REMARK    1  A    between atoms: C_1  and  C_2
REMARK    2  A    between atoms: C_2  and  C_3
REMARK    3  A    between atoms: C_3  and  C_4
REMARK    4  A    between atoms: C_9  and  O_10
REMARK    5  A    between atoms: O_10  and  C_11
REMARK    6  A    between atoms: C_14  and  N_15
REMARK    7  A    between atoms: C_23  and  C_24
REMARK                            x       y       z     vdW  Elec       q    Type
REMARK                         _______ _______ _______ _____ _____    ______ ____
ROOT
ATOM      1  C   UNL     1       6.373   4.890  17.400  0.00  0.00    +0.000 A 
ATOM      2  C   UNL     1       6.727   5.928  16.537  0.00  0.00    +0.000 A 
ATOM      3  C   UNL     1       7.449   7.050  17.028  0.00  0.00    +0.000 A 
ATOM      4  C   UNL     1       7.812   7.138  18.379  0.00  0.00    +0.000 A 
ATOM      5  C   UNL     1       7.424   6.029  19.143  0.00  0.00    +0.000 A 
ATOM      6  N   UNL     1       6.707   4.919  18.715  0.00  0.00    +0.000 NA
ENDROOT
BRANCH   4   7
ATOM      7  N   UNL     1       8.573   8.199  18.981  0.00  0.00    +0.000 N 
ATOM      8  C   UNL     1       8.646   9.527  18.559  0.00  0.00    +0.000 C 
ATOM      9  O   UNL     1       7.912   9.997  17.690  0.00  0.00    +0.000 OA
ATOM     10  N   UNL     1       9.819  10.214  19.007  0.00  0.00    +0.000 N 
ATOM     11  C   UNL     1      10.449  11.019  17.902  0.00  0.00    +0.000 C 
ATOM     12  C   UNL     1      11.379  12.022  18.556  0.00  0.00    +0.000 C 
ATOM     13  C   UNL     1      10.498  12.330  19.713  0.00  0.00    +0.000 A 
ATOM     14  C   UNL     1      10.307  13.560  20.316  0.00  0.00    +0.000 A 
ATOM     15  C   UNL     1       9.535  13.606  21.474  0.00  0.00    +0.000 A 
ATOM     16  C   UNL     1       9.062  14.953  21.952  0.00  0.00    +0.000 C 
ATOM     17  C   UNL     1       9.198  12.378  22.082  0.00  0.00    +0.000 A 
ATOM     18 CL   UNL     1       8.777  12.339  23.760  0.00  0.00    +0.000 Cl
ATOM     19  C   UNL     1       9.265  11.154  21.368  0.00  0.00    +0.000 A 
ATOM     20  C   UNL     1       9.796  11.177  20.095  0.00  0.00    +0.000 A 
ATOM     21  H   UNL     1       9.044   8.011  19.855  0.00  0.00    +0.000 HD
ENDBRANCH   4   7
BRANCH   1  22
ATOM     22  O   UNL     1       5.546   3.872  16.898  0.00  0.00    +0.000 OA
BRANCH  22  28
ATOM     23  C   UNL     1       3.398   4.559  17.795  0.00  0.00    +0.000 A 
ATOM     24  N   UNL     1       2.179   4.293  18.361  0.00  0.00    +0.000 NA
ATOM     25  C   UNL     1       1.881   3.014  18.647  0.00  0.00    +0.000 A 
ATOM     26  C   UNL     1       2.735   1.950  18.376  0.00  0.00    +0.000 A 
ATOM     27  C   UNL     1       3.960   2.236  17.793  0.00  0.00    +0.000 A 
ATOM     28  C   UNL     1       4.347   3.554  17.520  0.00  0.00    +0.000 A 
BRANCH  23  29
ATOM     29  C   UNL     1       3.618   6.030  17.529  0.00  0.00    +0.000 C 
BRANCH  29  31
ATOM     30  C   UNL     1       2.519   8.288  17.738  0.00  0.00    +0.000 C 
ATOM     31  C   UNL     1       2.819   6.966  18.439  0.00  0.00    +0.000 C 
ENDBRANCH  29  31
ENDBRANCH  23  29
ENDBRANCH  22  28
ENDBRANCH   1  22
TORSDOF 5
ENDMDL
MODEL 3
REMARK VINA RESULT:      -8.4      0.712      1.029
REMARK  Name = 
REMARK  7 active torsions:
REMARK  status: ('A' for Active; 'I' for Inactive)
REMARK    1  A    between atoms: C_1  and  C_2
REMARK    2  A    between atoms: C_2  and  C_3
REMARK    3  A    between atoms: C_3  and  C_4
REMARK    4  A    between atoms: C_9  and  O_10
REMARK    5  A    between atoms: O_10  and  C_11
REMARK    6  A    between atoms: C_14  and  N_15
REMARK    7  A    between atoms: C_23  and  C_24
REMARK                            x       y       z     vdW  Elec       q    Type
REMARK                         _______ _______ _______ _____ _____    ______ ____
ROOT
ATOM      1  C   UNL     1       3.910   5.535  18.650  0.00  0.00    +0.000 A 
ATOM      2  C   UNL     1       3.802   6.655  17.825  0.00  0.00    +0.000 A 
ATOM      3  C   UNL     1       2.901   7.702  18.156  0.00  0.00    +0.000 A 
ATOM      4  C   UNL     1       2.103   7.629  19.307  0.00  0.00    +0.000 A 
ATOM      5  C   UNL     1       2.314   6.472  20.069  0.00  0.00    +0.000 A 
ATOM      6  N   UNL     1       3.170   5.417  19.782  0.00  0.00    +0.000 NA
ENDROOT
BRANCH   4   7
ATOM      7  N   UNL     1       1.187   8.638  19.764  0.00  0.00    +0.000 N 
ATOM      8  C   UNL     1       1.217   9.312  20.986  0.00  0.00    +0.000 C 
ATOM      9  O   UNL     1       2.160   9.235  21.772  0.00  0.00    +0.000 OA
ATOM     10  N   UNL     1      -0.046   9.865  21.374  0.00  0.00    +0.000 N 
ATOM     11  C   UNL     1      -0.348   9.596  22.824  0.00  0.00    +0.000 C 
ATOM     12  C   UNL     1      -1.440  10.562  23.237  0.00  0.00    +0.000 C 
ATOM     13  C   UNL     1      -0.929  11.725  22.466  0.00  0.00    +0.000 A 
ATOM     14  C   UNL     1      -0.935  13.054  22.851  0.00  0.00    +0.000 A 
ATOM     15  C   UNL     1      -0.524  14.004  21.920  0.00  0.00    +0.000 A 
ATOM     16  C   UNL     1      -0.226  15.394  22.418  0.00  0.00    +0.000 C 
ATOM     17  C   UNL     1      -0.355  13.580  20.586  0.00  0.00    +0.000 A 
ATOM     18 CL   UNL     1      -0.427  14.738  19.301  0.00  0.00    +0.000 Cl
ATOM     19  C   UNL     1      -0.198  12.208  20.258  0.00  0.00    +0.000 A 
ATOM     20  C   UNL     1      -0.346  11.282  21.269  0.00  0.00    +0.000 A 
ATOM     21  H   UNL     1       0.491   8.978  19.116  0.00  0.00    +0.000 HD
ENDBRANCH   4   7
BRANCH   1  22
ATOM     22  O   UNL     1       4.714   4.470  18.211  0.00  0.00    +0.000 OA
BRANCH  22  28
ATOM     23  C   UNL     1       6.794   4.654  16.974  0.00  0.00    +0.000 A 
ATOM     24  N   UNL     1       7.514   4.675  15.809  0.00  0.00    +0.000 NA
ATOM     25  C   UNL     1       6.843   4.562  14.649  0.00  0.00    +0.000 A 
ATOM     26  C   UNL     1       5.464   4.402  14.577  0.00  0.00    +0.000 A 
ATOM     27  C   UNL     1       4.751   4.372  15.765  0.00  0.00    +0.000 A 
ATOM     28  C   UNL     1       5.390   4.538  17.001  0.00  0.00    +0.000 A 
BRANCH  23  29
ATOM     29  C   UNL     1       7.658   4.797  18.206  0.00  0.00    +0.000 C 
BRANCH  29  31
ATOM     30  C   UNL     1       7.884   7.306  18.167  0.00  0.00    +0.000 C 
ATOM     31  C   UNL     1       7.443   6.096  18.985  0.00  0.00    +0.000 C 
ENDBRANCH  29  31
ENDBRANCH  23  29
ENDBRANCH  22  28
ENDBRANCH   1  22
TORSDOF 5
ENDMDL
MODEL 4
REMARK VINA RESULT:      -8.4      1.662      2.562
REMARK  Name = 
REMARK  7 active torsions:
REMARK  status: ('A' for Active; 'I' for Inactive)
REMARK    1  A    between atoms: C_1  and  C_2
REMARK    2  A    between atoms: C_2  and  C_3
REMARK    3  A    between atoms: C_3  and  C_4
REMARK    4  A    between atoms: C_9  and  O_10
REMARK    5  A    between atoms: O_10  and  C_11
REMARK    6  A    between atoms: C_14  and  N_15
REMARK    7  A    between atoms: C_23  and  C_24
REMARK                            x       y       z     vdW  Elec       q    Type
REMARK                         _______ _______ _______ _____ _____    ______ ____
ROOT
ATOM      1  C   UNL     1       2.989   7.233  17.977  0.00  0.00    +0.000 A 
ATOM      2  C   UNL     1       2.473   6.965  19.245  0.00  0.00    +0.000 A 
ATOM      3  C   UNL     1       1.698   7.945  19.922  0.00  0.00    +0.000 A 
ATOM      4  C   UNL     1       1.444   9.193  19.336  0.00  0.00    +0.000 A 
ATOM      5  C   UNL     1       1.992   9.339  18.055  0.00  0.00    +0.000 A 
ATOM      6  N   UNL     1       2.765   8.420  17.359  0.00  0.00    +0.000 NA
ENDROOT
BRANCH   4   7
ATOM      7  N   UNL     1       0.645  10.245  19.905  0.00  0.00    +0.000 N 
ATOM      8  C   UNL     1       0.605  10.644  21.242  0.00  0.00    +0.000 C 
ATOM      9  O   UNL     1       1.400  10.236  22.089  0.00  0.00    +0.000 OA
ATOM     10  N   UNL     1      -0.595  11.335  21.606  0.00  0.00    +0.000 N 
ATOM     11  C   UNL     1      -1.144  10.844  22.918  0.00  0.00    +0.000 C 
ATOM     12  C   UNL     1      -2.115  11.896  23.416  0.00  0.00    +0.000 C 
ATOM     13  C   UNL     1      -1.317  13.072  22.982  0.00  0.00    +0.000 A 
ATOM     14  C   UNL     1      -1.165  14.275  23.650  0.00  0.00    +0.000 A 
ATOM     15  C   UNL     1      -0.476  15.297  23.003  0.00  0.00    +0.000 A 
ATOM     16  C   UNL     1      -0.034  16.479  23.826  0.00  0.00    +0.000 C 
ATOM     17  C   UNL     1      -0.186  15.123  21.633  0.00  0.00    +0.000 A 
ATOM     18 CL   UNL     1       0.116  16.507  20.638  0.00  0.00    +0.000 Cl
ATOM     19  C   UNL     1      -0.205  13.840  21.028  0.00  0.00    +0.000 A 
ATOM     20  C   UNL     1      -0.646  12.775  21.786  0.00  0.00    +0.000 A 
ATOM     21  H   UNL     1       0.113  10.832  19.278  0.00  0.00    +0.000 HD
ENDBRANCH   4   7
BRANCH   1  22
ATOM     22  O   UNL     1       3.858   6.287  17.408  0.00  0.00    +0.000 OA
BRANCH  22  28
ATOM     23  C   UNL     1       5.460   5.012  18.711  0.00  0.00    +0.000 A 
ATOM     24  N   UNL     1       6.726   4.770  19.177  0.00  0.00    +0.000 NA
ATOM     25  C   UNL     1       7.704   5.621  18.820  0.00  0.00    +0.000 A 
ATOM     26  C   UNL     1       7.499   6.716  17.986  0.00  0.00    +0.000 A 
ATOM     27  C   UNL     1       6.215   6.940  17.515  0.00  0.00    +0.000 A 
ATOM     28  C   UNL     1       5.145   6.117  17.895  0.00  0.00    +0.000 A 
BRANCH  23  29
ATOM     29  C   UNL     1       4.451   3.993  19.187  0.00  0.00    +0.000 C 
BRANCH  29  31
ATOM     30  C   UNL     1       2.525   3.235  17.750  0.00  0.00    +0.000 C 
ATOM     31  C   UNL     1       3.990   3.006  18.113  0.00  0.00    +0.000 C 
ENDBRANCH  29  31
ENDBRANCH  23  29
ENDBRANCH  22  28
ENDBRANCH   1  22
TORSDOF 5
ENDMDL
MODEL 5
REMARK VINA RESULT:      -8.4      1.678      2.132
REMARK  Name = 
REMARK  7 active torsions:
REMARK  status: ('A' for Active; 'I' for Inactive)
REMARK    1  A    between atoms: C_1  and  C_2
REMARK    2  A    between atoms: C_2  and  C_3
REMARK    3  A    between atoms: C_3  and  C_4
REMARK    4  A    between atoms: C_9  and  O_10
REMARK    5  A    between atoms: O_10  and  C_11
REMARK    6  A    between atoms: C_14  and  N_15
REMARK    7  A    between atoms: C_23  and  C_24
REMARK                            x       y       z     vdW  Elec       q    Type
REMARK                         _______ _______ _______ _____ _____    ______ ____
ROOT
ATOM      1  C   UNL     1       2.944   7.147  18.067  0.00  0.00    +0.000 A 
ATOM      2  C   UNL     1       2.511   6.935  19.377  0.00  0.00    +0.000 A 
ATOM      3  C   UNL     1       1.741   7.927  20.044  0.00  0.00    +0.000 A 
ATOM      4  C   UNL     1       1.410   9.131  19.406  0.00  0.00    +0.000 A 
ATOM      5  C   UNL     1       1.878   9.221  18.089  0.00  0.00    +0.000 A 
ATOM      6  N   UNL     1       2.643   8.290  17.400  0.00  0.00    +0.000 NA
ENDROOT
BRANCH   4   7
ATOM      7  N   UNL     1       0.608  10.186  19.962  0.00  0.00    +0.000 N 
ATOM      8  C   UNL     1       0.549  10.585  21.299  0.00  0.00    +0.000 C 
ATOM      9  O   UNL     1       1.328  10.173  22.158  0.00  0.00    +0.000 OA
ATOM     10  N   UNL     1      -0.653  11.282  21.644  0.00  0.00    +0.000 N 
ATOM     11  C   UNL     1      -1.225  10.795  22.947  0.00  0.00    +0.000 C 
ATOM     12  C   UNL     1      -2.198  11.852  23.430  0.00  0.00    +0.000 C 
ATOM     13  C   UNL     1      -1.387  13.023  23.009  0.00  0.00    +0.000 A 
ATOM     14  C   UNL     1      -1.240  14.225  23.679  0.00  0.00    +0.000 A 
ATOM     15  C   UNL     1      -0.535  15.244  23.043  0.00  0.00    +0.000 A 
ATOM     16  C   UNL     1      -0.100  16.423  23.873  0.00  0.00    +0.000 C 
ATOM     17  C   UNL     1      -0.224  15.068  21.678  0.00  0.00    +0.000 A 
ATOM     18 CL   UNL     1       0.100  16.450  20.688  0.00  0.00    +0.000 Cl
ATOM     19  C   UNL     1      -0.241  13.786  21.072  0.00  0.00    +0.000 A 
ATOM     20  C   UNL     1      -0.699  12.723  21.824  0.00  0.00    +0.000 A 
ATOM     21  H   UNL     1       0.089  10.776  19.327  0.00  0.00    +0.000 HD
ENDBRANCH   4   7
BRANCH   1  22
ATOM     22  O   UNL     1       3.812   6.199  17.501  0.00  0.00    +0.000 OA
BRANCH  22  28
ATOM     23  C   UNL     1       4.846   4.435  18.810  0.00  0.00    +0.000 A 
ATOM     24  N   UNL     1       4.877   3.165  19.322  0.00  0.00    +0.000 NA
ATOM     25  C   UNL     1       3.878   2.327  18.995  0.00  0.00    +0.000 A 
ATOM     26  C   UNL     1       2.807   2.692  18.187  0.00  0.00    +0.000 A 
ATOM     27  C   UNL     1       2.784   3.984  17.686  0.00  0.00    +0.000 A 
ATOM     28  C   UNL     1       3.824   4.886  17.949  0.00  0.00    +0.000 A 
BRANCH  23  29
ATOM     29  C   UNL     1       6.025   5.276  19.242  0.00  0.00    +0.000 C 
BRANCH  29  31
ATOM     30  C   UNL     1       7.816   6.789  18.321  0.00  0.00    +0.000 C 
ATOM     31  C   UNL     1       7.109   5.445  18.176  0.00  0.00    +0.000 C 
ENDBRANCH  29  31
ENDBRANCH  23  29
ENDBRANCH  22  28
ENDBRANCH   1  22
TORSDOF 5
ENDMDL
MODEL 6
REMARK VINA RESULT:      -8.4      0.795      2.035
REMARK  Name = 
REMARK  7 active torsions:
REMARK  status: ('A' for Active; 'I' for Inactive)
REMARK    1  A    between atoms: C_1  and  C_2
REMARK    2  A    between atoms: C_2  and  C_3
REMARK    3  A    between atoms: C_3  and  C_4
REMARK    4  A    between atoms: C_9  and  O_10
REMARK    5  A    between atoms: O_10  and  C_11
REMARK    6  A    between atoms: C_14  and  N_15
REMARK    7  A    between atoms: C_23  and  C_24
REMARK                            x       y       z     vdW  Elec       q    Type
REMARK                         _______ _______ _______ _____ _____    ______ ____
ROOT
ATOM      1  C   UNL     1       3.123   5.700  18.947  0.00  0.00    +0.000 A 
ATOM      2  C   UNL     1       2.372   5.612  20.120  0.00  0.00    +0.000 A 
ATOM      3  C   UNL     1       1.617   6.729  20.569  0.00  0.00    +0.000 A 
ATOM      4  C   UNL     1       1.617   7.934  19.852  0.00  0.00    +0.000 A 
ATOM      5  C   UNL     1       2.387   7.897  18.682  0.00  0.00    +0.000 A 
ATOM      6  N   UNL     1       3.151   6.838  18.209  0.00  0.00    +0.000 NA
ENDROOT
BRANCH   4   7
ATOM      7  N   UNL     1       0.867   9.114  20.186  0.00  0.00    +0.000 N 
ATOM      8  C   UNL     1       0.839   9.776  21.414  0.00  0.00    +0.000 C 
ATOM      9  O   UNL     1       1.610   9.512  22.336  0.00  0.00    +0.000 OA
ATOM     10  N   UNL     1      -0.329  10.580  21.614  0.00  0.00    +0.000 N 
ATOM     11  C   UNL     1      -0.906  10.390  22.991  0.00  0.00    +0.000 C 
ATOM     12  C   UNL     1      -1.828  11.564  23.253  0.00  0.00    +0.000 C 
ATOM     13  C   UNL     1      -0.974  12.590  22.601  0.00  0.00    +0.000 A 
ATOM     14  C   UNL     1      -0.769  13.895  23.015  0.00  0.00    +0.000 A 
ATOM     15  C   UNL     1      -0.030  14.733  22.185  0.00  0.00    +0.000 A 
ATOM     16  C   UNL     1       0.463  16.036  22.758  0.00  0.00    +0.000 C 
ATOM     17  C   UNL     1       0.257  14.273  20.882  0.00  0.00    +0.000 A 
ATOM     18 CL   UNL     1       0.628  15.412  19.632  0.00  0.00    +0.000 Cl
ATOM     19  C   UNL     1       0.180  12.896  20.548  0.00  0.00    +0.000 A 
ATOM     20  C   UNL     1      -0.313  12.028  21.500  0.00  0.00    +0.000 A 
ATOM     21  H   UNL     1       0.365   9.585  19.446  0.00  0.00    +0.000 HD
ENDBRANCH   4   7
BRANCH   1  22
ATOM     22  O   UNL     1       3.955   4.617  18.617  0.00  0.00    +0.000 OA
BRANCH  22  28
ATOM     23  C   UNL     1       5.961   4.517  17.254  0.00  0.00    +0.000 A 
ATOM     24  N   UNL     1       7.301   4.715  17.053  0.00  0.00    +0.000 NA
ATOM     25  C   UNL     1       8.028   5.202  18.074  0.00  0.00    +0.000 A 
ATOM     26  C   UNL     1       7.484   5.535  19.309  0.00  0.00    +0.000 A 
ATOM     27  C   UNL     1       6.124   5.339  19.493  0.00  0.00    +0.000 A 
ATOM     28  C   UNL     1       5.326   4.786  18.483  0.00  0.00    +0.000 A 
BRANCH  23  29
ATOM     29  C   UNL     1       5.257   3.960  16.038  0.00  0.00    +0.000 C 
BRANCH  29  31
ATOM     30  C   UNL     1       6.203   3.880  13.704  0.00  0.00    +0.000 C 
ATOM     31  C   UNL     1       5.501   4.745  14.748  0.00  0.00    +0.000 C 
ENDBRANCH  29  31
ENDBRANCH  23  29
ENDBRANCH  22  28
ENDBRANCH   1  22
TORSDOF 5
ENDMDL
MODEL 7
REMARK VINA RESULT:      -8.3      1.721      2.769
REMARK  Name = 
REMARK  7 active torsions:
REMARK  status: ('A' for Active; 'I' for Inactive)
REMARK    1  A    between atoms: C_1  and  C_2
REMARK    2  A    between atoms: C_2  and  C_3
REMARK    3  A    between atoms: C_3  and  C_4
REMARK    4  A    between atoms: C_9  and  O_10
REMARK    5  A    between atoms: O_10  and  C_11
REMARK    6  A    between atoms: C_14  and  N_15
REMARK    7  A    between atoms: C_23  and  C_24
REMARK                            x       y       z     vdW  Elec       q    Type
REMARK                         _______ _______ _______ _____ _____    ______ ____
ROOT
ATOM      1  C   UNL     1       2.715   7.267  18.369  0.00  0.00    +0.000 A 
ATOM      2  C   UNL     1       2.448   8.363  17.548  0.00  0.00    +0.000 A 
ATOM      3  C   UNL     1       1.671   9.448  18.035  0.00  0.00    +0.000 A 
ATOM      4  C   UNL     1       1.154   9.436  19.339  0.00  0.00    +0.000 A 
ATOM      5  C   UNL     1       1.505   8.298  20.076  0.00  0.00    +0.000 A 
ATOM      6  N   UNL     1       2.248   7.208  19.642  0.00  0.00    +0.000 NA
ENDROOT
BRANCH   4   7
ATOM      7  N   UNL     1       0.390  10.488  19.953  0.00  0.00    +0.000 N 
ATOM      8  C   UNL     1       0.374  10.839  21.304  0.00  0.00    +0.000 C 
ATOM      9  O   UNL     1       1.166  10.380  22.126  0.00  0.00    +0.000 OA
ATOM     10  N   UNL     1      -0.803  11.549  21.705  0.00  0.00    +0.000 N 
ATOM     11  C   UNL     1      -1.351  11.026  23.006  0.00  0.00    +0.000 C 
ATOM     12  C   UNL     1      -2.288  12.085  23.551  0.00  0.00    +0.000 C 
ATOM     13  C   UNL     1      -1.463  13.254  23.150  0.00  0.00    +0.000 A 
ATOM     14  C   UNL     1      -1.273  14.428  23.858  0.00  0.00    +0.000 A 
ATOM     15  C   UNL     1      -0.563  15.454  23.240  0.00  0.00    +0.000 A 
ATOM     16  C   UNL     1      -0.082  16.593  24.100  0.00  0.00    +0.000 C 
ATOM     17  C   UNL     1      -0.292  15.321  21.862  0.00  0.00    +0.000 A 
ATOM     18 CL   UNL     1       0.037  16.731  20.913  0.00  0.00    +0.000 Cl
ATOM     19  C   UNL     1      -0.352  14.062  21.212  0.00  0.00    +0.000 A 
ATOM     20  C   UNL     1      -0.813  12.983  21.937  0.00  0.00    +0.000 A 
ATOM     21  H   UNL     1      -0.132  11.110  19.353  0.00  0.00    +0.000 HD
ENDBRANCH   4   7
BRANCH   1  22
ATOM     22  O   UNL     1       3.372   6.164  17.800  0.00  0.00    +0.000 OA
BRANCH  22  28
ATOM     23  C   UNL     1       5.124   4.887  18.891  0.00  0.00    +0.000 A 
ATOM     24  N   UNL     1       6.440   4.585  19.122  0.00  0.00    +0.000 NA
ATOM     25  C   UNL     1       7.376   5.315  18.490  0.00  0.00    +0.000 A 
ATOM     26  C   UNL     1       7.074   6.341  17.600  0.00  0.00    +0.000 A 
ATOM     27  C   UNL     1       5.737   6.626  17.370  0.00  0.00    +0.000 A 
ATOM     28  C   UNL     1       4.719   5.934  18.039  0.00  0.00    +0.000 A 
BRANCH  23  29
ATOM     29  C   UNL     1       4.171   4.004  19.663  0.00  0.00    +0.000 C 
BRANCH  29  31
ATOM     30  C   UNL     1       3.463   2.281  17.966  0.00  0.00    +0.000 C 
ATOM     31  C   UNL     1       4.216   2.526  19.271  0.00  0.00    +0.000 C 
ENDBRANCH  29  31
ENDBRANCH  23  29
ENDBRANCH  22  28
ENDBRANCH   1  22
TORSDOF 5
ENDMDL
MODEL 8
REMARK VINA RESULT:      -8.2      2.658      3.856
REMARK  Name = 
REMARK  7 active torsions:
REMARK  status: ('A' for Active; 'I' for Inactive)
REMARK    1  A    between atoms: C_1  and  C_2
REMARK    2  A    between atoms: C_2  and  C_3
REMARK    3  A    between atoms: C_3  and  C_4
REMARK    4  A    between atoms: C_9  and  O_10
REMARK    5  A    between atoms: O_10  and  C_11
REMARK    6  A    between atoms: C_14  and  N_15
REMARK    7  A    between atoms: C_23  and  C_24
REMARK                            x       y       z     vdW  Elec       q    Type
REMARK                         _______ _______ _______ _____ _____    ______ ____
ROOT
ATOM      1  C   UNL     1       2.539   7.112  18.589  0.00  0.00    +0.000 A 
ATOM      2  C   UNL     1       2.281   8.214  17.771  0.00  0.00    +0.000 A 
ATOM      3  C   UNL     1       1.602   9.347  18.294  0.00  0.00    +0.000 A 
ATOM      4  C   UNL     1       1.174   9.378  19.629  0.00  0.00    +0.000 A 
ATOM      5  C   UNL     1       1.508   8.229  20.357  0.00  0.00    +0.000 A 
ATOM      6  N   UNL     1       2.157   7.093  19.891  0.00  0.00    +0.000 NA
ENDROOT
BRANCH   4   7
ATOM      7  N   UNL     1       0.515  10.479  20.278  0.00  0.00    +0.000 N 
ATOM      8  C   UNL     1      -0.466  11.312  19.737  0.00  0.00    +0.000 C 
ATOM      9  O   UNL     1      -1.017  11.088  18.659  0.00  0.00    +0.000 OA
ATOM     10  N   UNL     1      -0.573  12.582  20.389  0.00  0.00    +0.000 N 
ATOM     11  C   UNL     1      -0.681  13.709  19.397  0.00  0.00    +0.000 C 
ATOM     12  C   UNL     1      -1.221  14.911  20.147  0.00  0.00    +0.000 C 
ATOM     13  C   UNL     1      -2.182  14.156  20.993  0.00  0.00    +0.000 A 
ATOM     14  C   UNL     1      -3.450  14.554  21.378  0.00  0.00    +0.000 A 
ATOM     15  C   UNL     1      -4.138  13.750  22.284  0.00  0.00    +0.000 A 
ATOM     16  C   UNL     1      -5.613  13.995  22.463  0.00  0.00    +0.000 C 
ATOM     17  C   UNL     1      -3.414  12.723  22.924  0.00  0.00    +0.000 A 
ATOM     18 CL   UNL     1      -3.980  12.084  24.430  0.00  0.00    +0.000 Cl
ATOM     19  C   UNL     1      -2.186  12.242  22.400  0.00  0.00    +0.000 A 
ATOM     20  C   UNL     1      -1.647  12.900  21.313  0.00  0.00    +0.000 A 
ATOM     21  H   UNL     1       0.699  10.633  21.259  0.00  0.00    +0.000 HD
ENDBRANCH   4   7
BRANCH   1  22
ATOM     22  O   UNL     1       3.092   5.967  17.992  0.00  0.00    +0.000 OA
BRANCH  22  28
ATOM     23  C   UNL     1       4.988   4.540  18.505  0.00  0.00    +0.000 A 
ATOM     24  N   UNL     1       6.327   4.252  18.493  0.00  0.00    +0.000 NA
ATOM     25  C   UNL     1       7.164   5.160  17.962  0.00  0.00    +0.000 A 
ATOM     26  C   UNL     1       6.736   6.361  17.406  0.00  0.00    +0.000 A 
ATOM     27  C   UNL     1       5.377   6.632  17.416  0.00  0.00    +0.000 A 
ATOM     28  C   UNL     1       4.462   5.748  18.003  0.00  0.00    +0.000 A 
BRANCH  23  29
ATOM     29  C   UNL     1       4.154   3.448  19.134  0.00  0.00    +0.000 C 
BRANCH  29  31
ATOM     30  C   UNL     1       2.120   2.273  18.223  0.00  0.00    +0.000 C 
ATOM     31  C   UNL     1       3.639   2.396  18.150  0.00  0.00    +0.000 C 
ENDBRANCH  29  31
ENDBRANCH  23  29
ENDBRANCH  22  28
ENDBRANCH   1  22
TORSDOF 5
ENDMDL
MODEL 9
REMARK VINA RESULT:      -8.2      3.045     10.331
REMARK  Name = 
REMARK  7 active torsions:
REMARK  status: ('A' for Active; 'I' for Inactive)
REMARK    1  A    between atoms: C_1  and  C_2
REMARK    2  A    between atoms: C_2  and  C_3
REMARK    3  A    between atoms: C_3  and  C_4
REMARK    4  A    between atoms: C_9  and  O_10
REMARK    5  A    between atoms: O_10  and  C_11
REMARK    6  A    between atoms: C_14  and  N_15
REMARK    7  A    between atoms: C_23  and  C_24
REMARK                            x       y       z     vdW  Elec       q    Type
REMARK                         _______ _______ _______ _____ _____    ______ ____
ROOT
ATOM      1  C   UNL     1       0.010  10.631  22.333  0.00  0.00    +0.000 A 
ATOM      2  C   UNL     1      -0.176  10.411  20.968  0.00  0.00    +0.000 A 
ATOM      3  C   UNL     1       0.525   9.364  20.312  0.00  0.00    +0.000 A 
ATOM      4  C   UNL     1       1.415   8.540  21.016  0.00  0.00    +0.000 A 
ATOM      5  C   UNL     1       1.502   8.840  22.382  0.00  0.00    +0.000 A 
ATOM      6  N   UNL     1       0.852   9.858  23.066  0.00  0.00    +0.000 NA
ENDROOT
BRANCH   4   7
ATOM      7  N   UNL     1       2.147   7.429  20.472  0.00  0.00    +0.000 N 
ATOM      8  C   UNL     1       2.219   7.043  19.132  0.00  0.00    +0.000 C 
ATOM      9  O   UNL     1       1.782   7.731  18.210  0.00  0.00    +0.000 OA
ATOM     10  N   UNL     1       2.580   5.670  18.943  0.00  0.00    +0.000 N 
ATOM     11  C   UNL     1       1.713   5.004  17.908  0.00  0.00    +0.000 C 
ATOM     12  C   UNL     1       2.431   3.743  17.472  0.00  0.00    +0.000 C 
ATOM     13  C   UNL     1       3.800   4.321  17.486  0.00  0.00    +0.000 A 
ATOM     14  C   UNL     1       4.827   4.064  16.595  0.00  0.00    +0.000 A 
ATOM     15  C   UNL     1       6.077   4.614  16.865  0.00  0.00    +0.000 A 
ATOM     16  C   UNL     1       7.102   4.609  15.762  0.00  0.00    +0.000 C 
ATOM     17  C   UNL     1       6.273   5.195  18.136  0.00  0.00    +0.000 A 
ATOM     18 CL   UNL     1       7.877   5.361  18.765  0.00  0.00    +0.000 Cl
ATOM     19  C   UNL     1       5.179   5.584  18.951  0.00  0.00    +0.000 A 
ATOM     20  C   UNL     1       3.908   5.260  18.523  0.00  0.00    +0.000 A 
ATOM     21  H   UNL     1       2.754   6.909  21.090  0.00  0.00    +0.000 HD
ENDBRANCH   4   7
BRANCH   1  22
ATOM     22  O   UNL     1      -0.600  11.760  22.906  0.00  0.00    +0.000 OA
BRANCH  22  28
ATOM     23  C   UNL     1      -2.086  13.471  22.037  0.00  0.00    +0.000 A 
ATOM     24  N   UNL     1      -2.328  14.638  21.361  0.00  0.00    +0.000 NA
ATOM     25  C   UNL     1      -1.280  15.281  20.816  0.00  0.00    +0.000 A 
ATOM     26  C   UNL     1       0.032  14.835  20.925  0.00  0.00    +0.000 A 
ATOM     27  C   UNL     1       0.261  13.658  21.622  0.00  0.00    +0.000 A 
ATOM     28  C   UNL     1      -0.796  12.917  22.166  0.00  0.00    +0.000 A 
BRANCH  23  29
ATOM     29  C   UNL     1      -3.341  12.840  22.594  0.00  0.00    +0.000 C 
BRANCH  29  31
ATOM     30  C   UNL     1      -4.576  12.303  24.724  0.00  0.00    +0.000 C 
ATOM     31  C   UNL     1      -3.743  13.344  23.982  0.00  0.00    +0.000 C 
ENDBRANCH  29  31
ENDBRANCH  23  29
ENDBRANCH  22  28
ENDBRANCH   1  22
TORSDOF 5
ENDMDL
