MODEL 1
REMARK VINA RESULT:      -8.1      0.000      0.000
REMARK  Name = 
REMARK  11 active torsions:
REMARK  status: ('A' for Active; 'I' for Inactive)
REMARK    1  A    between atoms: C_1  and  C_2
REMARK    2  A    between atoms: C_7  and  C_8
REMARK    3  A    between atoms: N_10  and  C_11
REMARK    4  A    between atoms: C_14  and  O_15
REMARK    5  A    between atoms: O_15  and  C_16
REMARK    6  A    between atoms: C_23  and  C_24
REMARK    7  A    between atoms: C_24  and  N_25
REMARK    8  A    between atoms: N_25  and  C_26
REMARK    9  A    between atoms: C_26  and  C_27
REMARK   10  A    between atoms: C_27  and  N_28
REMARK   11  A    between atoms: N_31  and  C_32
REMARK                            x       y       z     vdW  Elec       q    Type
REMARK                         _______ _______ _______ _____ _____    ______ ____
ROOT
ATOM      1  C   UNL     1       7.378   6.854  17.257  0.00  0.00    +0.000 A 
ATOM      2  N   UNL     1       7.566   8.176  17.115  0.00  0.00    +0.000 NA
ATOM      3  N   UNL     1       8.226   8.581  18.218  0.00  0.00    +0.000 N 
ATOM      4  C   UNL     1       8.335   7.567  19.127  0.00  0.00    +0.000 A 
ATOM      5  C   UNL     1       7.887   6.412  18.522  0.00  0.00    +0.000 A 
ENDROOT
BRANCH   1  12
ATOM      6  C   UNL     1       4.385   6.909  16.760  0.00  0.00    +0.000 C 
ATOM      7  C   UNL     1       5.343   6.059  15.966  0.00  0.00    +0.000 A 
ATOM      8  C   UNL     1       4.810   5.236  14.953  0.00  0.00    +0.000 A 
ATOM      9  C   UNL     1       5.628   4.411  14.184  0.00  0.00    +0.000 A 
ATOM     10  C   UNL     1       6.998   4.413  14.395  0.00  0.00    +0.000 A 
ATOM     11  C   UNL     1       7.545   5.242  15.373  0.00  0.00    +0.000 A 
ATOM     12  C   UNL     1       6.738   6.054  16.195  0.00  0.00    +0.000 A 
ENDBRANCH   1  12
BRANCH   3  13
ATOM     13  C   UNL     1       8.721   9.905  18.353  0.00  0.00    +0.000 A 
ATOM     14  C   UNL     1       8.252  10.915  17.506  0.00  0.00    +0.000 A 
ATOM     15  C   UNL     1       8.713  12.224  17.668  0.00  0.00    +0.000 A 
ATOM     16  C   UNL     1       9.646  12.540  18.663  0.00  0.00    +0.000 A 
ATOM     17  C   UNL     1      10.174  11.519  19.448  0.00  0.00    +0.000 A 
ATOM     18  C   UNL     1       9.696  10.211  19.315  0.00  0.00    +0.000 A 
BRANCH  16  19
ATOM     19  O   UNL     1      10.000  13.852  18.723  0.00  0.00    +0.000 OA
BRANCH  19  20
ATOM     20  C   UNL     1      11.297  14.244  18.293  0.00  0.00    +0.000 C 
ATOM     21  F   UNL     1      11.806  13.495  17.290  0.00  0.00    +0.000 F 
ATOM     22  F   UNL     1      11.263  15.534  17.894  0.00  0.00    +0.000 F 
ATOM     23  F   UNL     1      12.145  14.152  19.343  0.00  0.00    +0.000 F 
ENDBRANCH  19  20
ENDBRANCH  16  19
ENDBRANCH   3  13
BRANCH   5  24
ATOM     24  C   UNL     1       7.907   5.044  19.119  0.00  0.00    +0.000 C 
BRANCH  24  25
ATOM     25  N   UNL     1       6.914   4.180  18.465  0.00  0.00    +0.000 NA
ATOM     26  H   UNL     1       7.264   3.222  18.465  0.00  0.00    +0.000 HD
BRANCH  25  27
ATOM     27  C   UNL     1       5.578   4.171  19.082  0.00  0.00    +0.000 C 
BRANCH  27  28
ATOM     28  C   UNL     1       4.467   3.558  18.200  0.00  0.00    +0.000 C 
BRANCH  28  29
ATOM     29  N   UNL     1       3.097   3.841  18.656  0.00  0.00    +0.000 NA
ATOM     30  C   UNL     1       3.075   4.564  19.940  0.00  0.00    +0.000 C 
ATOM     31  C   UNL     1       1.643   4.733  20.498  0.00  0.00    +0.000 C 
ATOM     32  N   UNL     1       0.868   3.482  20.618  0.00  0.00    +0.000 NA
ATOM     33  C   UNL     1       1.354   2.656  21.721  0.00  0.00    +0.000 C 
ATOM     34  C   UNL     1       0.926   2.760  19.333  0.00  0.00    +0.000 C 
ATOM     35  C   UNL     1       2.351   2.569  18.769  0.00  0.00    +0.000 C 
ENDBRANCH  28  29
ENDBRANCH  27  28
ENDBRANCH  25  27
ENDBRANCH  24  25
ENDBRANCH   5  24
TORSDOF 9
ENDMDL
MODEL 2
REMARK VINA RESULT:      -8.0      8.672     11.152
REMARK  Name = 
REMARK  11 active torsions:
REMARK  status: ('A' for Active; 'I' for Inactive)
REMARK    1  A    between atoms: C_1  and  C_2
REMARK    2  A    between atoms: C_7  and  C_8
REMARK    3  A    between atoms: N_10  and  C_11
REMARK    4  A    between atoms: C_14  and  O_15
REMARK    5  A    between atoms: O_15  and  C_16
REMARK    6  A    between atoms: C_23  and  C_24
REMARK    7  A    between atoms: C_24  and  N_25
REMARK    8  A    between atoms: N_25  and  C_26
REMARK    9  A    between atoms: C_26  and  C_27
REMARK   10  A    between atoms: C_27  and  N_28
REMARK   11  A    between atoms: N_31  and  C_32
REMARK                            x       y       z     vdW  Elec       q    Type
REMARK                         _______ _______ _______ _____ _____    ______ ____
ROOT
ATOM      1  C   UNL     1       0.651   9.861  20.188  0.00  0.00    +0.000 A 
ATOM      2  N   UNL     1       1.406   8.946  19.558  0.00  0.00    +0.000 NA
ATOM      3  N   UNL     1       1.415   7.857  20.351  0.00  0.00    +0.000 N 
ATOM      4  C   UNL     1       0.797   8.110  21.543  0.00  0.00    +0.000 A 
ATOM      5  C   UNL     1       0.209   9.354  21.455  0.00  0.00    +0.000 A 
ENDROOT
BRANCH   1  12
ATOM      6  C   UNL     1      -1.760  10.327  18.405  0.00  0.00    +0.000 C 
ATOM      7  C   UNL     1      -0.747  11.395  18.728  0.00  0.00    +0.000 A 
ATOM      8  C   UNL     1      -0.927  12.669  18.152  0.00  0.00    +0.000 A 
ATOM      9  C   UNL     1      -0.027  13.706  18.391  0.00  0.00    +0.000 A 
ATOM     10  C   UNL     1       1.055  13.496  19.231  0.00  0.00    +0.000 A 
ATOM     11  C   UNL     1       1.232  12.250  19.832  0.00  0.00    +0.000 A 
ATOM     12  C   UNL     1       0.363  11.171  19.573  0.00  0.00    +0.000 A 
ENDBRANCH   1  12
BRANCH   3  13
ATOM     13  C   UNL     1       2.004   6.633  19.938  0.00  0.00    +0.000 A 
ATOM     14  C   UNL     1       2.762   6.584  18.762  0.00  0.00    +0.000 A 
ATOM     15  C   UNL     1       3.372   5.387  18.381  0.00  0.00    +0.000 A 
ATOM     16  C   UNL     1       3.231   4.229  19.155  0.00  0.00    +0.000 A 
ATOM     17  C   UNL     1       2.409   4.259  20.279  0.00  0.00    +0.000 A 
ATOM     18  C   UNL     1       1.819   5.460  20.686  0.00  0.00    +0.000 A 
BRANCH  16  19
ATOM     19  O   UNL     1       3.888   3.137  18.681  0.00  0.00    +0.000 OA
BRANCH  19  20
ATOM     20  C   UNL     1       3.138   2.014  18.232  0.00  0.00    +0.000 C 
ATOM     21  F   UNL     1       2.338   1.462  19.170  0.00  0.00    +0.000 F 
ATOM     22  F   UNL     1       2.378   2.380  17.177  0.00  0.00    +0.000 F 
ATOM     23  F   UNL     1       4.002   1.060  17.817  0.00  0.00    +0.000 F 
ENDBRANCH  19  20
ENDBRANCH  16  19
ENDBRANCH   3  13
BRANCH   5  24
ATOM     24  C   UNL     1      -0.644   9.998  22.497  0.00  0.00    +0.000 C 
BRANCH  24  25
ATOM     25  N   UNL     1      -0.100  11.310  22.873  0.00  0.00    +0.000 NA
ATOM     26  H   UNL     1       0.700  11.515  22.275  0.00  0.00    +0.000 HD
BRANCH  25  27
ATOM     27  C   UNL     1      -1.038  12.437  22.772  0.00  0.00    +0.000 C 
BRANCH  27  28
ATOM     28  C   UNL     1      -2.514  12.074  23.055  0.00  0.00    +0.000 C 
BRANCH  28  29
ATOM     29  N   UNL     1      -3.467  13.173  22.837  0.00  0.00    +0.000 NA
ATOM     30  C   UNL     1      -4.010  13.700  24.101  0.00  0.00    +0.000 C 
ATOM     31  C   UNL     1      -5.122  14.750  23.874  0.00  0.00    +0.000 C 
ATOM     32  N   UNL     1      -6.229  14.310  23.004  0.00  0.00    +0.000 NA
ATOM     33  C   UNL     1      -7.087  13.339  23.680  0.00  0.00    +0.000 C 
ATOM     34  C   UNL     1      -5.665  13.759  21.756  0.00  0.00    +0.000 C 
ATOM     35  C   UNL     1      -4.564  12.697  21.965  0.00  0.00    +0.000 C 
ENDBRANCH  28  29
ENDBRANCH  27  28
ENDBRANCH  25  27
ENDBRANCH  24  25
ENDBRANCH   5  24
TORSDOF 9
ENDMDL
MODEL 3
REMARK VINA RESULT:      -7.9      1.126      1.257
REMARK  Name = 
REMARK  11 active torsions:
REMARK  status: ('A' for Active; 'I' for Inactive)
REMARK    1  A    between atoms: C_1  and  C_2
REMARK    2  A    between atoms: C_7  and  C_8
REMARK    3  A    between atoms: N_10  and  C_11
REMARK    4  A    between atoms: C_14  and  O_15
REMARK    5  A    between atoms: O_15  and  C_16
REMARK    6  A    between atoms: C_23  and  C_24
REMARK    7  A    between atoms: C_24  and  N_25
REMARK    8  A    between atoms: N_25  and  C_26
REMARK    9  A    between atoms: C_26  and  C_27
REMARK   10  A    between atoms: C_27  and  N_28
REMARK   11  A    between atoms: N_31  and  C_32
REMARK                            x       y       z     vdW  Elec       q    Type
REMARK                         _______ _______ _______ _____ _____    ______ ____
ROOT
ATOM      1  C   UNL     1       7.425   7.020  17.299  0.00  0.00    +0.000 A 
ATOM      2  N   UNL     1       7.575   8.340  17.097  0.00  0.00    +0.000 NA
ATOM      3  N   UNL     1       8.271   8.804  18.154  0.00  0.00    +0.000 N 
ATOM      4  C   UNL     1       8.443   7.830  19.097  0.00  0.00    +0.000 A 
ATOM      5  C   UNL     1       7.998   6.641  18.558  0.00  0.00    +0.000 A 
ENDROOT
BRANCH   1  12
ATOM      6  C   UNL     1       4.425   7.074  16.849  0.00  0.00    +0.000 C 
ATOM      7  C   UNL     1       5.362   6.168  16.093  0.00  0.00    +0.000 A 
ATOM      8  C   UNL     1       4.804   5.291  15.141  0.00  0.00    +0.000 A 
ATOM      9  C   UNL     1       5.602   4.412  14.410  0.00  0.00    +0.000 A 
ATOM     10  C   UNL     1       6.975   4.413  14.598  0.00  0.00    +0.000 A 
ATOM     11  C   UNL     1       7.546   5.296  15.515  0.00  0.00    +0.000 A 
ATOM     12  C   UNL     1       6.760   6.164  16.299  0.00  0.00    +0.000 A 
ENDBRANCH   1  12
BRANCH   3  13
ATOM     13  C   UNL     1       8.739  10.143  18.214  0.00  0.00    +0.000 A 
ATOM     14  C   UNL     1       8.105  11.139  17.464  0.00  0.00    +0.000 A 
ATOM     15  C   UNL     1       8.544  12.461  17.557  0.00  0.00    +0.000 A 
ATOM     16  C   UNL     1       9.619  12.806  18.386  0.00  0.00    +0.000 A 
ATOM     17  C   UNL     1      10.302  11.801  19.066  0.00  0.00    +0.000 A 
ATOM     18  C   UNL     1       9.850  10.478  19.004  0.00  0.00    +0.000 A 
BRANCH  16  19
ATOM     19  O   UNL     1       9.936  14.128  18.397  0.00  0.00    +0.000 OA
BRANCH  19  20
ATOM     20  C   UNL     1       9.322  14.983  19.353  0.00  0.00    +0.000 C 
ATOM     21  F   UNL     1      10.175  15.807  20.000  0.00  0.00    +0.000 F 
ATOM     22  F   UNL     1       8.380  15.733  18.740  0.00  0.00    +0.000 F 
ATOM     23  F   UNL     1       8.709  14.217  20.283  0.00  0.00    +0.000 F 
ENDBRANCH  19  20
ENDBRANCH  16  19
ENDBRANCH   3  13
BRANCH   5  24
ATOM     24  C   UNL     1       8.075   5.300  19.207  0.00  0.00    +0.000 C 
BRANCH  24  25
ATOM     25  N   UNL     1       6.947   5.105  20.128  0.00  0.00    +0.000 NA
ATOM     26  H   UNL     1       7.005   5.802  20.869  0.00  0.00    +0.000 HD
BRANCH  25  27
ATOM     27  C   UNL     1       5.610   5.204  19.521  0.00  0.00    +0.000 C 
BRANCH  27  28
ATOM     28  C   UNL     1       5.099   3.897  18.873  0.00  0.00    +0.000 C 
BRANCH  28  29
ATOM     29  N   UNL     1       3.636   3.741  18.884  0.00  0.00    +0.000 NA
ATOM     30  C   UNL     1       2.985   4.645  19.847  0.00  0.00    +0.000 C 
ATOM     31  C   UNL     1       1.466   4.381  19.972  0.00  0.00    +0.000 C 
ATOM     32  N   UNL     1       1.098   2.984  20.273  0.00  0.00    +0.000 NA
ATOM     33  C   UNL     1       1.416   2.635  21.656  0.00  0.00    +0.000 C 
ATOM     34  C   UNL     1       1.782   2.093  19.316  0.00  0.00    +0.000 C 
ATOM     35  C   UNL     1       3.302   2.333  19.192  0.00  0.00    +0.000 C 
ENDBRANCH  28  29
ENDBRANCH  27  28
ENDBRANCH  25  27
ENDBRANCH  24  25
ENDBRANCH   5  24
TORSDOF 9
ENDMDL
MODEL 4
REMARK VINA RESULT:      -7.9      7.412      9.727
REMARK  Name = 
REMARK  11 active torsions:
REMARK  status: ('A' for Active; 'I' for Inactive)
REMARK    1  A    between atoms: C_1  and  C_2
REMARK    2  A    between atoms: C_7  and  C_8
REMARK    3  A    between atoms: N_10  and  C_11
REMARK    4  A    between atoms: C_14  and  O_15
REMARK    5  A    between atoms: O_15  and  C_16
REMARK    6  A    between atoms: C_23  and  C_24
REMARK    7  A    between atoms: C_24  and  N_25
REMARK    8  A    between atoms: N_25  and  C_26
REMARK    9  A    between atoms: C_26  and  C_27
REMARK   10  A    between atoms: C_27  and  N_28
REMARK   11  A    between atoms: N_31  and  C_32
REMARK                            x       y       z     vdW  Elec       q    Type
REMARK                         _______ _______ _______ _____ _____    ______ ____
ROOT
ATOM      1  C   UNL     1       0.962   9.234  19.050  0.00  0.00    +0.000 A 
ATOM      2  N   UNL     1       1.811   8.674  18.172  0.00  0.00    +0.000 NA
ATOM      3  N   UNL     1       2.398   7.648  18.821  0.00  0.00    +0.000 N 
ATOM      4  C   UNL     1       2.045   7.633  20.141  0.00  0.00    +0.000 A 
ATOM      5  C   UNL     1       1.055   8.575  20.321  0.00  0.00    +0.000 A 
ENDROOT
BRANCH   1  12
ATOM      6  C   UNL     1       1.916  12.115  19.068  0.00  0.00    +0.000 C 
ATOM      7  C   UNL     1       0.518  11.705  18.681  0.00  0.00    +0.000 A 
ATOM      8  C   UNL     1      -0.392  12.722  18.327  0.00  0.00    +0.000 A 
ATOM      9  C   UNL     1      -1.706  12.426  17.971  0.00  0.00    +0.000 A 
ATOM     10  C   UNL     1      -2.128  11.106  17.936  0.00  0.00    +0.000 A 
ATOM     11  C   UNL     1      -1.232  10.086  18.254  0.00  0.00    +0.000 A 
ATOM     12  C   UNL     1       0.090  10.358  18.661  0.00  0.00    +0.000 A 
ENDBRANCH   1  12
BRANCH   3  13
ATOM     13  C   UNL     1       3.259   6.735  18.157  0.00  0.00    +0.000 A 
ATOM     14  C   UNL     1       2.853   5.410  17.960  0.00  0.00    +0.000 A 
ATOM     15  C   UNL     1       3.687   4.526  17.272  0.00  0.00    +0.000 A 
ATOM     16  C   UNL     1       4.929   4.943  16.780  0.00  0.00    +0.000 A 
ATOM     17  C   UNL     1       5.367   6.238  17.050  0.00  0.00    +0.000 A 
ATOM     18  C   UNL     1       4.526   7.140  17.711  0.00  0.00    +0.000 A 
BRANCH  16  19
ATOM     19  O   UNL     1       5.635   3.989  16.116  0.00  0.00    +0.000 OA
BRANCH  19  20
ATOM     20  C   UNL     1       6.110   4.262  14.804  0.00  0.00    +0.000 C 
ATOM     21  F   UNL     1       6.183   3.182  13.997  0.00  0.00    +0.000 F 
ATOM     22  F   UNL     1       5.308   5.182  14.223  0.00  0.00    +0.000 F 
ATOM     23  F   UNL     1       7.353   4.788  14.897  0.00  0.00    +0.000 F 
ENDBRANCH  19  20
ENDBRANCH  16  19
ENDBRANCH   3  13
BRANCH   5  24
ATOM     24  C   UNL     1       0.315   8.840  21.590  0.00  0.00    +0.000 C 
BRANCH  24  25
ATOM     25  N   UNL     1       0.798  10.075  22.222  0.00  0.00    +0.000 NA
ATOM     26  H   UNL     1       1.691  10.330  21.801  0.00  0.00    +0.000 HD
BRANCH  25  27
ATOM     27  C   UNL     1      -0.099  11.236  22.111  0.00  0.00    +0.000 C 
BRANCH  27  28
ATOM     28  C   UNL     1      -1.336  11.184  23.037  0.00  0.00    +0.000 C 
BRANCH  28  29
ATOM     29  N   UNL     1      -2.200  12.373  22.972  0.00  0.00    +0.000 NA
ATOM     30  C   UNL     1      -3.425  12.218  23.775  0.00  0.00    +0.000 C 
ATOM     31  C   UNL     1      -4.405  13.400  23.593  0.00  0.00    +0.000 C 
ATOM     32  N   UNL     1      -4.763  13.704  22.193  0.00  0.00    +0.000 NA
ATOM     33  C   UNL     1      -5.658  12.690  21.639  0.00  0.00    +0.000 C 
ATOM     34  C   UNL     1      -3.525  13.827  21.400  0.00  0.00    +0.000 C 
ATOM     35  C   UNL     1      -2.542  12.647  21.559  0.00  0.00    +0.000 C 
ENDBRANCH  28  29
ENDBRANCH  27  28
ENDBRANCH  25  27
ENDBRANCH  24  25
ENDBRANCH   5  24
TORSDOF 9
ENDMDL
MODEL 5
REMARK VINA RESULT:      -7.9      8.394     10.763
REMARK  Name = 
REMARK  11 active torsions:
REMARK  status: ('A' for Active; 'I' for Inactive)
REMARK    1  A    between atoms: C_1  and  C_2
REMARK    2  A    between atoms: C_7  and  C_8
REMARK    3  A    between atoms: N_10  and  C_11
REMARK    4  A    between atoms: C_14  and  O_15
REMARK    5  A    between atoms: O_15  and  C_16
REMARK    6  A    between atoms: C_23  and  C_24
REMARK    7  A    between atoms: C_24  and  N_25
REMARK    8  A    between atoms: N_25  and  C_26
REMARK    9  A    between atoms: C_26  and  C_27
REMARK   10  A    between atoms: C_27  and  N_28
REMARK   11  A    between atoms: N_31  and  C_32
REMARK                            x       y       z     vdW  Elec       q    Type
REMARK                         _______ _______ _______ _____ _____    ______ ____
ROOT
ATOM      1  C   UNL     1      -0.100  11.165  20.099  0.00  0.00    +0.000 A 
ATOM      2  N   UNL     1       0.718  10.120  20.309  0.00  0.00    +0.000 NA
ATOM      3  N   UNL     1       0.887   9.531  19.108  0.00  0.00    +0.000 N 
ATOM      4  C   UNL     1       0.079  10.096  18.163  0.00  0.00    +0.000 A 
ATOM      5  C   UNL     1      -0.509  11.209  18.726  0.00  0.00    +0.000 A 
ENDROOT
BRANCH   1  12
ATOM      6  C   UNL     1       1.252  13.858  20.461  0.00  0.00    +0.000 C 
ATOM      7  C   UNL     1       0.178  13.337  21.381  0.00  0.00    +0.000 A 
ATOM      8  C   UNL     1      -0.199  14.142  22.475  0.00  0.00    +0.000 A 
ATOM      9  C   UNL     1      -1.174  13.726  23.379  0.00  0.00    +0.000 A 
ATOM     10  C   UNL     1      -1.810  12.509  23.191  0.00  0.00    +0.000 A 
ATOM     11  C   UNL     1      -1.470  11.713  22.098  0.00  0.00    +0.000 A 
ATOM     12  C   UNL     1      -0.456  12.088  21.193  0.00  0.00    +0.000 A 
ENDBRANCH   1  12
BRANCH   3  13
ATOM     13  C   UNL     1       1.808   8.467  18.918  0.00  0.00    +0.000 A 
ATOM     14  C   UNL     1       1.958   7.488  19.907  0.00  0.00    +0.000 A 
ATOM     15  C   UNL     1       2.836   6.422  19.698  0.00  0.00    +0.000 A 
ATOM     16  C   UNL     1       3.577   6.321  18.514  0.00  0.00    +0.000 A 
ATOM     17  C   UNL     1       3.490   7.340  17.569  0.00  0.00    +0.000 A 
ATOM     18  C   UNL     1       2.590   8.396  17.755  0.00  0.00    +0.000 A 
BRANCH  16  19
ATOM     19  O   UNL     1       4.382   5.229  18.431  0.00  0.00    +0.000 OA
BRANCH  19  20
ATOM     20  C   UNL     1       5.793   5.397  18.495  0.00  0.00    +0.000 C 
ATOM     21  F   UNL     1       6.259   6.485  17.844  0.00  0.00    +0.000 F 
ATOM     22  F   UNL     1       6.174   5.472  19.789  0.00  0.00    +0.000 F 
ATOM     23  F   UNL     1       6.381   4.309  17.947  0.00  0.00    +0.000 F 
ENDBRANCH  19  20
ENDBRANCH  16  19
ENDBRANCH   3  13
BRANCH   5  24
ATOM     24  C   UNL     1      -1.402  12.178  18.026  0.00  0.00    +0.000 C 
BRANCH  24  25
ATOM     25  N   UNL     1      -2.090  11.529  16.901  0.00  0.00    +0.000 NA
ATOM     26  H   UNL     1      -1.462  10.840  16.488  0.00  0.00    +0.000 HD
BRANCH  25  27
ATOM     27  C   UNL     1      -3.348  10.845  17.238  0.00  0.00    +0.000 C 
BRANCH  27  28
ATOM     28  C   UNL     1      -4.625  11.581  16.772  0.00  0.00    +0.000 C 
BRANCH  28  29
ATOM     29  N   UNL     1      -5.330  12.316  17.834  0.00  0.00    +0.000 NA
ATOM     30  C   UNL     1      -4.891  11.910  19.180  0.00  0.00    +0.000 C 
ATOM     31  C   UNL     1      -5.730  12.568  20.299  0.00  0.00    +0.000 C 
ATOM     32  N   UNL     1      -7.190  12.384  20.176  0.00  0.00    +0.000 NA
ATOM     33  C   UNL     1      -7.583  11.012  20.491  0.00  0.00    +0.000 C 
ATOM     34  C   UNL     1      -7.605  12.768  18.813  0.00  0.00    +0.000 C 
ATOM     35  C   UNL     1      -6.787  12.108  17.683  0.00  0.00    +0.000 C 
ENDBRANCH  28  29
ENDBRANCH  27  28
ENDBRANCH  25  27
ENDBRANCH  24  25
ENDBRANCH   5  24
TORSDOF 9
ENDMDL
MODEL 6
REMARK VINA RESULT:      -7.8      8.522     10.977
REMARK  Name = 
REMARK  11 active torsions:
REMARK  status: ('A' for Active; 'I' for Inactive)
REMARK    1  A    between atoms: C_1  and  C_2
REMARK    2  A    between atoms: C_7  and  C_8
REMARK    3  A    between atoms: N_10  and  C_11
REMARK    4  A    between atoms: C_14  and  O_15
REMARK    5  A    between atoms: O_15  and  C_16
REMARK    6  A    between atoms: C_23  and  C_24
REMARK    7  A    between atoms: C_24  and  N_25
REMARK    8  A    between atoms: N_25  and  C_26
REMARK    9  A    between atoms: C_26  and  C_27
REMARK   10  A    between atoms: C_27  and  N_28
REMARK   11  A    between atoms: N_31  and  C_32
REMARK                            x       y       z     vdW  Elec       q    Type
REMARK                         _______ _______ _______ _____ _____    ______ ____
ROOT
ATOM      1  C   UNL     1       0.704   9.910  20.174  0.00  0.00    +0.000 A 
ATOM      2  N   UNL     1       1.454   8.987  19.550  0.00  0.00    +0.000 NA
ATOM      3  N   UNL     1       1.472   7.909  20.358  0.00  0.00    +0.000 N 
ATOM      4  C   UNL     1       0.864   8.179  21.552  0.00  0.00    +0.000 A 
ATOM      5  C   UNL     1       0.275   9.421  21.452  0.00  0.00    +0.000 A 
ENDROOT
BRANCH   1  12
ATOM      6  C   UNL     1      -1.796  10.389  18.523  0.00  0.00    +0.000 C 
ATOM      7  C   UNL     1      -0.743  11.440  18.759  0.00  0.00    +0.000 A 
ATOM      8  C   UNL     1      -0.929  12.704  18.162  0.00  0.00    +0.000 A 
ATOM      9  C   UNL     1       0.006  13.725  18.321  0.00  0.00    +0.000 A 
ATOM     10  C   UNL     1       1.131  13.510  19.102  0.00  0.00    +0.000 A 
ATOM     11  C   UNL     1       1.316  12.275  19.723  0.00  0.00    +0.000 A 
ATOM     12  C   UNL     1       0.409  11.211  19.544  0.00  0.00    +0.000 A 
ENDBRANCH   1  12
BRANCH   3  13
ATOM     13  C   UNL     1       2.058   6.680  19.957  0.00  0.00    +0.000 A 
ATOM     14  C   UNL     1       2.871   6.633  18.819  0.00  0.00    +0.000 A 
ATOM     15  C   UNL     1       3.477   5.429  18.451  0.00  0.00    +0.000 A 
ATOM     16  C   UNL     1       3.277   4.264  19.200  0.00  0.00    +0.000 A 
ATOM     17  C   UNL     1       2.402   4.294  20.283  0.00  0.00    +0.000 A 
ATOM     18  C   UNL     1       1.814   5.501  20.678  0.00  0.00    +0.000 A 
BRANCH  16  19
ATOM     19  O   UNL     1       3.936   3.166  18.743  0.00  0.00    +0.000 OA
BRANCH  19  20
ATOM     20  C   UNL     1       3.196   2.108  18.145  0.00  0.00    +0.000 C 
ATOM     21  F   UNL     1       2.455   1.383  19.010  0.00  0.00    +0.000 F 
ATOM     22  F   UNL     1       2.380   2.617  17.197  0.00  0.00    +0.000 F 
ATOM     23  F   UNL     1       4.064   1.264  17.543  0.00  0.00    +0.000 F 
ENDBRANCH  19  20
ENDBRANCH  16  19
ENDBRANCH   3  13
BRANCH   5  24
ATOM     24  C   UNL     1      -0.569  10.078  22.492  0.00  0.00    +0.000 C 
BRANCH  24  25
ATOM     25  N   UNL     1      -0.141  11.467  22.704  0.00  0.00    +0.000 NA
ATOM     26  H   UNL     1       0.384  11.776  21.886  0.00  0.00    +0.000 HD
BRANCH  25  27
ATOM     27  C   UNL     1      -1.223  12.436  22.937  0.00  0.00    +0.000 C 
BRANCH  27  28
ATOM     28  C   UNL     1      -1.160  13.697  22.046  0.00  0.00    +0.000 C 
BRANCH  28  29
ATOM     29  N   UNL     1      -2.386  13.967  21.279  0.00  0.00    +0.000 NA
ATOM     30  C   UNL     1      -3.202  15.032  21.888  0.00  0.00    +0.000 C 
ATOM     31  C   UNL     1      -4.561  15.217  21.173  0.00  0.00    +0.000 C 
ATOM     32  N   UNL     1      -5.368  13.988  21.039  0.00  0.00    +0.000 NA
ATOM     33  C   UNL     1      -5.936  13.580  22.322  0.00  0.00    +0.000 C 
ATOM     34  C   UNL     1      -4.526  12.926  20.455  0.00  0.00    +0.000 C 
ATOM     35  C   UNL     1      -3.172  12.718  21.167  0.00  0.00    +0.000 C 
ENDBRANCH  28  29
ENDBRANCH  27  28
ENDBRANCH  25  27
ENDBRANCH  24  25
ENDBRANCH   5  24
TORSDOF 9
ENDMDL
MODEL 7
REMARK VINA RESULT:      -7.8      7.732     10.135
REMARK  Name = 
REMARK  11 active torsions:
REMARK  status: ('A' for Active; 'I' for Inactive)
REMARK    1  A    between atoms: C_1  and  C_2
REMARK    2  A    between atoms: C_7  and  C_8
REMARK    3  A    between atoms: N_10  and  C_11
REMARK    4  A    between atoms: C_14  and  O_15
REMARK    5  A    between atoms: O_15  and  C_16
REMARK    6  A    between atoms: C_23  and  C_24
REMARK    7  A    between atoms: C_24  and  N_25
REMARK    8  A    between atoms: N_25  and  C_26
REMARK    9  A    between atoms: C_26  and  C_27
REMARK   10  A    between atoms: C_27  and  N_28
REMARK   11  A    between atoms: N_31  and  C_32
REMARK                            x       y       z     vdW  Elec       q    Type
REMARK                         _______ _______ _______ _____ _____    ______ ____
ROOT
ATOM      1  C   UNL     1       0.936   9.704  19.746  0.00  0.00    +0.000 A 
ATOM      2  N   UNL     1       1.793   9.137  18.881  0.00  0.00    +0.000 NA
ATOM      3  N   UNL     1       2.050   7.904  19.363  0.00  0.00    +0.000 N 
ATOM      4  C   UNL     1       1.485   7.729  20.595  0.00  0.00    +0.000 A 
ATOM      5  C   UNL     1       0.683   8.822  20.847  0.00  0.00    +0.000 A 
ENDROOT
BRANCH   1  12
ATOM      6  C   UNL     1      -1.705  10.135  18.315  0.00  0.00    +0.000 C 
ATOM      7  C   UNL     1      -0.841  11.261  18.820  0.00  0.00    +0.000 A 
ATOM      8  C   UNL     1      -1.282  12.581  18.597  0.00  0.00    +0.000 A 
ATOM      9  C   UNL     1      -0.534  13.677  19.021  0.00  0.00    +0.000 A 
ATOM     10  C   UNL     1       0.657  13.474  19.701  0.00  0.00    +0.000 A 
ATOM     11  C   UNL     1       1.093  12.175  19.957  0.00  0.00    +0.000 A 
ATOM     12  C   UNL     1       0.379  11.048  19.501  0.00  0.00    +0.000 A 
ENDBRANCH   1  12
BRANCH   3  13
ATOM     13  C   UNL     1       2.814   6.957  18.631  0.00  0.00    +0.000 A 
ATOM     14  C   UNL     1       2.725   5.597  18.945  0.00  0.00    +0.000 A 
ATOM     15  C   UNL     1       3.447   4.665  18.197  0.00  0.00    +0.000 A 
ATOM     16  C   UNL     1       4.268   5.072  17.139  0.00  0.00    +0.000 A 
ATOM     17  C   UNL     1       4.420   6.433  16.882  0.00  0.00    +0.000 A 
ATOM     18  C   UNL     1       3.677   7.372  17.605  0.00  0.00    +0.000 A 
BRANCH  16  19
ATOM     19  O   UNL     1       4.904   4.065  16.482  0.00  0.00    +0.000 OA
BRANCH  19  20
ATOM     20  C   UNL     1       5.823   4.382  15.444  0.00  0.00    +0.000 C 
ATOM     21  F   UNL     1       6.863   5.152  15.831  0.00  0.00    +0.000 F 
ATOM     22  F   UNL     1       6.307   3.237  14.915  0.00  0.00    +0.000 F 
ATOM     23  F   UNL     1       5.160   5.047  14.471  0.00  0.00    +0.000 F 
ENDBRANCH  19  20
ENDBRANCH  16  19
ENDBRANCH   3  13
BRANCH   5  24
ATOM     24  C   UNL     1      -0.192   9.010  22.041  0.00  0.00    +0.000 C 
BRANCH  24  25
ATOM     25  N   UNL     1      -0.015  10.356  22.605  0.00  0.00    +0.000 NA
ATOM     26  H   UNL     1       0.450  10.942  21.912  0.00  0.00    +0.000 HD
BRANCH  25  27
ATOM     27  C   UNL     1      -1.252  11.039  23.014  0.00  0.00    +0.000 C 
BRANCH  27  28
ATOM     28  C   UNL     1      -1.147  12.579  23.074  0.00  0.00    +0.000 C 
BRANCH  28  29
ATOM     29  N   UNL     1      -2.437  13.277  23.190  0.00  0.00    +0.000 NA
ATOM     30  C   UNL     1      -3.506  12.394  23.687  0.00  0.00    +0.000 C 
ATOM     31  C   UNL     1      -4.893  13.077  23.669  0.00  0.00    +0.000 C 
ATOM     32  N   UNL     1      -5.289  13.653  22.370  0.00  0.00    +0.000 NA
ATOM     33  C   UNL     1      -5.632  12.610  21.405  0.00  0.00    +0.000 C 
ATOM     34  C   UNL     1      -4.194  14.511  21.875  0.00  0.00    +0.000 C 
ATOM     35  C   UNL     1      -2.805  13.838  21.872  0.00  0.00    +0.000 C 
ENDBRANCH  28  29
ENDBRANCH  27  28
ENDBRANCH  25  27
ENDBRANCH  24  25
ENDBRANCH   5  24
TORSDOF 9
ENDMDL
MODEL 8
REMARK VINA RESULT:      -7.7      5.442      6.747
REMARK  Name = 
REMARK  11 active torsions:
REMARK  status: ('A' for Active; 'I' for Inactive)
REMARK    1  A    between atoms: C_1  and  C_2
REMARK    2  A    between atoms: C_7  and  C_8
REMARK    3  A    between atoms: N_10  and  C_11
REMARK    4  A    between atoms: C_14  and  O_15
REMARK    5  A    between atoms: O_15  and  C_16
REMARK    6  A    between atoms: C_23  and  C_24
REMARK    7  A    between atoms: C_24  and  N_25
REMARK    8  A    between atoms: N_25  and  C_26
REMARK    9  A    between atoms: C_26  and  C_27
REMARK   10  A    between atoms: C_27  and  N_28
REMARK   11  A    between atoms: N_31  and  C_32
REMARK                            x       y       z     vdW  Elec       q    Type
REMARK                         _______ _______ _______ _____ _____    ______ ____
ROOT
ATOM      1  C   UNL     1       4.564   5.850  17.615  0.00  0.00    +0.000 A 
ATOM      2  N   UNL     1       3.645   6.812  17.427  0.00  0.00    +0.000 NA
ATOM      3  N   UNL     1       3.114   7.063  18.640  0.00  0.00    +0.000 N 
ATOM      4  C   UNL     1       3.575   6.178  19.573  0.00  0.00    +0.000 A 
ATOM      5  C   UNL     1       4.577   5.435  18.987  0.00  0.00    +0.000 A 
ENDROOT
BRANCH   1  12
ATOM      6  C   UNL     1       7.451   6.711  17.255  0.00  0.00    +0.000 C 
ATOM      7  C   UNL     1       6.741   5.772  16.314  0.00  0.00    +0.000 A 
ATOM      8  C   UNL     1       7.459   5.288  15.201  0.00  0.00    +0.000 A 
ATOM      9  C   UNL     1       6.869   4.427  14.278  0.00  0.00    +0.000 A 
ATOM     10  C   UNL     1       5.559   4.012  14.464  0.00  0.00    +0.000 A 
ATOM     11  C   UNL     1       4.845   4.459  15.575  0.00  0.00    +0.000 A 
ATOM     12  C   UNL     1       5.401   5.365  16.501  0.00  0.00    +0.000 A 
ENDBRANCH   1  12
BRANCH   3  13
ATOM     13  C   UNL     1       2.201   8.129  18.853  0.00  0.00    +0.000 A 
ATOM     14  C   UNL     1       1.967   9.062  17.836  0.00  0.00    +0.000 A 
ATOM     15  C   UNL     1       1.038  10.086  18.036  0.00  0.00    +0.000 A 
ATOM     16  C   UNL     1       0.342  10.199  19.245  0.00  0.00    +0.000 A 
ATOM     17  C   UNL     1       0.637   9.322  20.285  0.00  0.00    +0.000 A 
ATOM     18  C   UNL     1       1.542   8.274  20.084  0.00  0.00    +0.000 A 
BRANCH  16  19
ATOM     19  O   UNL     1      -0.543  11.230  19.304  0.00  0.00    +0.000 OA
BRANCH  19  20
ATOM     20  C   UNL     1      -1.786  11.122  18.620  0.00  0.00    +0.000 C 
ATOM     21  F   UNL     1      -2.848  11.593  19.308  0.00  0.00    +0.000 F 
ATOM     22  F   UNL     1      -1.705  11.781  17.444  0.00  0.00    +0.000 F 
ATOM     23  F   UNL     1      -2.017   9.816  18.355  0.00  0.00    +0.000 F 
ENDBRANCH  19  20
ENDBRANCH  16  19
ENDBRANCH   3  13
BRANCH   5  24
ATOM     24  C   UNL     1       5.420   4.407  19.666  0.00  0.00    +0.000 C 
BRANCH  24  25
ATOM     25  N   UNL     1       5.146   3.070  19.120  0.00  0.00    +0.000 NA
ATOM     26  H   UNL     1       5.936   2.786  18.541  0.00  0.00    +0.000 HD
BRANCH  25  27
ATOM     27  C   UNL     1       4.914   2.014  20.117  0.00  0.00    +0.000 C 
BRANCH  27  28
ATOM     28  C   UNL     1       3.780   2.316  21.123  0.00  0.00    +0.000 C 
BRANCH  28  29
ATOM     29  N   UNL     1       2.431   2.335  20.537  0.00  0.00    +0.000 NA
ATOM     30  C   UNL     1       2.414   1.816  19.158  0.00  0.00    +0.000 C 
ATOM     31  C   UNL     1       1.031   1.972  18.485  0.00  0.00    +0.000 C 
ATOM     32  N   UNL     1       0.477   3.340  18.507  0.00  0.00    +0.000 NA
ATOM     33  C   UNL     1       1.187   4.219  17.580  0.00  0.00    +0.000 C 
ATOM     34  C   UNL     1       0.529   3.853  19.890  0.00  0.00    +0.000 C 
ATOM     35  C   UNL     1       1.908   3.719  20.572  0.00  0.00    +0.000 C 
ENDBRANCH  28  29
ENDBRANCH  27  28
ENDBRANCH  25  27
ENDBRANCH  24  25
ENDBRANCH   5  24
TORSDOF 9
ENDMDL
MODEL 9
REMARK VINA RESULT:      -7.7      7.557      9.838
REMARK  Name = 
REMARK  11 active torsions:
REMARK  status: ('A' for Active; 'I' for Inactive)
REMARK    1  A    between atoms: C_1  and  C_2
REMARK    2  A    between atoms: C_7  and  C_8
REMARK    3  A    between atoms: N_10  and  C_11
REMARK    4  A    between atoms: C_14  and  O_15
REMARK    5  A    between atoms: O_15  and  C_16
REMARK    6  A    between atoms: C_23  and  C_24
REMARK    7  A    between atoms: C_24  and  N_25
REMARK    8  A    between atoms: N_25  and  C_26
REMARK    9  A    between atoms: C_26  and  C_27
REMARK   10  A    between atoms: C_27  and  N_28
REMARK   11  A    between atoms: N_31  and  C_32
REMARK                            x       y       z     vdW  Elec       q    Type
REMARK                         _______ _______ _______ _____ _____    ______ ____
ROOT
ATOM      1  C   UNL     1       1.069   9.204  18.925  0.00  0.00    +0.000 A 
ATOM      2  N   UNL     1       1.912   8.679  18.020  0.00  0.00    +0.000 NA
ATOM      3  N   UNL     1       2.498   7.625  18.623  0.00  0.00    +0.000 N 
ATOM      4  C   UNL     1       2.150   7.556  19.943  0.00  0.00    +0.000 A 
ATOM      5  C   UNL     1       1.164   8.493  20.166  0.00  0.00    +0.000 A 
ENDROOT
BRANCH   1  12
ATOM      6  C   UNL     1       2.070  12.069  18.929  0.00  0.00    +0.000 C 
ATOM      7  C   UNL     1       0.650  11.686  18.601  0.00  0.00    +0.000 A 
ATOM      8  C   UNL     1      -0.258  12.721  18.299  0.00  0.00    +0.000 A 
ATOM      9  C   UNL     1      -1.592  12.451  17.999  0.00  0.00    +0.000 A 
ATOM     10  C   UNL     1      -2.036  11.138  17.968  0.00  0.00    +0.000 A 
ATOM     11  C   UNL     1      -1.144  10.100  18.236  0.00  0.00    +0.000 A 
ATOM     12  C   UNL     1       0.199  10.347  18.586  0.00  0.00    +0.000 A 
ENDBRANCH   1  12
BRANCH   3  13
ATOM     13  C   UNL     1       3.353   6.738  17.918  0.00  0.00    +0.000 A 
ATOM     14  C   UNL     1       4.442   7.241  17.198  0.00  0.00    +0.000 A 
ATOM     15  C   UNL     1       5.302   6.361  16.539  0.00  0.00    +0.000 A 
ATOM     16  C   UNL     1       5.087   4.978  16.580  0.00  0.00    +0.000 A 
ATOM     17  C   UNL     1       3.957   4.485  17.227  0.00  0.00    +0.000 A 
ATOM     18  C   UNL     1       3.106   5.356  17.916  0.00  0.00    +0.000 A 
BRANCH  16  19
ATOM     19  O   UNL     1       6.006   4.233  15.910  0.00  0.00    +0.000 OA
BRANCH  19  20
ATOM     20  C   UNL     1       6.058   4.303  14.490  0.00  0.00    +0.000 C 
ATOM     21  F   UNL     1       4.901   4.680  13.904  0.00  0.00    +0.000 F 
ATOM     22  F   UNL     1       7.030   5.167  14.123  0.00  0.00    +0.000 F 
ATOM     23  F   UNL     1       6.380   3.080  14.011  0.00  0.00    +0.000 F 
ENDBRANCH  19  20
ENDBRANCH  16  19
ENDBRANCH   3  13
BRANCH   5  24
ATOM     24  C   UNL     1       0.430   8.707  21.448  0.00  0.00    +0.000 C 
BRANCH  24  25
ATOM     25  N   UNL     1       0.841   9.971  22.074  0.00  0.00    +0.000 NA
ATOM     26  H   UNL     1       1.752  10.239  21.703  0.00  0.00    +0.000 HD
BRANCH  25  27
ATOM     27  C   UNL     1      -0.076  11.104  21.875  0.00  0.00    +0.000 C 
BRANCH  27  28
ATOM     28  C   UNL     1      -1.118  11.294  23.001  0.00  0.00    +0.000 C 
BRANCH  28  29
ATOM     29  N   UNL     1      -1.963  12.490  22.858  0.00  0.00    +0.000 NA
ATOM     30  C   UNL     1      -1.235  13.729  23.182  0.00  0.00    +0.000 C 
ATOM     31  C   UNL     1      -2.155  14.972  23.179  0.00  0.00    +0.000 C 
ATOM     32  N   UNL     1      -3.355  14.863  24.031  0.00  0.00    +0.000 NA
ATOM     33  C   UNL     1      -3.012  14.944  25.449  0.00  0.00    +0.000 C 
ATOM     34  C   UNL     1      -4.054  13.603  23.712  0.00  0.00    +0.000 C 
ATOM     35  C   UNL     1      -3.152  12.350  23.726  0.00  0.00    +0.000 C 
ENDBRANCH  28  29
ENDBRANCH  27  28
ENDBRANCH  25  27
ENDBRANCH  24  25
ENDBRANCH   5  24
TORSDOF 9
ENDMDL
