MODEL 1
REMARK VINA RESULT:      -6.1      0.000      0.000
REMARK  Name = 
REMARK  8 active torsions:
REMARK  status: ('A' for Active; 'I' for Inactive)
REMARK    1  A    between atoms: C_1  and  O_2
REMARK    2  A    between atoms: O_2  and  C_3
REMARK    3  A    between atoms: C_3  and  C_4
REMARK    4  A    between atoms: C_4  and  C_5
REMARK    5  A    between atoms: C_4  and  N_6
REMARK    6  A    between atoms: N_6  and  C_7
REMARK    7  A    between atoms: C_7  and  C_8
REMARK    8  A    between atoms: C_13  and  C_14
REMARK                            x       y       z     vdW  Elec       q    Type
REMARK                         _______ _______ _______ _____ _____    ______ ____
ROOT
ATOM      1  C   UNL     1       5.296   4.776  19.154  0.00  0.00    +0.000 C 
ENDROOT
BRANCH   1   2
ATOM      2  C   UNL     1       3.924   4.179  18.874  0.00  0.00    +0.000 A 
ATOM      3  C   UNL     1       3.034   4.912  18.063  0.00  0.00    +0.000 A 
ATOM      4  C   UNL     1       1.762   4.428  17.759  0.00  0.00    +0.000 A 
ATOM      5  C   UNL     1       1.353   3.198  18.263  0.00  0.00    +0.000 A 
ATOM      6  C   UNL     1       2.209   2.468  19.085  0.00  0.00    +0.000 A 
ATOM      7  C   UNL     1       3.491   2.949  19.412  0.00  0.00    +0.000 A 
ATOM      8  C   UNL     1       4.349   2.127  20.334  0.00  0.00    +0.000 C 
ENDBRANCH   1   2
BRANCH   1   9
ATOM      9  N   UNL     1       6.316   4.138  18.315  0.00  0.00    +0.000 NA
ATOM     10  H   UNL     1       6.745   3.397  18.871  0.00  0.00    +0.000 HD
BRANCH   9  11
ATOM     11  C   UNL     1       7.370   5.049  17.830  0.00  0.00    +0.000 C 
ATOM     12  C   UNL     1       7.859   6.018  18.912  0.00  0.00    +0.000 C 
BRANCH  11  13
ATOM     13  C   UNL     1       6.808   5.849  16.628  0.00  0.00    +0.000 C 
BRANCH  13  15
ATOM     14  C   UNL     1       6.750   4.532  14.676  0.00  0.00    +0.000 C 
ATOM     15  O   UNL     1       7.489   5.493  15.421  0.00  0.00    +0.000 OA
ENDBRANCH  13  15
ENDBRANCH  11  13
ENDBRANCH   9  11
ENDBRANCH   1   9
TORSDOF 5
ENDMDL
MODEL 2
REMARK VINA RESULT:      -6.1      1.529      2.871
REMARK  Name = 
REMARK  8 active torsions:
REMARK  status: ('A' for Active; 'I' for Inactive)
REMARK    1  A    between atoms: C_1  and  O_2
REMARK    2  A    between atoms: O_2  and  C_3
REMARK    3  A    between atoms: C_3  and  C_4
REMARK    4  A    between atoms: C_4  and  C_5
REMARK    5  A    between atoms: C_4  and  N_6
REMARK    6  A    between atoms: N_6  and  C_7
REMARK    7  A    between atoms: C_7  and  C_8
REMARK    8  A    between atoms: C_13  and  C_14
REMARK                            x       y       z     vdW  Elec       q    Type
REMARK                         _______ _______ _______ _____ _____    ______ ____
ROOT
ATOM      1  C   UNL     1       4.119   3.019  17.771  0.00  0.00    +0.000 C 
ENDROOT
BRANCH   1   2
ATOM      2  C   UNL     1       3.163   3.151  18.948  0.00  0.00    +0.000 A 
ATOM      3  C   UNL     1       3.550   2.596  20.184  0.00  0.00    +0.000 A 
ATOM      4  C   UNL     1       2.729   2.681  21.308  0.00  0.00    +0.000 A 
ATOM      5  C   UNL     1       1.500   3.324  21.217  0.00  0.00    +0.000 A 
ATOM      6  C   UNL     1       1.088   3.861  19.999  0.00  0.00    +0.000 A 
ATOM      7  C   UNL     1       1.899   3.771  18.852  0.00  0.00    +0.000 A 
ATOM      8  C   UNL     1       1.377   4.340  17.561  0.00  0.00    +0.000 C 
ENDBRANCH   1   2
BRANCH   1   9
ATOM      9  N   UNL     1       5.410   3.643  18.083  0.00  0.00    +0.000 NA
ATOM     10  H   UNL     1       5.431   3.807  19.090  0.00  0.00    +0.000 HD
BRANCH   9  11
ATOM     11  C   UNL     1       5.662   4.915  17.382  0.00  0.00    +0.000 C 
ATOM     12  C   UNL     1       5.205   4.887  15.919  0.00  0.00    +0.000 C 
BRANCH  11  13
ATOM     13  C   UNL     1       7.180   5.217  17.449  0.00  0.00    +0.000 C 
BRANCH  13  15
ATOM     14  C   UNL     1       7.560   7.541  17.510  0.00  0.00    +0.000 C 
ATOM     15  O   UNL     1       7.498   6.384  16.684  0.00  0.00    +0.000 OA
ENDBRANCH  13  15
ENDBRANCH  11  13
ENDBRANCH   9  11
ENDBRANCH   1   9
TORSDOF 5
ENDMDL
MODEL 3
REMARK VINA RESULT:      -5.9      0.921      2.011
REMARK  Name = 
REMARK  8 active torsions:
REMARK  status: ('A' for Active; 'I' for Inactive)
REMARK    1  A    between atoms: C_1  and  O_2
REMARK    2  A    between atoms: O_2  and  C_3
REMARK    3  A    between atoms: C_3  and  C_4
REMARK    4  A    between atoms: C_4  and  C_5
REMARK    5  A    between atoms: C_4  and  N_6
REMARK    6  A    between atoms: N_6  and  C_7
REMARK    7  A    between atoms: C_7  and  C_8
REMARK    8  A    between atoms: C_13  and  C_14
REMARK                            x       y       z     vdW  Elec       q    Type
REMARK                         _______ _______ _______ _____ _____    ______ ____
ROOT
ATOM      1  C   UNL     1       5.533   4.743  19.119  0.00  0.00    +0.000 C 
ENDROOT
BRANCH   1   2
ATOM      2  C   UNL     1       4.149   4.288  18.679  0.00  0.00    +0.000 A 
ATOM      3  C   UNL     1       3.859   2.909  18.719  0.00  0.00    +0.000 A 
ATOM      4  C   UNL     1       2.611   2.417  18.336  0.00  0.00    +0.000 A 
ATOM      5  C   UNL     1       1.627   3.297  17.901  0.00  0.00    +0.000 A 
ATOM      6  C   UNL     1       1.900   4.662  17.833  0.00  0.00    +0.000 A 
ATOM      7  C   UNL     1       3.158   5.173  18.203  0.00  0.00    +0.000 A 
ATOM      8  C   UNL     1       3.397   6.652  18.071  0.00  0.00    +0.000 C 
ENDBRANCH   1   2
BRANCH   1   9
ATOM      9  N   UNL     1       6.568   4.138  18.273  0.00  0.00    +0.000 NA
ATOM     10  H   UNL     1       7.220   3.654  18.891  0.00  0.00    +0.000 HD
BRANCH   9  11
ATOM     11  C   UNL     1       7.315   5.096  17.438  0.00  0.00    +0.000 C 
ATOM     12  C   UNL     1       7.570   6.430  18.148  0.00  0.00    +0.000 C 
BRANCH  11  13
ATOM     13  C   UNL     1       6.509   5.344  16.138  0.00  0.00    +0.000 C 
BRANCH  13  15
ATOM     14  C   UNL     1       6.313   3.969  14.236  0.00  0.00    +0.000 C 
ATOM     15  O   UNL     1       5.999   4.113  15.616  0.00  0.00    +0.000 OA
ENDBRANCH  13  15
ENDBRANCH  11  13
ENDBRANCH   9  11
ENDBRANCH   1   9
TORSDOF 5
ENDMDL
MODEL 4
REMARK VINA RESULT:      -5.9      1.671      2.709
REMARK  Name = 
REMARK  8 active torsions:
REMARK  status: ('A' for Active; 'I' for Inactive)
REMARK    1  A    between atoms: C_1  and  O_2
REMARK    2  A    between atoms: O_2  and  C_3
REMARK    3  A    between atoms: C_3  and  C_4
REMARK    4  A    between atoms: C_4  and  C_5
REMARK    5  A    between atoms: C_4  and  N_6
REMARK    6  A    between atoms: N_6  and  C_7
REMARK    7  A    between atoms: C_7  and  C_8
REMARK    8  A    between atoms: C_13  and  C_14
REMARK                            x       y       z     vdW  Elec       q    Type
REMARK                         _______ _______ _______ _____ _____    ______ ____
ROOT
ATOM      1  C   UNL     1       4.146   2.877  18.068  0.00  0.00    +0.000 C 
ENDROOT
BRANCH   1   2
ATOM      2  C   UNL     1       3.118   3.063  19.175  0.00  0.00    +0.000 A 
ATOM      3  C   UNL     1       3.397   2.509  20.441  0.00  0.00    +0.000 A 
ATOM      4  C   UNL     1       2.507   2.642  21.505  0.00  0.00    +0.000 A 
ATOM      5  C   UNL     1       1.314   3.334  21.324  0.00  0.00    +0.000 A 
ATOM      6  C   UNL     1       1.009   3.872  20.075  0.00  0.00    +0.000 A 
ATOM      7  C   UNL     1       1.891   3.734  18.987  0.00  0.00    +0.000 A 
ATOM      8  C   UNL     1       1.483   4.307  17.658  0.00  0.00    +0.000 C 
ENDBRANCH   1   2
BRANCH   1   9
ATOM      9  N   UNL     1       5.309   3.743  18.292  0.00  0.00    +0.000 NA
ATOM     10  H   UNL     1       5.191   4.176  19.209  0.00  0.00    +0.000 HD
BRANCH   9  11
ATOM     11  C   UNL     1       5.491   4.799  17.280  0.00  0.00    +0.000 C 
ATOM     12  C   UNL     1       4.763   6.099  17.640  0.00  0.00    +0.000 C 
BRANCH  11  13
ATOM     13  C   UNL     1       4.970   4.269  15.921  0.00  0.00    +0.000 C 
BRANCH  13  15
ATOM     14  C   UNL     1       7.087   4.752  15.009  0.00  0.00    +0.000 C 
ATOM     15  O   UNL     1       6.050   3.784  15.118  0.00  0.00    +0.000 OA
ENDBRANCH  13  15
ENDBRANCH  11  13
ENDBRANCH   9  11
ENDBRANCH   1   9
TORSDOF 5
ENDMDL
MODEL 5
REMARK VINA RESULT:      -5.8      1.537      1.862
REMARK  Name = 
REMARK  8 active torsions:
REMARK  status: ('A' for Active; 'I' for Inactive)
REMARK    1  A    between atoms: C_1  and  O_2
REMARK    2  A    between atoms: O_2  and  C_3
REMARK    3  A    between atoms: C_3  and  C_4
REMARK    4  A    between atoms: C_4  and  C_5
REMARK    5  A    between atoms: C_4  and  N_6
REMARK    6  A    between atoms: N_6  and  C_7
REMARK    7  A    between atoms: C_7  and  C_8
REMARK    8  A    between atoms: C_13  and  C_14
REMARK                            x       y       z     vdW  Elec       q    Type
REMARK                         _______ _______ _______ _____ _____    ______ ____
ROOT
ATOM      1  C   UNL     1       4.337   5.540  18.243  0.00  0.00    +0.000 C 
ENDROOT
BRANCH   1   2
ATOM      2  C   UNL     1       3.114   4.901  18.887  0.00  0.00    +0.000 A 
ATOM      3  C   UNL     1       2.683   5.400  20.133  0.00  0.00    +0.000 A 
ATOM      4  C   UNL     1       1.569   4.870  20.782  0.00  0.00    +0.000 A 
ATOM      5  C   UNL     1       0.863   3.825  20.197  0.00  0.00    +0.000 A 
ATOM      6  C   UNL     1       1.285   3.302  18.976  0.00  0.00    +0.000 A 
ATOM      7  C   UNL     1       2.415   3.818  18.315  0.00  0.00    +0.000 A 
ATOM      8  C   UNL     1       2.836   3.183  17.018  0.00  0.00    +0.000 C 
ENDBRANCH   1   2
BRANCH   1   9
ATOM      9  N   UNL     1       5.518   5.369  19.097  0.00  0.00    +0.000 NA
ATOM     10  H   UNL     1       5.592   6.203  19.680  0.00  0.00    +0.000 HD
BRANCH   9  11
ATOM     11  C   UNL     1       6.783   5.178  18.364  0.00  0.00    +0.000 C 
ATOM     12  C   UNL     1       7.538   6.491  18.131  0.00  0.00    +0.000 C 
BRANCH  11  13
ATOM     13  C   UNL     1       6.462   4.512  17.002  0.00  0.00    +0.000 C 
BRANCH  13  15
ATOM     14  C   UNL     1       7.030   4.822  14.738  0.00  0.00    +0.000 C 
ATOM     15  O   UNL     1       7.524   4.731  16.069  0.00  0.00    +0.000 OA
ENDBRANCH  13  15
ENDBRANCH  11  13
ENDBRANCH   9  11
ENDBRANCH   1   9
TORSDOF 5
ENDMDL
MODEL 6
REMARK VINA RESULT:      -5.7      1.436      2.057
REMARK  Name = 
REMARK  8 active torsions:
REMARK  status: ('A' for Active; 'I' for Inactive)
REMARK    1  A    between atoms: C_1  and  O_2
REMARK    2  A    between atoms: O_2  and  C_3
REMARK    3  A    between atoms: C_3  and  C_4
REMARK    4  A    between atoms: C_4  and  C_5
REMARK    5  A    between atoms: C_4  and  N_6
REMARK    6  A    between atoms: N_6  and  C_7
REMARK    7  A    between atoms: C_7  and  C_8
REMARK    8  A    between atoms: C_13  and  C_14
REMARK                            x       y       z     vdW  Elec       q    Type
REMARK                         _______ _______ _______ _____ _____    ______ ____
ROOT
ATOM      1  C   UNL     1       4.709   5.270  17.197  0.00  0.00    +0.000 C 
ENDROOT
BRANCH   1   2
ATOM      2  C   UNL     1       3.539   4.420  17.671  0.00  0.00    +0.000 A 
ATOM      3  C   UNL     1       3.569   3.037  17.398  0.00  0.00    +0.000 A 
ATOM      4  C   UNL     1       2.535   2.193  17.804  0.00  0.00    +0.000 A 
ATOM      5  C   UNL     1       1.447   2.718  18.493  0.00  0.00    +0.000 A 
ATOM      6  C   UNL     1       1.387   4.086  18.754  0.00  0.00    +0.000 A 
ATOM      7  C   UNL     1       2.416   4.952  18.339  0.00  0.00    +0.000 A 
ATOM      8  C   UNL     1       2.270   6.422  18.622  0.00  0.00    +0.000 C 
ENDBRANCH   1   2
BRANCH   1   9
ATOM      9  N   UNL     1       5.714   5.402  18.259  0.00  0.00    +0.000 NA
ATOM     10  H   UNL     1       5.475   6.234  18.800  0.00  0.00    +0.000 HD
BRANCH   9  11
ATOM     11  C   UNL     1       7.102   5.521  17.778  0.00  0.00    +0.000 C 
ATOM     12  C   UNL     1       7.487   6.962  17.425  0.00  0.00    +0.000 C 
BRANCH  11  13
ATOM     13  C   UNL     1       7.266   4.617  16.530  0.00  0.00    +0.000 C 
BRANCH  13  15
ATOM     14  C   UNL     1       6.954   4.845  14.207  0.00  0.00    +0.000 C 
ATOM     15  O   UNL     1       7.555   5.402  15.370  0.00  0.00    +0.000 OA
ENDBRANCH  13  15
ENDBRANCH  11  13
ENDBRANCH   9  11
ENDBRANCH   1   9
TORSDOF 5
ENDMDL
MODEL 7
REMARK VINA RESULT:      -5.7      1.761      2.801
REMARK  Name = 
REMARK  8 active torsions:
REMARK  status: ('A' for Active; 'I' for Inactive)
REMARK    1  A    between atoms: C_1  and  O_2
REMARK    2  A    between atoms: O_2  and  C_3
REMARK    3  A    between atoms: C_3  and  C_4
REMARK    4  A    between atoms: C_4  and  C_5
REMARK    5  A    between atoms: C_4  and  N_6
REMARK    6  A    between atoms: N_6  and  C_7
REMARK    7  A    between atoms: C_7  and  C_8
REMARK    8  A    between atoms: C_13  and  C_14
REMARK                            x       y       z     vdW  Elec       q    Type
REMARK                         _______ _______ _______ _____ _____    ______ ____
ROOT
ATOM      1  C   UNL     1       3.582   5.135  17.519  0.00  0.00    +0.000 C 
ENDROOT
BRANCH   1   2
ATOM      2  C   UNL     1       2.571   4.379  18.369  0.00  0.00    +0.000 A 
ATOM      3  C   UNL     1       2.181   3.091  17.950  0.00  0.00    +0.000 A 
ATOM      4  C   UNL     1       1.263   2.336  18.678  0.00  0.00    +0.000 A 
ATOM      5  C   UNL     1       0.713   2.856  19.845  0.00  0.00    +0.000 A 
ATOM      6  C   UNL     1       1.069   4.136  20.266  0.00  0.00    +0.000 A 
ATOM      7  C   UNL     1       1.984   4.916  19.534  0.00  0.00    +0.000 A 
ATOM      8  C   UNL     1       2.295   6.303  20.027  0.00  0.00    +0.000 C 
ENDBRANCH   1   2
BRANCH   1   9
ATOM      9  N   UNL     1       4.947   4.693  17.827  0.00  0.00    +0.000 NA
ATOM     10  H   UNL     1       5.114   4.890  18.815  0.00  0.00    +0.000 HD
BRANCH   9  11
ATOM     11  C   UNL     1       5.998   5.342  17.022  0.00  0.00    +0.000 C 
ATOM     12  C   UNL     1       5.653   5.399  15.530  0.00  0.00    +0.000 C 
BRANCH  11  13
ATOM     13  C   UNL     1       7.320   4.559  17.221  0.00  0.00    +0.000 C 
BRANCH  13  15
ATOM     14  C   UNL     1       7.898   6.118  18.890  0.00  0.00    +0.000 C 
ATOM     15  O   UNL     1       7.820   4.739  18.550  0.00  0.00    +0.000 OA
ENDBRANCH  13  15
ENDBRANCH  11  13
ENDBRANCH   9  11
ENDBRANCH   1   9
TORSDOF 5
ENDMDL
MODEL 8
REMARK VINA RESULT:      -5.7      1.618      1.985
REMARK  Name = 
REMARK  8 active torsions:
REMARK  status: ('A' for Active; 'I' for Inactive)
REMARK    1  A    between atoms: C_1  and  O_2
REMARK    2  A    between atoms: O_2  and  C_3
REMARK    3  A    between atoms: C_3  and  C_4
REMARK    4  A    between atoms: C_4  and  C_5
REMARK    5  A    between atoms: C_4  and  N_6
REMARK    6  A    between atoms: N_6  and  C_7
REMARK    7  A    between atoms: C_7  and  C_8
REMARK    8  A    between atoms: C_13  and  C_14
REMARK                            x       y       z     vdW  Elec       q    Type
REMARK                         _______ _______ _______ _____ _____    ______ ____
ROOT
ATOM      1  C   UNL     1       3.891   5.780  18.209  0.00  0.00    +0.000 C 
ENDROOT
BRANCH   1   2
ATOM      2  C   UNL     1       2.903   4.669  18.538  0.00  0.00    +0.000 A 
ATOM      3  C   UNL     1       2.902   3.518  17.725  0.00  0.00    +0.000 A 
ATOM      4  C   UNL     1       2.030   2.457  17.967  0.00  0.00    +0.000 A 
ATOM      5  C   UNL     1       1.136   2.528  19.030  0.00  0.00    +0.000 A 
ATOM      6  C   UNL     1       1.105   3.667  19.833  0.00  0.00    +0.000 A 
ATOM      7  C   UNL     1       1.970   4.751  19.593  0.00  0.00    +0.000 A 
ATOM      8  C   UNL     1       1.858   5.964  20.476  0.00  0.00    +0.000 C 
ENDBRANCH   1   2
BRANCH   1   9
ATOM      9  N   UNL     1       4.808   5.355  17.145  0.00  0.00    +0.000 NA
ATOM     10  H   UNL     1       4.593   4.380  16.931  0.00  0.00    +0.000 HD
BRANCH   9  11
ATOM     11  C   UNL     1       6.237   5.471  17.485  0.00  0.00    +0.000 C 
ATOM     12  C   UNL     1       6.746   6.916  17.428  0.00  0.00    +0.000 C 
BRANCH  11  13
ATOM     13  C   UNL     1       7.047   4.594  16.497  0.00  0.00    +0.000 C 
BRANCH  13  15
ATOM     14  C   UNL     1       6.885   4.764  14.154  0.00  0.00    +0.000 C 
ATOM     15  O   UNL     1       7.417   5.346  15.338  0.00  0.00    +0.000 OA
ENDBRANCH  13  15
ENDBRANCH  11  13
ENDBRANCH   9  11
ENDBRANCH   1   9
TORSDOF 5
ENDMDL
MODEL 9
REMARK VINA RESULT:      -5.7      2.724      5.357
REMARK  Name = 
REMARK  8 active torsions:
REMARK  status: ('A' for Active; 'I' for Inactive)
REMARK    1  A    between atoms: C_1  and  O_2
REMARK    2  A    between atoms: O_2  and  C_3
REMARK    3  A    between atoms: C_3  and  C_4
REMARK    4  A    between atoms: C_4  and  C_5
REMARK    5  A    between atoms: C_4  and  N_6
REMARK    6  A    between atoms: N_6  and  C_7
REMARK    7  A    between atoms: C_7  and  C_8
REMARK    8  A    between atoms: C_13  and  C_14
REMARK                            x       y       z     vdW  Elec       q    Type
REMARK                         _______ _______ _______ _____ _____    ______ ____
ROOT
ATOM      1  C   UNL     1       5.108   4.682  19.087  0.00  0.00    +0.000 C 
ENDROOT
BRANCH   1   2
ATOM      2  C   UNL     1       5.390   4.961  17.618  0.00  0.00    +0.000 A 
ATOM      3  C   UNL     1       6.288   4.111  16.941  0.00  0.00    +0.000 A 
ATOM      4  C   UNL     1       6.592   4.301  15.593  0.00  0.00    +0.000 A 
ATOM      5  C   UNL     1       6.003   5.349  14.894  0.00  0.00    +0.000 A 
ATOM      6  C   UNL     1       5.129   6.214  15.550  0.00  0.00    +0.000 A 
ATOM      7  C   UNL     1       4.823   6.044  16.914  0.00  0.00    +0.000 A 
ATOM      8  C   UNL     1       3.900   7.035  17.568  0.00  0.00    +0.000 C 
ENDBRANCH   1   2
BRANCH   1   9
ATOM      9  N   UNL     1       5.205   3.244  19.367  0.00  0.00    +0.000 NA
ATOM     10  H   UNL     1       5.660   2.810  18.564  0.00  0.00    +0.000 HD
BRANCH   9  11
ATOM     11  C   UNL     1       3.911   2.578  19.607  0.00  0.00    +0.000 C 
ATOM     12  C   UNL     1       3.457   1.719  18.421  0.00  0.00    +0.000 C 
BRANCH  11  13
ATOM     13  C   UNL     1       2.848   3.666  19.900  0.00  0.00    +0.000 C 
BRANCH  13  15
ATOM     14  C   UNL     1       1.506   2.666  21.557  0.00  0.00    +0.000 C 
ATOM     15  O   UNL     1       2.486   3.661  21.284  0.00  0.00    +0.000 OA
ENDBRANCH  13  15
ENDBRANCH  11  13
ENDBRANCH   9  11
ENDBRANCH   1   9
TORSDOF 5
ENDMDL
