MODEL 1
REMARK VINA RESULT:      -8.9      0.000      0.000
REMARK  Name = 
REMARK  6 active torsions:
REMARK  status: ('A' for Active; 'I' for Inactive)
REMARK    1  A    between atoms: N_9  and  C_10
REMARK    2  A    between atoms: C_10  and  C_11
REMARK    3  A    between atoms: C_11  and  C_12
REMARK    4  A    between atoms: C_12  and  N_13
REMARK    5  A    between atoms: C_15  and  C_16
REMARK    6  A    between atoms: C_16  and  N_17
REMARK                            x       y       z     vdW  Elec       q    Type
REMARK                         _______ _______ _______ _____ _____    ______ ____
ROOT
ATOM      1  N   UNL     1       2.476   3.123  18.827  0.00  0.00    +0.000 N 
ATOM      2  C   UNL     1       3.831   3.190  18.715  0.00  0.00    +0.000 A 
ATOM      3  C   UNL     1       4.047   3.345  17.361  0.00  0.00    +0.000 A 
ATOM      4  N   UNL     1       2.836   3.380  16.719  0.00  0.00    +0.000 NA
ATOM      5  N   UNL     1       1.881   3.245  17.630  0.00  0.00    +0.000 NA
ENDROOT
BRANCH   1   6
ATOM      6  C   UNL     1       1.697   2.854  20.017  0.00  0.00    +0.000 C 
BRANCH   6   7
ATOM      7  C   UNL     1       1.012   4.092  20.605  0.00  0.00    +0.000 C 
BRANCH   7   8
ATOM      8  C   UNL     1       2.007   5.122  21.144  0.00  0.00    +0.000 C 
BRANCH   8  17
ATOM      9  N   UNL     1      -0.657   9.369  22.934  0.00  0.00    +0.000 N 
ATOM     10  C   UNL     1       0.079   9.003  21.829  0.00  0.00    +0.000 A 
ATOM     11  N   UNL     1       0.234   9.940  20.889  0.00  0.00    +0.000 NA
ATOM     12  C   UNL     1       0.989   9.623  19.818  0.00  0.00    +0.000 A 
ATOM     13 CL   UNL     1       1.233  10.797  18.619  0.00  0.00    +0.000 Cl
ATOM     14  C   UNL     1       1.583   8.381  19.677  0.00  0.00    +0.000 A 
ATOM     15  N   UNL     1       2.398   7.787  18.737  0.00  0.00    +0.000 NA
ATOM     16  C   UNL     1       2.626   6.578  19.196  0.00  0.00    +0.000 A 
ATOM     17  N   UNL     1       1.980   6.355  20.387  0.00  0.00    +0.000 N 
ATOM     18  C   UNL     1       1.310   7.501  20.713  0.00  0.00    +0.000 A 
ATOM     19  N   UNL     1       0.559   7.744  21.805  0.00  0.00    +0.000 NA
ATOM     20  H   UNL     1      -1.245  10.164  22.726  0.00  0.00    +0.000 HD
ATOM     21  H   UNL     1      -1.076   8.577  23.396  0.00  0.00    +0.000 HD
ENDBRANCH   8  17
ENDBRANCH   7   8
ENDBRANCH   6   7
ENDBRANCH   1   6
BRANCH   3  22
ATOM     22  C   UNL     1       5.319   3.432  16.603  0.00  0.00    +0.000 C 
BRANCH  22  23
ATOM     23  N   UNL     1       5.796   4.796  16.562  0.00  0.00    +0.000 N 
ATOM     24  C   UNL     1       5.431   5.755  15.656  0.00  0.00    +0.000 A 
ATOM     25  N   UNL     1       6.036   6.902  15.892  0.00  0.00    +0.000 NA
ATOM     26  C   UNL     1       6.799   6.680  17.018  0.00  0.00    +0.000 A 
ATOM     27  C   UNL     1       7.625   7.453  17.818  0.00  0.00    +0.000 A 
ATOM     28 CL   UNL     1       7.831   9.094  17.448  0.00  0.00    +0.000 Cl
ATOM     29  N   UNL     1       8.230   6.954  18.912  0.00  0.00    +0.000 NA
ATOM     30  C   UNL     1       8.007   5.667  19.206  0.00  0.00    +0.000 A 
ATOM     31  N   UNL     1       8.583   5.191  20.364  0.00  0.00    +0.000 N 
ATOM     32  N   UNL     1       7.273   4.794  18.496  0.00  0.00    +0.000 NA
ATOM     33  C   UNL     1       6.681   5.365  17.434  0.00  0.00    +0.000 A 
ATOM     34  H   UNL     1       9.362   5.774  20.642  0.00  0.00    +0.000 HD
ATOM     35  H   UNL     1       8.735   4.194  20.319  0.00  0.00    +0.000 HD
ENDBRANCH  22  23
ENDBRANCH   3  22
TORSDOF 6
ENDMDL
MODEL 2
REMARK VINA RESULT:      -8.2      4.897      8.036
REMARK  Name = 
REMARK  6 active torsions:
REMARK  status: ('A' for Active; 'I' for Inactive)
REMARK    1  A    between atoms: N_9  and  C_10
REMARK    2  A    between atoms: C_10  and  C_11
REMARK    3  A    between atoms: C_11  and  C_12
REMARK    4  A    between atoms: C_12  and  N_13
REMARK    5  A    between atoms: C_15  and  C_16
REMARK    6  A    between atoms: C_16  and  N_17
REMARK                            x       y       z     vdW  Elec       q    Type
REMARK                         _______ _______ _______ _____ _____    ______ ____
ROOT
ATOM      1  N   UNL     1       7.673   8.001  17.913  0.00  0.00    +0.000 N 
ATOM      2  C   UNL     1       6.669   7.468  17.164  0.00  0.00    +0.000 A 
ATOM      3  C   UNL     1       6.658   6.135  17.521  0.00  0.00    +0.000 A 
ATOM      4  N   UNL     1       7.627   5.921  18.466  0.00  0.00    +0.000 NA
ATOM      5  N   UNL     1       8.241   7.073  18.699  0.00  0.00    +0.000 NA
ENDROOT
BRANCH   1   6
ATOM      6  C   UNL     1       8.197   9.349  17.861  0.00  0.00    +0.000 C 
BRANCH   6   7
ATOM      7  C   UNL     1       9.284   9.635  18.903  0.00  0.00    +0.000 C 
BRANCH   7   8
ATOM      8  C   UNL     1       9.123  11.005  19.568  0.00  0.00    +0.000 C 
BRANCH   8  17
ATOM      9  N   UNL     1       7.308  16.009  19.690  0.00  0.00    +0.000 N 
ATOM     10  C   UNL     1       8.310  15.288  19.077  0.00  0.00    +0.000 A 
ATOM     11  N   UNL     1       9.123  15.979  18.272  0.00  0.00    +0.000 NA
ATOM     12  C   UNL     1      10.140  15.307  17.696  0.00  0.00    +0.000 A 
ATOM     13 CL   UNL     1      11.210  16.157  16.692  0.00  0.00    +0.000 Cl
ATOM     14  C   UNL     1      10.346  13.957  17.911  0.00  0.00    +0.000 A 
ATOM     15  N   UNL     1      11.276  13.029  17.492  0.00  0.00    +0.000 NA
ATOM     16  C   UNL     1      10.920  11.902  18.064  0.00  0.00    +0.000 A 
ATOM     17  N   UNL     1       9.787  12.054  18.826  0.00  0.00    +0.000 N 
ATOM     18  C   UNL     1       9.407  13.365  18.742  0.00  0.00    +0.000 A 
ATOM     19  N   UNL     1       8.363  13.968  19.343  0.00  0.00    +0.000 NA
ATOM     20  H   UNL     1       7.129  16.868  19.192  0.00  0.00    +0.000 HD
ATOM     21  H   UNL     1       6.520  15.432  19.942  0.00  0.00    +0.000 HD
ENDBRANCH   8  17
ENDBRANCH   7   8
ENDBRANCH   6   7
ENDBRANCH   1   6
BRANCH   3  22
ATOM     22  C   UNL     1       5.820   5.021  17.017  0.00  0.00    +0.000 C 
BRANCH  22  23
ATOM     23  N   UNL     1       4.590   4.926  17.772  0.00  0.00    +0.000 N 
ATOM     24  C   UNL     1       3.469   5.691  17.594  0.00  0.00    +0.000 A 
ATOM     25  N   UNL     1       2.512   5.356  18.436  0.00  0.00    +0.000 NA
ATOM     26  C   UNL     1       3.029   4.307  19.167  0.00  0.00    +0.000 A 
ATOM     27  C   UNL     1       2.553   3.468  20.160  0.00  0.00    +0.000 A 
ATOM     28 CL   UNL     1       0.957   3.652  20.701  0.00  0.00    +0.000 Cl
ATOM     29  N   UNL     1       3.301   2.475  20.676  0.00  0.00    +0.000 NA
ATOM     30  C   UNL     1       4.541   2.323  20.193  0.00  0.00    +0.000 A 
ATOM     31  N   UNL     1       5.269   1.263  20.688  0.00  0.00    +0.000 N 
ATOM     32  N   UNL     1       5.145   3.090  19.270  0.00  0.00    +0.000 NA
ATOM     33  C   UNL     1       4.333   4.043  18.783  0.00  0.00    +0.000 A 
ATOM     34  H   UNL     1       4.900   0.961  21.580  0.00  0.00    +0.000 HD
ATOM     35  H   UNL     1       6.261   1.434  20.622  0.00  0.00    +0.000 HD
ENDBRANCH  22  23
ENDBRANCH   3  22
TORSDOF 6
ENDMDL
MODEL 3
REMARK VINA RESULT:      -8.2      1.579      2.385
REMARK  Name = 
REMARK  6 active torsions:
REMARK  status: ('A' for Active; 'I' for Inactive)
REMARK    1  A    between atoms: N_9  and  C_10
REMARK    2  A    between atoms: C_10  and  C_11
REMARK    3  A    between atoms: C_11  and  C_12
REMARK    4  A    between atoms: C_12  and  N_13
REMARK    5  A    between atoms: C_15  and  C_16
REMARK    6  A    between atoms: C_16  and  N_17
REMARK                            x       y       z     vdW  Elec       q    Type
REMARK                         _______ _______ _______ _____ _____    ______ ____
ROOT
ATOM      1  N   UNL     1       2.126   4.231  19.281  0.00  0.00    +0.000 N 
ATOM      2  C   UNL     1       2.923   4.746  18.306  0.00  0.00    +0.000 A 
ATOM      3  C   UNL     1       3.750   3.697  17.962  0.00  0.00    +0.000 A 
ATOM      4  N   UNL     1       3.417   2.603  18.718  0.00  0.00    +0.000 NA
ATOM      5  N   UNL     1       2.418   2.943  19.521  0.00  0.00    +0.000 NA
ENDROOT
BRANCH   1   6
ATOM      6  C   UNL     1       1.140   4.928  20.080  0.00  0.00    +0.000 C 
BRANCH   6   7
ATOM      7  C   UNL     1       1.706   6.106  20.880  0.00  0.00    +0.000 C 
BRANCH   7   8
ATOM      8  C   UNL     1       1.793   7.395  20.058  0.00  0.00    +0.000 C 
BRANCH   8  17
ATOM      9  N   UNL     1      -1.097  11.120  17.586  0.00  0.00    +0.000 N 
ATOM     10  C   UNL     1      -0.581  10.877  18.841  0.00  0.00    +0.000 A 
ATOM     11  N   UNL     1      -0.859  11.788  19.777  0.00  0.00    +0.000 NA
ATOM     12  C   UNL     1      -0.406  11.552  21.025  0.00  0.00    +0.000 A 
ATOM     13 CL   UNL     1      -0.764  12.672  22.246  0.00  0.00    +0.000 Cl
ATOM     14  C   UNL     1       0.324  10.420  21.340  0.00  0.00    +0.000 A 
ATOM     15  N   UNL     1       0.889   9.908  22.489  0.00  0.00    +0.000 NA
ATOM     16  C   UNL     1       1.447   8.777  22.123  0.00  0.00    +0.000 A 
ATOM     17  N   UNL     1       1.282   8.539  20.781  0.00  0.00    +0.000 N 
ATOM     18  C   UNL     1       0.562   9.580  20.263  0.00  0.00    +0.000 A 
ATOM     19  N   UNL     1       0.151   9.756  18.993  0.00  0.00    +0.000 NA
ATOM     20  H   UNL     1      -1.320  12.098  17.474  0.00  0.00    +0.000 HD
ATOM     21  H   UNL     1      -0.566  10.667  16.859  0.00  0.00    +0.000 HD
ENDBRANCH   8  17
ENDBRANCH   7   8
ENDBRANCH   6   7
ENDBRANCH   1   6
BRANCH   3  22
ATOM     22  C   UNL     1       4.868   3.644  16.988  0.00  0.00    +0.000 C 
BRANCH  22  23
ATOM     23  N   UNL     1       5.493   4.942  16.860  0.00  0.00    +0.000 N 
ATOM     24  C   UNL     1       5.200   5.893  15.921  0.00  0.00    +0.000 A 
ATOM     25  N   UNL     1       5.940   6.973  16.074  0.00  0.00    +0.000 NA
ATOM     26  C   UNL     1       6.722   6.717  17.180  0.00  0.00    +0.000 A 
ATOM     27  C   UNL     1       7.664   7.426  17.907  0.00  0.00    +0.000 A 
ATOM     28 CL   UNL     1       8.038   9.014  17.447  0.00  0.00    +0.000 Cl
ATOM     29  N   UNL     1       8.256   6.913  19.002  0.00  0.00    +0.000 NA
ATOM     30  C   UNL     1       7.902   5.674  19.370  0.00  0.00    +0.000 A 
ATOM     31  N   UNL     1       8.471   5.189  20.527  0.00  0.00    +0.000 N 
ATOM     32  N   UNL     1       7.044   4.859  18.734  0.00  0.00    +0.000 NA
ATOM     33  C   UNL     1       6.475   5.445  17.667  0.00  0.00    +0.000 A 
ATOM     34  H   UNL     1       9.322   5.692  20.745  0.00  0.00    +0.000 HD
ATOM     35  H   UNL     1       8.508   4.181  20.527  0.00  0.00    +0.000 HD
ENDBRANCH  22  23
ENDBRANCH   3  22
TORSDOF 6
ENDMDL
MODEL 4
REMARK VINA RESULT:      -8.1      4.781      8.096
REMARK  Name = 
REMARK  6 active torsions:
REMARK  status: ('A' for Active; 'I' for Inactive)
REMARK    1  A    between atoms: N_9  and  C_10
REMARK    2  A    between atoms: C_10  and  C_11
REMARK    3  A    between atoms: C_11  and  C_12
REMARK    4  A    between atoms: C_12  and  N_13
REMARK    5  A    between atoms: C_15  and  C_16
REMARK    6  A    between atoms: C_16  and  N_17
REMARK                            x       y       z     vdW  Elec       q    Type
REMARK                         _______ _______ _______ _____ _____    ______ ____
ROOT
ATOM      1  N   UNL     1       7.201   7.466  17.667  0.00  0.00    +0.000 N 
ATOM      2  C   UNL     1       6.120   6.870  17.094  0.00  0.00    +0.000 A 
ATOM      3  C   UNL     1       6.263   5.536  17.417  0.00  0.00    +0.000 A 
ATOM      4  N   UNL     1       7.395   5.382  18.174  0.00  0.00    +0.000 NA
ATOM      5  N   UNL     1       7.960   6.573  18.322  0.00  0.00    +0.000 NA
ENDROOT
BRANCH   1   6
ATOM      6  C   UNL     1       7.614   8.848  17.555  0.00  0.00    +0.000 C 
BRANCH   6   7
ATOM      7  C   UNL     1       8.609   9.291  18.633  0.00  0.00    +0.000 C 
BRANCH   7   8
ATOM      8  C   UNL     1       9.454  10.493  18.204  0.00  0.00    +0.000 C 
BRANCH   8  17
ATOM      9  N   UNL     1      10.257  15.650  17.157  0.00  0.00    +0.000 N 
ATOM     10  C   UNL     1      10.186  14.818  18.253  0.00  0.00    +0.000 A 
ATOM     11  N   UNL     1      10.334  15.402  19.446  0.00  0.00    +0.000 NA
ATOM     12  C   UNL     1      10.223  14.618  20.537  0.00  0.00    +0.000 A 
ATOM     13 CL   UNL     1      10.374  15.330  22.068  0.00  0.00    +0.000 Cl
ATOM     14  C   UNL     1       9.973  13.261  20.445  0.00  0.00    +0.000 A 
ATOM     15  N   UNL     1       9.794  12.235  21.349  0.00  0.00    +0.000 NA
ATOM     16  C   UNL     1       9.580  11.166  20.618  0.00  0.00    +0.000 A 
ATOM     17  N   UNL     1       9.627  11.450  19.275  0.00  0.00    +0.000 N 
ATOM     18  C   UNL     1       9.874  12.788  19.145  0.00  0.00    +0.000 A 
ATOM     19  N   UNL     1       9.984  13.507  18.012  0.00  0.00    +0.000 NA
ATOM     20  H   UNL     1      10.736  16.508  17.389  0.00  0.00    +0.000 HD
ATOM     21  H   UNL     1      10.537  15.161  16.321  0.00  0.00    +0.000 HD
ENDBRANCH   8  17
ENDBRANCH   7   8
ENDBRANCH   6   7
ENDBRANCH   1   6
BRANCH   3  22
ATOM     22  C   UNL     1       5.428   4.370  17.042  0.00  0.00    +0.000 C 
BRANCH  22  23
ATOM     23  N   UNL     1       4.265   4.279  17.898  0.00  0.00    +0.000 N 
ATOM     24  C   UNL     1       3.061   4.898  17.696  0.00  0.00    +0.000 A 
ATOM     25  N   UNL     1       2.200   4.610  18.651  0.00  0.00    +0.000 NA
ATOM     26  C   UNL     1       2.870   3.743  19.488  0.00  0.00    +0.000 A 
ATOM     27  C   UNL     1       2.548   3.030  20.631  0.00  0.00    +0.000 A 
ATOM     28 CL   UNL     1       0.979   3.145  21.261  0.00  0.00    +0.000 Cl
ATOM     29  N   UNL     1       3.428   2.205  21.230  0.00  0.00    +0.000 NA
ATOM     30  C   UNL     1       4.644   2.097  20.678  0.00  0.00    +0.000 A 
ATOM     31  N   UNL     1       5.510   1.201  21.268  0.00  0.00    +0.000 N 
ATOM     32  N   UNL     1       5.104   2.762  19.606  0.00  0.00    +0.000 NA
ATOM     33  C   UNL     1       4.167   3.546  19.047  0.00  0.00    +0.000 A 
ATOM     34  H   UNL     1       5.232   1.010  22.222  0.00  0.00    +0.000 HD
ATOM     35  H   UNL     1       6.472   1.453  21.100  0.00  0.00    +0.000 HD
ENDBRANCH  22  23
ENDBRANCH   3  22
TORSDOF 6
ENDMDL
MODEL 5
REMARK VINA RESULT:      -8.1      3.636      5.463
REMARK  Name = 
REMARK  6 active torsions:
REMARK  status: ('A' for Active; 'I' for Inactive)
REMARK    1  A    between atoms: N_9  and  C_10
REMARK    2  A    between atoms: C_10  and  C_11
REMARK    3  A    between atoms: C_11  and  C_12
REMARK    4  A    between atoms: C_12  and  N_13
REMARK    5  A    between atoms: C_15  and  C_16
REMARK    6  A    between atoms: C_16  and  N_17
REMARK                            x       y       z     vdW  Elec       q    Type
REMARK                         _______ _______ _______ _____ _____    ______ ____
ROOT
ATOM      1  N   UNL     1       1.667   8.356  19.254  0.00  0.00    +0.000 N 
ATOM      2  C   UNL     1       2.417   7.325  18.777  0.00  0.00    +0.000 A 
ATOM      3  C   UNL     1       2.420   6.409  19.809  0.00  0.00    +0.000 A 
ATOM      4  N   UNL     1       1.672   6.905  20.845  0.00  0.00    +0.000 NA
ATOM      5  N   UNL     1       1.215   8.099  20.491  0.00  0.00    +0.000 NA
ENDROOT
BRANCH   1   6
ATOM      6  C   UNL     1       1.421   9.637  18.628  0.00  0.00    +0.000 C 
BRANCH   6   7
ATOM      7  C   UNL     1       0.615  10.610  19.495  0.00  0.00    +0.000 C 
BRANCH   7   8
ATOM      8  C   UNL     1       0.037  11.780  18.694  0.00  0.00    +0.000 C 
BRANCH   8  17
ATOM      9  N   UNL     1      -2.903  10.160  14.562  0.00  0.00    +0.000 N 
ATOM     10  C   UNL     1      -3.092  10.707  15.813  0.00  0.00    +0.000 A 
ATOM     11  N   UNL     1      -4.361  10.904  16.183  0.00  0.00    +0.000 NA
ATOM     12  C   UNL     1      -4.576  11.394  17.420  0.00  0.00    +0.000 A 
ATOM     13 CL   UNL     1      -6.174  11.629  17.935  0.00  0.00    +0.000 Cl
ATOM     14  C   UNL     1      -3.538  11.695  18.283  0.00  0.00    +0.000 A 
ATOM     15  N   UNL     1      -3.444  12.175  19.572  0.00  0.00    +0.000 NA
ATOM     16  C   UNL     1      -2.157  12.230  19.826  0.00  0.00    +0.000 A 
ATOM     17  N   UNL     1      -1.409  11.819  18.750  0.00  0.00    +0.000 N 
ATOM     18  C   UNL     1      -2.276  11.469  17.753  0.00  0.00    +0.000 A 
ATOM     19  N   UNL     1      -1.986  10.993  16.528  0.00  0.00    +0.000 NA
ATOM     20  H   UNL     1      -3.719  10.298  13.984  0.00  0.00    +0.000 HD
ATOM     21  H   UNL     1      -2.002  10.392  14.174  0.00  0.00    +0.000 HD
ENDBRANCH   8  17
ENDBRANCH   7   8
ENDBRANCH   6   7
ENDBRANCH   1   6
BRANCH   3  22
ATOM     22  C   UNL     1       3.104   5.098  19.916  0.00  0.00    +0.000 C 
BRANCH  22  23
ATOM     23  N   UNL     1       3.791   4.779  18.684  0.00  0.00    +0.000 N 
ATOM     24  C   UNL     1       3.218   4.299  17.538  0.00  0.00    +0.000 A 
ATOM     25  N   UNL     1       4.111   4.116  16.587  0.00  0.00    +0.000 NA
ATOM     26  C   UNL     1       5.308   4.527  17.135  0.00  0.00    +0.000 A 
ATOM     27  C   UNL     1       6.610   4.648  16.681  0.00  0.00    +0.000 A 
ATOM     28 CL   UNL     1       6.966   4.240  15.075  0.00  0.00    +0.000 Cl
ATOM     29  N   UNL     1       7.597   5.130  17.461  0.00  0.00    +0.000 NA
ATOM     30  C   UNL     1       7.274   5.491  18.709  0.00  0.00    +0.000 A 
ATOM     31  N   UNL     1       8.282   6.040  19.471  0.00  0.00    +0.000 N 
ATOM     32  N   UNL     1       6.069   5.382  19.293  0.00  0.00    +0.000 NA
ATOM     33  C   UNL     1       5.131   4.918  18.451  0.00  0.00    +0.000 A 
ATOM     34  H   UNL     1       9.189   5.780  19.106  0.00  0.00    +0.000 HD
ATOM     35  H   UNL     1       8.116   5.905  20.457  0.00  0.00    +0.000 HD
ENDBRANCH  22  23
ENDBRANCH   3  22
TORSDOF 6
ENDMDL
MODEL 6
REMARK VINA RESULT:      -8.0      3.522      9.116
REMARK  Name = 
REMARK  6 active torsions:
REMARK  status: ('A' for Active; 'I' for Inactive)
REMARK    1  A    between atoms: N_9  and  C_10
REMARK    2  A    between atoms: C_10  and  C_11
REMARK    3  A    between atoms: C_11  and  C_12
REMARK    4  A    between atoms: C_12  and  N_13
REMARK    5  A    between atoms: C_15  and  C_16
REMARK    6  A    between atoms: C_16  and  N_17
REMARK                            x       y       z     vdW  Elec       q    Type
REMARK                         _______ _______ _______ _____ _____    ______ ____
ROOT
ATOM      1  N   UNL     1       1.839   8.603  18.867  0.00  0.00    +0.000 N 
ATOM      2  C   UNL     1       1.669   9.746  18.147  0.00  0.00    +0.000 A 
ATOM      3  C   UNL     1       0.945  10.566  18.987  0.00  0.00    +0.000 A 
ATOM      4  N   UNL     1       0.722   9.906  20.167  0.00  0.00    +0.000 NA
ATOM      5  N   UNL     1       1.277   8.704  20.081  0.00  0.00    +0.000 NA
ENDROOT
BRANCH   1   6
ATOM      6  C   UNL     1       2.439   7.361  18.429  0.00  0.00    +0.000 C 
BRANCH   6   7
ATOM      7  C   UNL     1       2.347   6.229  19.458  0.00  0.00    +0.000 C 
BRANCH   7   8
ATOM      8  C   UNL     1       3.676   5.493  19.652  0.00  0.00    +0.000 C 
BRANCH   8  17
ATOM      9  N   UNL     1       7.838   7.690  17.164  0.00  0.00    +0.000 N 
ATOM     10  C   UNL     1       6.948   6.655  16.972  0.00  0.00    +0.000 A 
ATOM     11  N   UNL     1       7.125   5.925  15.866  0.00  0.00    +0.000 NA
ATOM     12  C   UNL     1       6.297   4.878  15.677  0.00  0.00    +0.000 A 
ATOM     13 CL   UNL     1       6.510   3.912  14.301  0.00  0.00    +0.000 Cl
ATOM     14  C   UNL     1       5.295   4.560  16.577  0.00  0.00    +0.000 A 
ATOM     15  N   UNL     1       4.336   3.574  16.665  0.00  0.00    +0.000 NA
ATOM     16  C   UNL     1       3.689   3.822  17.781  0.00  0.00    +0.000 A 
ATOM     17  N   UNL     1       4.178   4.938  18.415  0.00  0.00    +0.000 N 
ATOM     18  C   UNL     1       5.211   5.422  17.660  0.00  0.00    +0.000 A 
ATOM     19  N   UNL     1       5.993   6.490  17.908  0.00  0.00    +0.000 NA
ATOM     20  H   UNL     1       8.276   7.952  16.293  0.00  0.00    +0.000 HD
ATOM     21  H   UNL     1       7.456   8.421  17.743  0.00  0.00    +0.000 HD
ENDBRANCH   8  17
ENDBRANCH   7   8
ENDBRANCH   6   7
ENDBRANCH   1   6
BRANCH   3  22
ATOM     22  C   UNL     1       0.408  11.929  18.758  0.00  0.00    +0.000 C 
BRANCH  22  23
ATOM     23  N   UNL     1      -1.010  11.971  19.036  0.00  0.00    +0.000 N 
ATOM     24  C   UNL     1      -1.596  12.401  20.195  0.00  0.00    +0.000 A 
ATOM     25  N   UNL     1      -2.910  12.324  20.135  0.00  0.00    +0.000 NA
ATOM     26  C   UNL     1      -3.183  11.853  18.868  0.00  0.00    +0.000 A 
ATOM     27  C   UNL     1      -4.332  11.593  18.139  0.00  0.00    +0.000 A 
ATOM     28 CL   UNL     1      -5.843  11.890  18.846  0.00  0.00    +0.000 Cl
ATOM     29  N   UNL     1      -4.286  11.158  16.865  0.00  0.00    +0.000 NA
ATOM     30  C   UNL     1      -3.077  10.980  16.318  0.00  0.00    +0.000 A 
ATOM     31  N   UNL     1      -3.050  10.596  14.995  0.00  0.00    +0.000 N 
ATOM     32  N   UNL     1      -1.888  11.147  16.921  0.00  0.00    +0.000 NA
ATOM     33  C   UNL     1      -2.010  11.603  18.178  0.00  0.00    +0.000 A 
ATOM     34  H   UNL     1      -3.930  10.175  14.727  0.00  0.00    +0.000 HD
ATOM     35  H   UNL     1      -2.203  10.096  14.772  0.00  0.00    +0.000 HD
ENDBRANCH  22  23
ENDBRANCH   3  22
TORSDOF 6
ENDMDL
MODEL 7
REMARK VINA RESULT:      -8.0      1.435      2.252
REMARK  Name = 
REMARK  6 active torsions:
REMARK  status: ('A' for Active; 'I' for Inactive)
REMARK    1  A    between atoms: N_9  and  C_10
REMARK    2  A    between atoms: C_10  and  C_11
REMARK    3  A    between atoms: C_11  and  C_12
REMARK    4  A    between atoms: C_12  and  N_13
REMARK    5  A    between atoms: C_15  and  C_16
REMARK    6  A    between atoms: C_16  and  N_17
REMARK                            x       y       z     vdW  Elec       q    Type
REMARK                         _______ _______ _______ _____ _____    ______ ____
ROOT
ATOM      1  N   UNL     1       2.036   4.072  18.989  0.00  0.00    +0.000 N 
ATOM      2  C   UNL     1       3.343   4.385  18.772  0.00  0.00    +0.000 A 
ATOM      3  C   UNL     1       3.657   3.717  17.605  0.00  0.00    +0.000 A 
ATOM      4  N   UNL     1       2.544   3.052  17.162  0.00  0.00    +0.000 NA
ATOM      5  N   UNL     1       1.556   3.279  18.019  0.00  0.00    +0.000 NA
ENDROOT
BRANCH   1   6
ATOM      6  C   UNL     1       1.222   4.415  20.135  0.00  0.00    +0.000 C 
BRANCH   6   7
ATOM      7  C   UNL     1       1.685   5.675  20.874  0.00  0.00    +0.000 C 
BRANCH   7   8
ATOM      8  C   UNL     1       1.727   6.912  19.972  0.00  0.00    +0.000 C 
BRANCH   8  17
ATOM      9  N   UNL     1       2.048  11.738  17.750  0.00  0.00    +0.000 N 
ATOM     10  C   UNL     1       1.509  11.153  18.875  0.00  0.00    +0.000 A 
ATOM     11  N   UNL     1       0.835  11.966  19.695  0.00  0.00    +0.000 NA
ATOM     12  C   UNL     1       0.258  11.411  20.779  0.00  0.00    +0.000 A 
ATOM     13 CL   UNL     1      -0.630  12.405  21.826  0.00  0.00    +0.000 Cl
ATOM     14  C   UNL     1       0.355  10.058  21.053  0.00  0.00    +0.000 A 
ATOM     15  N   UNL     1      -0.125   9.222  22.039  0.00  0.00    +0.000 NA
ATOM     16  C   UNL     1       0.317   8.027  21.722  0.00  0.00    +0.000 A 
ATOM     17  N   UNL     1       1.077   8.053  20.579  0.00  0.00    +0.000 N 
ATOM     18  C   UNL     1       1.109   9.345  20.134  0.00  0.00    +0.000 A 
ATOM     19  N   UNL     1       1.721   9.833  19.038  0.00  0.00    +0.000 NA
ATOM     20  H   UNL     1       2.143  12.736  17.875  0.00  0.00    +0.000 HD
ATOM     21  H   UNL     1       2.840  11.227  17.394  0.00  0.00    +0.000 HD
ENDBRANCH   8  17
ENDBRANCH   7   8
ENDBRANCH   6   7
ENDBRANCH   1   6
BRANCH   3  22
ATOM     22  C   UNL     1       4.945   3.625  16.878  0.00  0.00    +0.000 C 
BRANCH  22  23
ATOM     23  N   UNL     1       5.558   4.930  16.758  0.00  0.00    +0.000 N 
ATOM     24  C   UNL     1       5.273   5.875  15.810  0.00  0.00    +0.000 A 
ATOM     25  N   UNL     1       5.996   6.964  15.975  0.00  0.00    +0.000 NA
ATOM     26  C   UNL     1       6.757   6.721  17.099  0.00  0.00    +0.000 A 
ATOM     27  C   UNL     1       7.674   7.444  17.843  0.00  0.00    +0.000 A 
ATOM     28 CL   UNL     1       8.039   9.035  17.385  0.00  0.00    +0.000 Cl
ATOM     29  N   UNL     1       8.250   6.941  18.952  0.00  0.00    +0.000 NA
ATOM     30  C   UNL     1       7.904   5.700  19.316  0.00  0.00    +0.000 A 
ATOM     31  N   UNL     1       8.454   5.226  20.487  0.00  0.00    +0.000 N 
ATOM     32  N   UNL     1       7.070   4.873  18.665  0.00  0.00    +0.000 NA
ATOM     33  C   UNL     1       6.516   5.448  17.585  0.00  0.00    +0.000 A 
ATOM     34  H   UNL     1       9.294   5.739  20.721  0.00  0.00    +0.000 HD
ATOM     35  H   UNL     1       8.502   4.218  20.491  0.00  0.00    +0.000 HD
ENDBRANCH  22  23
ENDBRANCH   3  22
TORSDOF 6
ENDMDL
MODEL 8
REMARK VINA RESULT:      -8.0      2.616      8.071
REMARK  Name = 
REMARK  6 active torsions:
REMARK  status: ('A' for Active; 'I' for Inactive)
REMARK    1  A    between atoms: N_9  and  C_10
REMARK    2  A    between atoms: C_10  and  C_11
REMARK    3  A    between atoms: C_11  and  C_12
REMARK    4  A    between atoms: C_12  and  N_13
REMARK    5  A    between atoms: C_15  and  C_16
REMARK    6  A    between atoms: C_16  and  N_17
REMARK                            x       y       z     vdW  Elec       q    Type
REMARK                         _______ _______ _______ _____ _____    ______ ____
ROOT
ATOM      1  N   UNL     1       2.249   7.047  19.539  0.00  0.00    +0.000 N 
ATOM      2  C   UNL     1       1.657   8.271  19.607  0.00  0.00    +0.000 A 
ATOM      3  C   UNL     1       2.093   8.916  18.468  0.00  0.00    +0.000 A 
ATOM      4  N   UNL     1       2.905   8.068  17.761  0.00  0.00    +0.000 NA
ATOM      5  N   UNL     1       2.991   6.925  18.427  0.00  0.00    +0.000 NA
ENDROOT
BRANCH   1   6
ATOM      6  C   UNL     1       2.226   5.995  20.533  0.00  0.00    +0.000 C 
BRANCH   6   7
ATOM      7  C   UNL     1       1.976   4.598  19.955  0.00  0.00    +0.000 C 
BRANCH   7   8
ATOM      8  C   UNL     1       3.231   3.721  19.955  0.00  0.00    +0.000 C 
BRANCH   8  17
ATOM      9  N   UNL     1       8.185   5.672  19.915  0.00  0.00    +0.000 N 
ATOM     10  C   UNL     1       7.248   5.213  19.014  0.00  0.00    +0.000 A 
ATOM     11  N   UNL     1       7.621   5.204  17.731  0.00  0.00    +0.000 NA
ATOM     12  C   UNL     1       6.741   4.717  16.834  0.00  0.00    +0.000 A 
ATOM     13 CL   UNL     1       7.191   4.663  15.201  0.00  0.00    +0.000 Cl
ATOM     14  C   UNL     1       5.495   4.246  17.206  0.00  0.00    +0.000 A 
ATOM     15  N   UNL     1       4.421   3.690  16.545  0.00  0.00    +0.000 NA
ATOM     16  C   UNL     1       3.531   3.445  17.479  0.00  0.00    +0.000 A 
ATOM     17  N   UNL     1       3.975   3.832  18.719  0.00  0.00    +0.000 N 
ATOM     18  C   UNL     1       5.234   4.345  18.565  0.00  0.00    +0.000 A 
ATOM     19  N   UNL     1       6.057   4.829  19.514  0.00  0.00    +0.000 NA
ATOM     20  H   UNL     1       8.879   6.239  19.452  0.00  0.00    +0.000 HD
ATOM     21  H   UNL     1       7.763   6.030  20.758  0.00  0.00    +0.000 HD
ENDBRANCH   8  17
ENDBRANCH   7   8
ENDBRANCH   6   7
ENDBRANCH   1   6
BRANCH   3  22
ATOM     22  C   UNL     1       1.831  10.298  17.997  0.00  0.00    +0.000 C 
BRANCH  22  23
ATOM     23  N   UNL     1       0.814  10.928  18.808  0.00  0.00    +0.000 N 
ATOM     24  C   UNL     1       1.024  11.664  19.943  0.00  0.00    +0.000 A 
ATOM     25  N   UNL     1      -0.108  12.112  20.449  0.00  0.00    +0.000 NA
ATOM     26  C   UNL     1      -1.087  11.672  19.583  0.00  0.00    +0.000 A 
ATOM     27  C   UNL     1      -2.460  11.824  19.488  0.00  0.00    +0.000 A 
ATOM     28 CL   UNL     1      -3.268  12.764  20.643  0.00  0.00    +0.000 Cl
ATOM     29  N   UNL     1      -3.169  11.289  18.476  0.00  0.00    +0.000 NA
ATOM     30  C   UNL     1      -2.495  10.593  17.552  0.00  0.00    +0.000 A 
ATOM     31  N   UNL     1      -3.228  10.107  16.491  0.00  0.00    +0.000 N 
ATOM     32  N   UNL     1      -1.178  10.327  17.546  0.00  0.00    +0.000 NA
ATOM     33  C   UNL     1      -0.532  10.911  18.569  0.00  0.00    +0.000 A 
ATOM     34  H   UNL     1      -4.209  10.049  16.731  0.00  0.00    +0.000 HD
ATOM     35  H   UNL     1      -2.794   9.292  16.084  0.00  0.00    +0.000 HD
ENDBRANCH  22  23
ENDBRANCH   3  22
TORSDOF 6
ENDMDL
MODEL 9
REMARK VINA RESULT:      -8.0      4.914      8.543
REMARK  Name = 
REMARK  6 active torsions:
REMARK  status: ('A' for Active; 'I' for Inactive)
REMARK    1  A    between atoms: N_9  and  C_10
REMARK    2  A    between atoms: C_10  and  C_11
REMARK    3  A    between atoms: C_11  and  C_12
REMARK    4  A    between atoms: C_12  and  N_13
REMARK    5  A    between atoms: C_15  and  C_16
REMARK    6  A    between atoms: C_16  and  N_17
REMARK                            x       y       z     vdW  Elec       q    Type
REMARK                         _______ _______ _______ _____ _____    ______ ____
ROOT
ATOM      1  N   UNL     1       7.918   7.514  18.336  0.00  0.00    +0.000 N 
ATOM      2  C   UNL     1       6.876   7.583  17.462  0.00  0.00    +0.000 A 
ATOM      3  C   UNL     1       6.341   6.312  17.479  0.00  0.00    +0.000 A 
ATOM      4  N   UNL     1       7.055   5.541  18.357  0.00  0.00    +0.000 NA
ATOM      5  N   UNL     1       8.019   6.290  18.878  0.00  0.00    +0.000 NA
ENDROOT
BRANCH   1   6
ATOM      6  C   UNL     1       8.900   8.536  18.627  0.00  0.00    +0.000 C 
BRANCH   6   7
ATOM      7  C   UNL     1       8.432   9.959  18.308  0.00  0.00    +0.000 C 
BRANCH   7   8
ATOM      8  C   UNL     1       9.575  10.876  17.865  0.00  0.00    +0.000 C 
BRANCH   8  17
ATOM      9  N   UNL     1      11.003  15.766  16.319  0.00  0.00    +0.000 N 
ATOM     10  C   UNL     1      10.824  15.064  17.492  0.00  0.00    +0.000 A 
ATOM     11  N   UNL     1      11.033  15.746  18.622  0.00  0.00    +0.000 NA
ATOM     12  C   UNL     1      10.820  15.097  19.784  0.00  0.00    +0.000 A 
ATOM     13 CL   UNL     1      11.046  15.939  21.238  0.00  0.00    +0.000 Cl
ATOM     14  C   UNL     1      10.409  13.777  19.825  0.00  0.00    +0.000 A 
ATOM     15  N   UNL     1      10.101  12.878  20.824  0.00  0.00    +0.000 NA
ATOM     16  C   UNL     1       9.764  11.773  20.201  0.00  0.00    +0.000 A 
ATOM     17  N   UNL     1       9.855  11.910  18.837  0.00  0.00    +0.000 N 
ATOM     18  C   UNL     1      10.263  13.189  18.578  0.00  0.00    +0.000 A 
ATOM     19  N   UNL     1      10.467  13.770  17.380  0.00  0.00    +0.000 NA
ATOM     20  H   UNL     1      11.581  16.579  16.472  0.00  0.00    +0.000 HD
ATOM     21  H   UNL     1      11.228  15.163  15.542  0.00  0.00    +0.000 HD
ENDBRANCH   8  17
ENDBRANCH   7   8
ENDBRANCH   6   7
ENDBRANCH   1   6
BRANCH   3  22
ATOM     22  C   UNL     1       5.214   5.743  16.701  0.00  0.00    +0.000 C 
BRANCH  22  23
ATOM     23  N   UNL     1       4.074   5.500  17.558  0.00  0.00    +0.000 N 
ATOM     24  C   UNL     1       3.174   6.434  17.993  0.00  0.00    +0.000 A 
ATOM     25  N   UNL     1       2.244   5.896  18.756  0.00  0.00    +0.000 NA
ATOM     26  C   UNL     1       2.541   4.550  18.787  0.00  0.00    +0.000 A 
ATOM     27  C   UNL     1       1.959   3.425  19.346  0.00  0.00    +0.000 A 
ATOM     28 CL   UNL     1       0.519   3.590  20.224  0.00  0.00    +0.000 Cl
ATOM     29  N   UNL     1       2.473   2.193  19.171  0.00  0.00    +0.000 NA
ATOM     30  C   UNL     1       3.584   2.088  18.431  0.00  0.00    +0.000 A 
ATOM     31  N   UNL     1       4.060   0.814  18.210  0.00  0.00    +0.000 N 
ATOM     32  N   UNL     1       4.277   3.095  17.872  0.00  0.00    +0.000 NA
ATOM     33  C   UNL     1       3.694   4.289  18.067  0.00  0.00    +0.000 A 
ATOM     34  H   UNL     1       3.710   0.175  18.912  0.00  0.00    +0.000 HD
ATOM     35  H   UNL     1       5.053   0.816  18.030  0.00  0.00    +0.000 HD
ENDBRANCH  22  23
ENDBRANCH   3  22
TORSDOF 6
ENDMDL
