MODEL 1
REMARK VINA RESULT:      -7.3      0.000      0.000
REMARK  Name = 
REMARK  6 active torsions:
REMARK  status: ('A' for Active; 'I' for Inactive)
REMARK    1  A    between atoms: N_1  and  C_2
REMARK    2  A    between atoms: C_8  and  C_9
REMARK    3  A    between atoms: N_15  and  C_16
REMARK    4  A    between atoms: C_18  and  C_19
REMARK    5  A    between atoms: C_19  and  O_20
REMARK    6  A    between atoms: C_23  and  O_24
REMARK                            x       y       z     vdW  Elec       q    Type
REMARK                         _______ _______ _______ _____ _____    ______ ____
ROOT
ATOM      1  C   UNL     1       3.870   3.499  19.635  0.00  0.00    +0.000 A 
ATOM      2  N   UNL     1       3.080   3.116  20.656  0.00  0.00    +0.000 NA
ATOM      3  C   UNL     1       2.115   3.954  21.063  0.00  0.00    +0.000 A 
ATOM      4  N   UNL     1       1.809   5.167  20.576  0.00  0.00    +0.000 NA
ATOM      5  C   UNL     1       2.613   5.510  19.556  0.00  0.00    +0.000 A 
ATOM      6  C   UNL     1       3.630   4.734  19.004  0.00  0.00    +0.000 A 
ATOM      7  C   UNL     1       4.172   5.493  17.921  0.00  0.00    +0.000 A 
ATOM      8  C   UNL     1       3.548   6.725  17.922  0.00  0.00    +0.000 A 
ATOM      9  N   UNL     1       2.560   6.706  18.879  0.00  0.00    +0.000 N 
ENDROOT
BRANCH   9  10
ATOM     10  C   UNL     1       1.549   7.728  19.113  0.00  0.00    +0.000 C 
ATOM     11  O   UNL     1       1.508   8.625  17.970  0.00  0.00    +0.000 OA
ATOM     12  C   UNL     1       1.145   9.940  18.457  0.00  0.00    +0.000 C 
ATOM     13  C   UNL     1       0.968   9.822  19.963  0.00  0.00    +0.000 C 
ATOM     14  F   UNL     1      -0.347   9.508  20.205  0.00  0.00    +0.000 F 
ATOM     15  C   UNL     1       1.794   8.609  20.337  0.00  0.00    +0.000 C 
BRANCH  15  16
ATOM     16  O   UNL     1       1.362   8.057  21.578  0.00  0.00    +0.000 OA
ATOM     17  H   UNL     1       2.155   7.942  22.140  0.00  0.00    +0.000 HD
ENDBRANCH  15  16
BRANCH  12  18
ATOM     18  C   UNL     1       2.229  10.937  18.053  0.00  0.00    +0.000 C 
BRANCH  18  19
ATOM     19  O   UNL     1       1.699  12.251  17.916  0.00  0.00    +0.000 OA
ATOM     20  H   UNL     1       0.934  12.306  18.515  0.00  0.00    +0.000 HD
ENDBRANCH  18  19
ENDBRANCH  12  18
ENDBRANCH   9  10
BRANCH   7  21
ATOM     21  C   UNL     1       5.209   5.091  16.915  0.00  0.00    +0.000 A 
ATOM     22  C   UNL     1       5.042   4.109  15.958  0.00  0.00    +0.000 A 
ATOM     23  C   UNL     1       6.169   4.005  15.087  0.00  0.00    +0.000 A 
ATOM     24  C   UNL     1       7.188   4.855  15.455  0.00  0.00    +0.000 A 
ATOM     25  S   UNL     1       6.785   5.755  16.844  0.00  0.00    +0.000 S 
ENDBRANCH   7  21
BRANCH   1  26
ATOM     26  N   UNL     1       4.904   2.632  19.313  0.00  0.00    +0.000 N 
ATOM     27  H   UNL     1       4.957   2.469  18.317  0.00  0.00    +0.000 HD
ATOM     28  H   UNL     1       5.777   2.813  19.792  0.00  0.00    +0.000 HD
ENDBRANCH   1  26
TORSDOF 6
ENDMDL
MODEL 2
REMARK VINA RESULT:      -6.8      3.748      6.276
REMARK  Name = 
REMARK  6 active torsions:
REMARK  status: ('A' for Active; 'I' for Inactive)
REMARK    1  A    between atoms: N_1  and  C_2
REMARK    2  A    between atoms: C_8  and  C_9
REMARK    3  A    between atoms: N_15  and  C_16
REMARK    4  A    between atoms: C_18  and  C_19
REMARK    5  A    between atoms: C_19  and  O_20
REMARK    6  A    between atoms: C_23  and  O_24
REMARK                            x       y       z     vdW  Elec       q    Type
REMARK                         _______ _______ _______ _____ _____    ______ ____
ROOT
ATOM      1  C   UNL     1       1.227   4.029  19.841  0.00  0.00    +0.000 A 
ATOM      2  N   UNL     1       1.342   2.690  19.756  0.00  0.00    +0.000 NA
ATOM      3  C   UNL     1       2.408   2.183  19.118  0.00  0.00    +0.000 A 
ATOM      4  N   UNL     1       3.419   2.844  18.533  0.00  0.00    +0.000 NA
ATOM      5  C   UNL     1       3.272   4.176  18.646  0.00  0.00    +0.000 A 
ATOM      6  C   UNL     1       2.242   4.843  19.305  0.00  0.00    +0.000 A 
ATOM      7  C   UNL     1       2.535   6.239  19.198  0.00  0.00    +0.000 A 
ATOM      8  C   UNL     1       3.655   6.369  18.400  0.00  0.00    +0.000 A 
ATOM      9  N   UNL     1       4.132   5.110  18.119  0.00  0.00    +0.000 N 
ENDROOT
BRANCH   9  10
ATOM     10  C   UNL     1       5.382   4.778  17.449  0.00  0.00    +0.000 C 
ATOM     11  O   UNL     1       6.364   4.384  18.446  0.00  0.00    +0.000 OA
ATOM     12  C   UNL     1       7.668   4.782  17.959  0.00  0.00    +0.000 C 
ATOM     13  C   UNL     1       7.453   5.451  16.610  0.00  0.00    +0.000 C 
ATOM     14  F   UNL     1       7.529   4.478  15.644  0.00  0.00    +0.000 F 
ATOM     15  C   UNL     1       6.015   5.922  16.659  0.00  0.00    +0.000 C 
BRANCH  15  16
ATOM     16  O   UNL     1       5.493   6.115  15.346  0.00  0.00    +0.000 OA
ATOM     17  H   UNL     1       4.815   5.427  15.196  0.00  0.00    +0.000 HD
ENDBRANCH  15  16
BRANCH  12  18
ATOM     18  C   UNL     1       8.326   5.697  18.990  0.00  0.00    +0.000 C 
BRANCH  18  19
ATOM     19  O   UNL     1       7.862   5.411  20.305  0.00  0.00    +0.000 OA
ATOM     20  H   UNL     1       7.314   6.169  20.577  0.00  0.00    +0.000 HD
ENDBRANCH  18  19
ENDBRANCH  12  18
ENDBRANCH   9  10
BRANCH   7  21
ATOM     21  C   UNL     1       1.823   7.402  19.822  0.00  0.00    +0.000 A 
ATOM     22  C   UNL     1       1.362   7.440  21.123  0.00  0.00    +0.000 A 
ATOM     23  C   UNL     1       0.799   8.708  21.462  0.00  0.00    +0.000 A 
ATOM     24  C   UNL     1       0.779   9.568  20.386  0.00  0.00    +0.000 A 
ATOM     25  S   UNL     1       1.421   8.840  18.986  0.00  0.00    +0.000 S 
ENDBRANCH   7  21
BRANCH   1  26
ATOM     26  N   UNL     1       0.065   4.499  20.434  0.00  0.00    +0.000 N 
ATOM     27  H   UNL     1      -0.629   4.754  19.744  0.00  0.00    +0.000 HD
ATOM     28  H   UNL     1      -0.259   3.958  21.226  0.00  0.00    +0.000 HD
ENDBRANCH   1  26
TORSDOF 6
ENDMDL
MODEL 3
REMARK VINA RESULT:      -6.7      5.419      7.723
REMARK  Name = 
REMARK  6 active torsions:
REMARK  status: ('A' for Active; 'I' for Inactive)
REMARK    1  A    between atoms: N_1  and  C_2
REMARK    2  A    between atoms: C_8  and  C_9
REMARK    3  A    between atoms: N_15  and  C_16
REMARK    4  A    between atoms: C_18  and  C_19
REMARK    5  A    between atoms: C_19  and  O_20
REMARK    6  A    between atoms: C_23  and  O_24
REMARK                            x       y       z     vdW  Elec       q    Type
REMARK                         _______ _______ _______ _____ _____    ______ ____
ROOT
ATOM      1  C   UNL     1       5.845   5.505  18.490  0.00  0.00    +0.000 A 
ATOM      2  N   UNL     1       6.851   6.399  18.420  0.00  0.00    +0.000 NA
ATOM      3  C   UNL     1       7.398   6.648  17.221  0.00  0.00    +0.000 A 
ATOM      4  N   UNL     1       7.071   6.117  16.032  0.00  0.00    +0.000 NA
ATOM      5  C   UNL     1       6.062   5.237  16.142  0.00  0.00    +0.000 A 
ATOM      6  C   UNL     1       5.376   4.903  17.308  0.00  0.00    +0.000 A 
ATOM      7  C   UNL     1       4.364   3.968  16.925  0.00  0.00    +0.000 A 
ATOM      8  C   UNL     1       4.539   3.691  15.584  0.00  0.00    +0.000 A 
ATOM      9  N   UNL     1       5.532   4.511  15.101  0.00  0.00    +0.000 N 
ENDROOT
BRANCH   9  10
ATOM     10  C   UNL     1       5.932   4.676  13.710  0.00  0.00    +0.000 C 
ATOM     11  O   UNL     1       5.116   3.809  12.876  0.00  0.00    +0.000 OA
ATOM     12  C   UNL     1       5.926   3.397  11.748  0.00  0.00    +0.000 C 
ATOM     13  C   UNL     1       7.291   4.045  11.921  0.00  0.00    +0.000 C 
ATOM     14  F   UNL     1       7.257   5.264  11.290  0.00  0.00    +0.000 F 
ATOM     15  C   UNL     1       7.385   4.312  13.408  0.00  0.00    +0.000 C 
BRANCH  15  16
ATOM     16  O   UNL     1       8.337   5.335  13.686  0.00  0.00    +0.000 OA
ATOM     17  H   UNL     1       9.120   4.907  14.087  0.00  0.00    +0.000 HD
ENDBRANCH  15  16
BRANCH  12  18
ATOM     18  C   UNL     1       5.981   1.871  11.706  0.00  0.00    +0.000 C 
BRANCH  18  19
ATOM     19  O   UNL     1       7.209   1.412  11.153  0.00  0.00    +0.000 OA
ATOM     20  H   UNL     1       7.638   0.871  11.839  0.00  0.00    +0.000 HD
ENDBRANCH  18  19
ENDBRANCH  12  18
ENDBRANCH   9  10
BRANCH   7  21
ATOM     21  C   UNL     1       3.270   3.369  17.758  0.00  0.00    +0.000 A 
ATOM     22  C   UNL     1       2.001   3.897  17.891  0.00  0.00    +0.000 A 
ATOM     23  C   UNL     1       1.149   3.066  18.681  0.00  0.00    +0.000 A 
ATOM     24  C   UNL     1       1.818   1.974  19.187  0.00  0.00    +0.000 A 
ATOM     25  S   UNL     1       3.456   1.967  18.721  0.00  0.00    +0.000 S 
ENDBRANCH   7  21
BRANCH   1  26
ATOM     26  N   UNL     1       5.376   5.223  19.764  0.00  0.00    +0.000 N 
ATOM     27  H   UNL     1       5.892   5.728  20.472  0.00  0.00    +0.000 HD
ATOM     28  H   UNL     1       4.368   5.214  19.856  0.00  0.00    +0.000 HD
ENDBRANCH   1  26
TORSDOF 6
ENDMDL
MODEL 4
REMARK VINA RESULT:      -6.5      3.995      5.325
REMARK  Name = 
REMARK  6 active torsions:
REMARK  status: ('A' for Active; 'I' for Inactive)
REMARK    1  A    between atoms: N_1  and  C_2
REMARK    2  A    between atoms: C_8  and  C_9
REMARK    3  A    between atoms: N_15  and  C_16
REMARK    4  A    between atoms: C_18  and  C_19
REMARK    5  A    between atoms: C_19  and  O_20
REMARK    6  A    between atoms: C_23  and  O_24
REMARK                            x       y       z     vdW  Elec       q    Type
REMARK                         _______ _______ _______ _____ _____    ______ ____
ROOT
ATOM      1  C   UNL     1       6.920   5.864  17.231  0.00  0.00    +0.000 A 
ATOM      2  N   UNL     1       6.996   6.179  18.538  0.00  0.00    +0.000 NA
ATOM      3  C   UNL     1       6.068   5.680  19.368  0.00  0.00    +0.000 A 
ATOM      4  N   UNL     1       5.036   4.875  19.071  0.00  0.00    +0.000 NA
ATOM      5  C   UNL     1       4.998   4.578  17.761  0.00  0.00    +0.000 A 
ATOM      6  C   UNL     1       5.907   4.993  16.790  0.00  0.00    +0.000 A 
ATOM      7  C   UNL     1       5.485   4.393  15.562  0.00  0.00    +0.000 A 
ATOM      8  C   UNL     1       4.296   3.736  15.808  0.00  0.00    +0.000 A 
ATOM      9  N   UNL     1       4.037   3.801  17.157  0.00  0.00    +0.000 N 
ENDROOT
BRANCH   9  10
ATOM     10  C   UNL     1       2.981   3.107  17.880  0.00  0.00    +0.000 C 
ATOM     11  O   UNL     1       2.158   4.084  18.573  0.00  0.00    +0.000 OA
ATOM     12  C   UNL     1       1.669   3.465  19.787  0.00  0.00    +0.000 C 
ATOM     13  C   UNL     1       2.232   2.053  19.823  0.00  0.00    +0.000 C 
ATOM     14  F   UNL     1       1.334   1.229  19.191  0.00  0.00    +0.000 F 
ATOM     15  C   UNL     1       3.465   2.127  18.947  0.00  0.00    +0.000 C 
BRANCH  15  16
ATOM     16  O   UNL     1       3.830   0.836  18.465  0.00  0.00    +0.000 OA
ATOM     17  H   UNL     1       4.370   0.406  19.158  0.00  0.00    +0.000 HD
ENDBRANCH  15  16
BRANCH  12  18
ATOM     18  C   UNL     1       2.091   4.316  20.983  0.00  0.00    +0.000 C 
BRANCH  18  19
ATOM     19  O   UNL     1       2.655   5.554  20.564  0.00  0.00    +0.000 OA
ATOM     20  H   UNL     1       2.368   6.223  21.211  0.00  0.00    +0.000 HD
ENDBRANCH  18  19
ENDBRANCH  12  18
ENDBRANCH   9  10
BRANCH   7  21
ATOM     21  C   UNL     1       6.161   4.410  14.224  0.00  0.00    +0.000 A 
ATOM     22  C   UNL     1       7.240   5.207  13.895  0.00  0.00    +0.000 A 
ATOM     23  C   UNL     1       7.723   4.947  12.576  0.00  0.00    +0.000 A 
ATOM     24  C   UNL     1       6.948   4.018  11.917  0.00  0.00    +0.000 A 
ATOM     25  S   UNL     1       5.650   3.482  12.880  0.00  0.00    +0.000 S 
ENDBRANCH   7  21
BRANCH   1  26
ATOM     26  N   UNL     1       7.852   6.477  16.407  0.00  0.00    +0.000 N 
ATOM     27  H   UNL     1       8.307   7.252  16.870  0.00  0.00    +0.000 HD
ATOM     28  H   UNL     1       8.449   5.842  15.892  0.00  0.00    +0.000 HD
ENDBRANCH   1  26
TORSDOF 6
ENDMDL
MODEL 5
REMARK VINA RESULT:      -6.3      3.795      6.459
REMARK  Name = 
REMARK  6 active torsions:
REMARK  status: ('A' for Active; 'I' for Inactive)
REMARK    1  A    between atoms: N_1  and  C_2
REMARK    2  A    between atoms: C_8  and  C_9
REMARK    3  A    between atoms: N_15  and  C_16
REMARK    4  A    between atoms: C_18  and  C_19
REMARK    5  A    between atoms: C_19  and  O_20
REMARK    6  A    between atoms: C_23  and  O_24
REMARK                            x       y       z     vdW  Elec       q    Type
REMARK                         _______ _______ _______ _____ _____    ______ ____
ROOT
ATOM      1  C   UNL     1       1.895   4.264  19.525  0.00  0.00    +0.000 A 
ATOM      2  N   UNL     1       2.193   2.958  19.381  0.00  0.00    +0.000 NA
ATOM      3  C   UNL     1       3.234   2.625  18.603  0.00  0.00    +0.000 A 
ATOM      4  N   UNL     1       4.056   3.439  17.923  0.00  0.00    +0.000 NA
ATOM      5  C   UNL     1       3.731   4.731  18.096  0.00  0.00    +0.000 A 
ATOM      6  C   UNL     1       2.705   5.228  18.897  0.00  0.00    +0.000 A 
ATOM      7  C   UNL     1       2.775   6.653  18.802  0.00  0.00    +0.000 A 
ATOM      8  C   UNL     1       3.756   6.961  17.879  0.00  0.00    +0.000 A 
ATOM      9  N   UNL     1       4.373   5.792  17.500  0.00  0.00    +0.000 N 
ENDROOT
BRANCH   9  10
ATOM     10  C   UNL     1       5.565   5.660  16.674  0.00  0.00    +0.000 C 
ATOM     11  O   UNL     1       5.185   5.754  15.274  0.00  0.00    +0.000 OA
ATOM     12  C   UNL     1       6.098   4.924  14.515  0.00  0.00    +0.000 C 
ATOM     13  C   UNL     1       7.064   4.301  15.511  0.00  0.00    +0.000 C 
ATOM     14  F   UNL     1       8.138   5.148  15.636  0.00  0.00    +0.000 F 
ATOM     15  C   UNL     1       6.311   4.335  16.824  0.00  0.00    +0.000 C 
BRANCH  15  16
ATOM     16  O   UNL     1       7.206   4.264  17.931  0.00  0.00    +0.000 OA
ATOM     17  H   UNL     1       7.924   3.645  17.689  0.00  0.00    +0.000 HD
ENDBRANCH  15  16
BRANCH  12  18
ATOM     18  C   UNL     1       5.293   3.893  13.727  0.00  0.00    +0.000 C 
BRANCH  18  19
ATOM     19  O   UNL     1       6.135   3.112  12.886  0.00  0.00    +0.000 OA
ATOM     20  H   UNL     1       6.333   3.659  12.105  0.00  0.00    +0.000 HD
ENDBRANCH  18  19
ENDBRANCH  12  18
ENDBRANCH   9  10
BRANCH   7  21
ATOM     21  C   UNL     1       1.985   7.688  19.545  0.00  0.00    +0.000 A 
ATOM     22  C   UNL     1       1.610   7.592  20.871  0.00  0.00    +0.000 A 
ATOM     23  C   UNL     1       0.936   8.765  21.329  0.00  0.00    +0.000 A 
ATOM     24  C   UNL     1       0.751   9.683  20.319  0.00  0.00    +0.000 A 
ATOM     25  S   UNL     1       1.374   9.121  18.837  0.00  0.00    +0.000 S 
ENDBRANCH   7  21
BRANCH   1  26
ATOM     26  N   UNL     1       0.759   4.546  20.270  0.00  0.00    +0.000 N 
ATOM     27  H   UNL     1       0.676   3.932  21.068  0.00  0.00    +0.000 HD
ATOM     28  H   UNL     1       0.590   5.530  20.433  0.00  0.00    +0.000 HD
ENDBRANCH   1  26
TORSDOF 6
ENDMDL
MODEL 6
REMARK VINA RESULT:      -6.1      3.798      6.096
REMARK  Name = 
REMARK  6 active torsions:
REMARK  status: ('A' for Active; 'I' for Inactive)
REMARK    1  A    between atoms: N_1  and  C_2
REMARK    2  A    between atoms: C_8  and  C_9
REMARK    3  A    between atoms: N_15  and  C_16
REMARK    4  A    between atoms: C_18  and  C_19
REMARK    5  A    between atoms: C_19  and  O_20
REMARK    6  A    between atoms: C_23  and  O_24
REMARK                            x       y       z     vdW  Elec       q    Type
REMARK                         _______ _______ _______ _____ _____    ______ ____
ROOT
ATOM      1  C   UNL     1       1.536   3.848  19.871  0.00  0.00    +0.000 A 
ATOM      2  N   UNL     1       1.768   2.526  19.755  0.00  0.00    +0.000 NA
ATOM      3  C   UNL     1       2.884   2.129  19.126  0.00  0.00    +0.000 A 
ATOM      4  N   UNL     1       3.843   2.891  18.577  0.00  0.00    +0.000 NA
ATOM      5  C   UNL     1       3.580   4.201  18.719  0.00  0.00    +0.000 A 
ATOM      6  C   UNL     1       2.485   4.760  19.375  0.00  0.00    +0.000 A 
ATOM      7  C   UNL     1       2.657   6.178  19.308  0.00  0.00    +0.000 A 
ATOM      8  C   UNL     1       3.775   6.425  18.535  0.00  0.00    +0.000 A 
ATOM      9  N   UNL     1       4.364   5.220  18.232  0.00  0.00    +0.000 N 
ENDROOT
BRANCH   9  10
ATOM     10  C   UNL     1       5.649   5.014  17.579  0.00  0.00    +0.000 C 
ATOM     11  O   UNL     1       6.676   5.733  18.314  0.00  0.00    +0.000 OA
ATOM     12  C   UNL     1       7.680   6.161  17.362  0.00  0.00    +0.000 C 
ATOM     13  C   UNL     1       7.227   5.679  15.993  0.00  0.00    +0.000 C 
ATOM     14  F   UNL     1       7.755   4.427  15.795  0.00  0.00    +0.000 F 
ATOM     15  C   UNL     1       5.729   5.516  16.138  0.00  0.00    +0.000 C 
BRANCH  15  16
ATOM     16  O   UNL     1       5.212   4.623  15.154  0.00  0.00    +0.000 OA
ATOM     17  H   UNL     1       4.428   5.049  14.753  0.00  0.00    +0.000 HD
ENDBRANCH  15  16
BRANCH  12  18
ATOM     18  C   UNL     1       7.833   7.678  17.450  0.00  0.00    +0.000 C 
BRANCH  18  19
ATOM     19  O   UNL     1       8.583   8.057  18.599  0.00  0.00    +0.000 OA
ATOM     20  H   UNL     1       7.953   8.462  19.221  0.00  0.00    +0.000 HD
ENDBRANCH  18  19
ENDBRANCH  12  18
ENDBRANCH   9  10
BRANCH   7  21
ATOM     21  C   UNL     1       1.837   7.258  19.946  0.00  0.00    +0.000 A 
ATOM     22  C   UNL     1       1.260   7.176  21.198  0.00  0.00    +0.000 A 
ATOM     23  C   UNL     1       0.608   8.390  21.575  0.00  0.00    +0.000 A 
ATOM     24  C   UNL     1       0.642   9.329  20.568  0.00  0.00    +0.000 A 
ATOM     25  S   UNL     1       1.442   8.739  19.185  0.00  0.00    +0.000 S 
ENDBRANCH   7  21
BRANCH   1  26
ATOM     26  N   UNL     1       0.327   4.199  20.454  0.00  0.00    +0.000 N 
ATOM     27  H   UNL     1       0.462   4.654  21.346  0.00  0.00    +0.000 HD
ATOM     28  H   UNL     1      -0.343   4.623  19.824  0.00  0.00    +0.000 HD
ENDBRANCH   1  26
TORSDOF 6
ENDMDL
MODEL 7
REMARK VINA RESULT:      -6.0      3.837      6.105
REMARK  Name = 
REMARK  6 active torsions:
REMARK  status: ('A' for Active; 'I' for Inactive)
REMARK    1  A    between atoms: N_1  and  C_2
REMARK    2  A    between atoms: C_8  and  C_9
REMARK    3  A    between atoms: N_15  and  C_16
REMARK    4  A    between atoms: C_18  and  C_19
REMARK    5  A    between atoms: C_19  and  O_20
REMARK    6  A    between atoms: C_23  and  O_24
REMARK                            x       y       z     vdW  Elec       q    Type
REMARK                         _______ _______ _______ _____ _____    ______ ____
ROOT
ATOM      1  C   UNL     1       1.312   4.375  20.348  0.00  0.00    +0.000 A 
ATOM      2  N   UNL     1       1.475   3.056  20.568  0.00  0.00    +0.000 NA
ATOM      3  C   UNL     1       2.671   2.510  20.299  0.00  0.00    +0.000 A 
ATOM      4  N   UNL     1       3.772   3.115  19.827  0.00  0.00    +0.000 NA
ATOM      5  C   UNL     1       3.572   4.429  19.628  0.00  0.00    +0.000 A 
ATOM      6  C   UNL     1       2.402   5.138  19.892  0.00  0.00    +0.000 A 
ATOM      7  C   UNL     1       2.678   6.503  19.567  0.00  0.00    +0.000 A 
ATOM      8  C   UNL     1       3.948   6.554  19.026  0.00  0.00    +0.000 A 
ATOM      9  N   UNL     1       4.507   5.300  19.122  0.00  0.00    +0.000 N 
ENDROOT
BRANCH   9  10
ATOM     10  C   UNL     1       5.885   4.933  18.827  0.00  0.00    +0.000 C 
ATOM     11  O   UNL     1       6.778   5.870  19.486  0.00  0.00    +0.000 OA
ATOM     12  C   UNL     1       7.961   6.004  18.662  0.00  0.00    +0.000 C 
ATOM     13  C   UNL     1       7.761   5.107  17.450  0.00  0.00    +0.000 C 
ATOM     14  F   UNL     1       8.269   3.869  17.758  0.00  0.00    +0.000 F 
ATOM     15  C   UNL     1       6.258   4.961  17.345  0.00  0.00    +0.000 C 
BRANCH  15  16
ATOM     16  O   UNL     1       5.906   3.793  16.608  0.00  0.00    +0.000 OA
ATOM     17  H   UNL     1       6.736   3.335  16.369  0.00  0.00    +0.000 HD
ENDBRANCH  15  16
BRANCH  12  18
ATOM     18  C   UNL     1       8.152   7.475  18.302  0.00  0.00    +0.000 C 
BRANCH  18  19
ATOM     19  O   UNL     1       7.784   7.729  16.950  0.00  0.00    +0.000 OA
ATOM     20  H   UNL     1       6.866   8.052  16.968  0.00  0.00    +0.000 HD
ENDBRANCH  18  19
ENDBRANCH  12  18
ENDBRANCH   9  10
BRANCH   7  21
ATOM     21  C   UNL     1       1.814   7.712  19.766  0.00  0.00    +0.000 A 
ATOM     22  C   UNL     1       1.532   8.649  18.791  0.00  0.00    +0.000 A 
ATOM     23  C   UNL     1       0.615   9.645  19.247  0.00  0.00    +0.000 A 
ATOM     24  C   UNL     1       0.291   9.479  20.575  0.00  0.00    +0.000 A 
ATOM     25  S   UNL     1       1.097   8.144  21.259  0.00  0.00    +0.000 S 
ENDBRANCH   7  21
BRANCH   1  26
ATOM     26  N   UNL     1       0.033   4.869  20.562  0.00  0.00    +0.000 N 
ATOM     27  H   UNL     1       0.049   5.843  20.828  0.00  0.00    +0.000 HD
ATOM     28  H   UNL     1      -0.650   4.599  19.866  0.00  0.00    +0.000 HD
ENDBRANCH   1  26
TORSDOF 6
ENDMDL
MODEL 8
REMARK VINA RESULT:      -5.9      3.966      5.896
REMARK  Name = 
REMARK  6 active torsions:
REMARK  status: ('A' for Active; 'I' for Inactive)
REMARK    1  A    between atoms: N_1  and  C_2
REMARK    2  A    between atoms: C_8  and  C_9
REMARK    3  A    between atoms: N_15  and  C_16
REMARK    4  A    between atoms: C_18  and  C_19
REMARK    5  A    between atoms: C_19  and  O_20
REMARK    6  A    between atoms: C_23  and  O_24
REMARK                            x       y       z     vdW  Elec       q    Type
REMARK                         _______ _______ _______ _____ _____    ______ ____
ROOT
ATOM      1  C   UNL     1       6.706   4.935  14.935  0.00  0.00    +0.000 A 
ATOM      2  N   UNL     1       6.245   4.139  13.951  0.00  0.00    +0.000 NA
ATOM      3  C   UNL     1       5.151   3.401  14.191  0.00  0.00    +0.000 A 
ATOM      4  N   UNL     1       4.418   3.342  15.313  0.00  0.00    +0.000 NA
ATOM      5  C   UNL     1       4.904   4.154  16.267  0.00  0.00    +0.000 A 
ATOM      6  C   UNL     1       6.005   5.001  16.153  0.00  0.00    +0.000 A 
ATOM      7  C   UNL     1       6.109   5.694  17.400  0.00  0.00    +0.000 A 
ATOM      8  C   UNL     1       5.150   5.175  18.247  0.00  0.00    +0.000 A 
ATOM      9  N   UNL     1       4.383   4.283  17.533  0.00  0.00    +0.000 N 
ENDROOT
BRANCH   9  10
ATOM     10  C   UNL     1       3.163   3.626  17.980  0.00  0.00    +0.000 C 
ATOM     11  O   UNL     1       2.403   4.548  18.808  0.00  0.00    +0.000 OA
ATOM     12  C   UNL     1       1.691   3.765  19.797  0.00  0.00    +0.000 C 
ATOM     13  C   UNL     1       2.049   2.308  19.551  0.00  0.00    +0.000 C 
ATOM     14  F   UNL     1       1.130   1.795  18.669  0.00  0.00    +0.000 F 
ATOM     15  C   UNL     1       3.377   2.372  18.827  0.00  0.00    +0.000 C 
BRANCH  15  16
ATOM     16  O   UNL     1       3.619   1.176  18.091  0.00  0.00    +0.000 OA
ATOM     17  H   UNL     1       3.003   1.169  17.331  0.00  0.00    +0.000 HD
ENDBRANCH  15  16
BRANCH  12  18
ATOM     18  C   UNL     1       2.077   4.257  21.191  0.00  0.00    +0.000 C 
BRANCH  18  19
ATOM     19  O   UNL     1       2.140   3.180  22.120  0.00  0.00    +0.000 OA
ATOM     20  H   UNL     1       3.071   2.896  22.154  0.00  0.00    +0.000 HD
ENDBRANCH  18  19
ENDBRANCH  12  18
ENDBRANCH   9  10
BRANCH   7  21
ATOM     21  C   UNL     1       7.041   6.803  17.786  0.00  0.00    +0.000 A 
ATOM     22  C   UNL     1       7.095   8.039  17.172  0.00  0.00    +0.000 A 
ATOM     23  C   UNL     1       8.021   8.920  17.809  0.00  0.00    +0.000 A 
ATOM     24  C   UNL     1       8.699   8.303  18.836  0.00  0.00    +0.000 A 
ATOM     25  S   UNL     1       8.226   6.676  19.015  0.00  0.00    +0.000 S 
ENDBRANCH   7  21
BRANCH   1  26
ATOM     26  N   UNL     1       7.887   5.610  14.663  0.00  0.00    +0.000 N 
ATOM     27  H   UNL     1       8.694   5.091  14.980  0.00  0.00    +0.000 HD
ATOM     28  H   UNL     1       7.942   6.017  13.738  0.00  0.00    +0.000 HD
ENDBRANCH   1  26
TORSDOF 6
ENDMDL
MODEL 9
REMARK VINA RESULT:      -5.9      3.853      7.002
REMARK  Name = 
REMARK  6 active torsions:
REMARK  status: ('A' for Active; 'I' for Inactive)
REMARK    1  A    between atoms: N_1  and  C_2
REMARK    2  A    between atoms: C_8  and  C_9
REMARK    3  A    between atoms: N_15  and  C_16
REMARK    4  A    between atoms: C_18  and  C_19
REMARK    5  A    between atoms: C_19  and  O_20
REMARK    6  A    between atoms: C_23  and  O_24
REMARK                            x       y       z     vdW  Elec       q    Type
REMARK                         _______ _______ _______ _____ _____    ______ ____
ROOT
ATOM      1  C   UNL     1       2.230   9.172  18.109  0.00  0.00    +0.000 A 
ATOM      2  N   UNL     1       2.948   8.676  17.082  0.00  0.00    +0.000 NA
ATOM      3  C   UNL     1       3.363   7.402  17.153  0.00  0.00    +0.000 A 
ATOM      4  N   UNL     1       3.153   6.514  18.137  0.00  0.00    +0.000 NA
ATOM      5  C   UNL     1       2.428   7.043  19.138  0.00  0.00    +0.000 A 
ATOM      6  C   UNL     1       1.902   8.332  19.189  0.00  0.00    +0.000 A 
ATOM      7  C   UNL     1       1.173   8.420  20.416  0.00  0.00    +0.000 A 
ATOM      8  C   UNL     1       1.369   7.238  21.102  0.00  0.00    +0.000 A 
ATOM      9  N   UNL     1       2.082   6.383  20.293  0.00  0.00    +0.000 N 
ENDROOT
BRANCH   9  10
ATOM     10  C   UNL     1       2.370   4.978  20.545  0.00  0.00    +0.000 C 
ATOM     11  O   UNL     1       3.751   4.705  20.182  0.00  0.00    +0.000 OA
ATOM     12  C   UNL     1       3.818   3.336  19.712  0.00  0.00    +0.000 C 
ATOM     13  C   UNL     1       2.409   2.769  19.794  0.00  0.00    +0.000 C 
ATOM     14  F   UNL     1       2.259   2.203  21.036  0.00  0.00    +0.000 F 
ATOM     15  C   UNL     1       1.518   3.992  19.748  0.00  0.00    +0.000 C 
BRANCH  15  16
ATOM     16  O   UNL     1       0.235   3.712  20.303  0.00  0.00    +0.000 OA
ATOM     17  H   UNL     1       0.281   2.829  20.721  0.00  0.00    +0.000 HD
ENDBRANCH  15  16
BRANCH  12  18
ATOM     18  C   UNL     1       4.395   3.324  18.299  0.00  0.00    +0.000 C 
BRANCH  18  19
ATOM     19  O   UNL     1       5.391   4.328  18.137  0.00  0.00    +0.000 OA
ATOM     20  H   UNL     1       6.250   3.870  18.149  0.00  0.00    +0.000 HD
ENDBRANCH  18  19
ENDBRANCH  12  18
ENDBRANCH   9  10
BRANCH   7  21
ATOM     21  C   UNL     1       0.317   9.540  20.925  0.00  0.00    +0.000 A 
ATOM     22  C   UNL     1       0.207   9.911  22.251  0.00  0.00    +0.000 A 
ATOM     23  C   UNL     1      -0.617  11.064  22.425  0.00  0.00    +0.000 A 
ATOM     24  C   UNL     1      -1.170  11.488  21.237  0.00  0.00    +0.000 A 
ATOM     25  S   UNL     1      -0.706  10.492  19.935  0.00  0.00    +0.000 S 
ENDBRANCH   7  21
BRANCH   1  26
ATOM     26  N   UNL     1       1.902  10.517  18.022  0.00  0.00    +0.000 N 
ATOM     27  H   UNL     1       2.296  10.943  17.194  0.00  0.00    +0.000 HD
ATOM     28  H   UNL     1       0.937  10.735  18.230  0.00  0.00    +0.000 HD
ENDBRANCH   1  26
TORSDOF 6
ENDMDL
