MODEL 1
REMARK VINA RESULT:      -9.1      0.000      0.000
REMARK  Name = 
REMARK  8 active torsions:
REMARK  status: ('A' for Active; 'I' for Inactive)
REMARK    1  A    between atoms: C_1  and  C_2
REMARK    2  A    between atoms: C_4  and  C_5
REMARK    3  A    between atoms: C_7  and  O_8
REMARK    4  A    between atoms: O_8  and  C_9
REMARK    5  A    between atoms: C_9  and  C_10
REMARK    6  A    between atoms: N_12  and  C_13
REMARK    7  A    between atoms: N_19  and  C_20
REMARK    8  A    between atoms: C_27  and  C_28
REMARK                            x       y       z     vdW  Elec       q    Type
REMARK                         _______ _______ _______ _____ _____    ______ ____
ROOT
ATOM      1  C   UNL     1       0.160  10.814  20.506  0.00  0.00    +0.000 A 
ATOM      2  C   UNL     1       0.518  11.085  19.177  0.00  0.00    +0.000 A 
ATOM      3  C   UNL     1       1.270  10.155  18.456  0.00  0.00    +0.000 A 
ATOM      4  C   UNL     1       1.627   8.940  19.052  0.00  0.00    +0.000 A 
ATOM      5  C   UNL     1       2.400   7.922  18.321  0.00  0.00    +0.000 A 
ATOM      6  O   UNL     1       2.855   8.212  17.215  0.00  0.00    +0.000 OA
ATOM      7  N   UNL     1       2.531   6.679  18.953  0.00  0.00    +0.000 N 
ATOM      8  C   UNL     1       2.073   6.482  20.247  0.00  0.00    +0.000 A 
ATOM      9  C   UNL     1       2.277   5.158  20.960  0.00  0.00    +0.000 C 
ATOM     10  N   UNL     1       1.477   7.400  20.942  0.00  0.00    +0.000 NA
ATOM     11  C   UNL     1       1.236   8.641  20.351  0.00  0.00    +0.000 A 
ATOM     12  C   UNL     1       0.532   9.595  21.089  0.00  0.00    +0.000 A 
ENDROOT
BRANCH   7  13
ATOM     13  C   UNL     1       3.209   5.652  18.241  0.00  0.00    +0.000 A 
ATOM     14  C   UNL     1       2.487   4.625  17.619  0.00  0.00    +0.000 A 
ATOM     15  C   UNL     1       3.160   3.588  16.973  0.00  0.00    +0.000 A 
ATOM     16  C   UNL     1       4.554   3.574  16.944  0.00  0.00    +0.000 A 
ATOM     17  C   UNL     1       5.272   4.612  17.536  0.00  0.00    +0.000 A 
ATOM     18 CL   UNL     1       6.993   4.582  17.513  0.00  0.00    +0.000 Cl
ATOM     19  C   UNL     1       4.609   5.661  18.168  0.00  0.00    +0.000 A 
ENDBRANCH   7  13
BRANCH   1  22
ATOM     20  C   UNL     1      -1.948  13.340  21.904  0.00  0.00    +0.000 A 
ATOM     21  C   UNL     1      -1.524  12.658  20.785  0.00  0.00    +0.000 A 
ATOM     22  N   UNL     1      -0.592  11.760  21.246  0.00  0.00    +0.000 N 
ATOM     23  N   UNL     1      -0.475  11.885  22.590  0.00  0.00    +0.000 NA
ATOM     24  N   UNL     1      -1.286  12.853  22.997  0.00  0.00    +0.000 NA
BRANCH  20  25
ATOM     25  C   UNL     1      -2.986  14.398  22.015  0.00  0.00    +0.000 C 
BRANCH  25  26
ATOM     26  O   UNL     1      -3.998  14.239  21.015  0.00  0.00    +0.000 OA
BRANCH  26  33
ATOM     27  C   UNL     1      -7.675  13.543  24.271  0.00  0.00    +0.000 C 
ATOM     28  C   UNL     1      -6.971  13.207  22.989  0.00  0.00    +0.000 A 
ATOM     29  C   UNL     1      -7.437  12.185  22.155  0.00  0.00    +0.000 A 
ATOM     30  C   UNL     1      -6.762  11.866  20.971  0.00  0.00    +0.000 A 
ATOM     31  C   UNL     1      -7.257  10.770  20.073  0.00  0.00    +0.000 C 
ATOM     32  C   UNL     1      -5.610  12.586  20.627  0.00  0.00    +0.000 A 
ATOM     33  C   UNL     1      -5.145  13.621  21.440  0.00  0.00    +0.000 A 
ATOM     34  C   UNL     1      -5.820  13.920  22.625  0.00  0.00    +0.000 A 
ENDBRANCH  26  33
ENDBRANCH  25  26
ENDBRANCH  20  25
ENDBRANCH   1  22
TORSDOF 5
ENDMDL
MODEL 2
REMARK VINA RESULT:      -8.9      3.846     11.299
REMARK  Name = 
REMARK  8 active torsions:
REMARK  status: ('A' for Active; 'I' for Inactive)
REMARK    1  A    between atoms: C_1  and  C_2
REMARK    2  A    between atoms: C_4  and  C_5
REMARK    3  A    between atoms: C_7  and  O_8
REMARK    4  A    between atoms: O_8  and  C_9
REMARK    5  A    between atoms: C_9  and  C_10
REMARK    6  A    between atoms: N_12  and  C_13
REMARK    7  A    between atoms: N_19  and  C_20
REMARK    8  A    between atoms: C_27  and  C_28
REMARK                            x       y       z     vdW  Elec       q    Type
REMARK                         _______ _______ _______ _____ _____    ______ ____
ROOT
ATOM      1  C   UNL     1       1.762   7.748  19.907  0.00  0.00    +0.000 A 
ATOM      2  C   UNL     1       1.392   7.746  21.260  0.00  0.00    +0.000 A 
ATOM      3  C   UNL     1       0.811   8.884  21.824  0.00  0.00    +0.000 A 
ATOM      4  C   UNL     1       0.565  10.006  21.024  0.00  0.00    +0.000 A 
ATOM      5  C   UNL     1      -0.065  11.218  21.572  0.00  0.00    +0.000 A 
ATOM      6  O   UNL     1      -0.248  11.287  22.788  0.00  0.00    +0.000 OA
ATOM      7  N   UNL     1      -0.431  12.196  20.639  0.00  0.00    +0.000 N 
ATOM      8  C   UNL     1      -0.087  12.073  19.302  0.00  0.00    +0.000 A 
ATOM      9  C   UNL     1      -0.420  13.165  18.301  0.00  0.00    +0.000 C 
ATOM     10  N   UNL     1       0.556  11.056  18.820  0.00  0.00    +0.000 NA
ATOM     11  C   UNL     1       0.884  10.001  19.672  0.00  0.00    +0.000 A 
ATOM     12  C   UNL     1       1.516   8.884  19.123  0.00  0.00    +0.000 A 
ENDROOT
BRANCH   7  13
ATOM     13  C   UNL     1      -1.109  13.346  21.129  0.00  0.00    +0.000 A 
ATOM     14  C   UNL     1      -0.384  14.459  21.575  0.00  0.00    +0.000 A 
ATOM     15  C   UNL     1      -1.051  15.560  22.110  0.00  0.00    +0.000 A 
ATOM     16  C   UNL     1      -2.443  15.555  22.201  0.00  0.00    +0.000 A 
ATOM     17  C   UNL     1      -3.166  14.460  21.730  0.00  0.00    +0.000 A 
ATOM     18 CL   UNL     1      -4.882  14.449  21.860  0.00  0.00    +0.000 Cl
ATOM     19  C   UNL     1      -2.509  13.363  21.178  0.00  0.00    +0.000 A 
ENDBRANCH   7  13
BRANCH   1  22
ATOM     20  C   UNL     1       3.511   4.786  18.936  0.00  0.00    +0.000 A 
ATOM     21  C   UNL     1       3.220   5.702  19.923  0.00  0.00    +0.000 A 
ATOM     22  N   UNL     1       2.365   6.601  19.334  0.00  0.00    +0.000 N 
ATOM     23  N   UNL     1       2.135   6.228  18.051  0.00  0.00    +0.000 NA
ATOM     24  N   UNL     1       2.840   5.133  17.797  0.00  0.00    +0.000 NA
BRANCH  20  25
ATOM     25  C   UNL     1       4.351   3.562  19.017  0.00  0.00    +0.000 C 
BRANCH  25  26
ATOM     26  O   UNL     1       5.731   3.891  19.209  0.00  0.00    +0.000 OA
BRANCH  26  33
ATOM     27  C   UNL     1       7.891   8.097  17.708  0.00  0.00    +0.000 C 
ATOM     28  C   UNL     1       7.319   6.738  17.428  0.00  0.00    +0.000 A 
ATOM     29  C   UNL     1       7.269   6.230  16.125  0.00  0.00    +0.000 A 
ATOM     30  C   UNL     1       6.716   4.970  15.872  0.00  0.00    +0.000 A 
ATOM     31  C   UNL     1       6.659   4.420  14.476  0.00  0.00    +0.000 C 
ATOM     32  C   UNL     1       6.213   4.217  16.941  0.00  0.00    +0.000 A 
ATOM     33  C   UNL     1       6.274   4.704  18.248  0.00  0.00    +0.000 A 
ATOM     34  C   UNL     1       6.815   5.968  18.486  0.00  0.00    +0.000 A 
ENDBRANCH  26  33
ENDBRANCH  25  26
ENDBRANCH  20  25
ENDBRANCH   1  22
TORSDOF 5
ENDMDL
MODEL 3
REMARK VINA RESULT:      -8.9      3.861     11.870
REMARK  Name = 
REMARK  8 active torsions:
REMARK  status: ('A' for Active; 'I' for Inactive)
REMARK    1  A    between atoms: C_1  and  C_2
REMARK    2  A    between atoms: C_4  and  C_5
REMARK    3  A    between atoms: C_7  and  O_8
REMARK    4  A    between atoms: O_8  and  C_9
REMARK    5  A    between atoms: C_9  and  C_10
REMARK    6  A    between atoms: N_12  and  C_13
REMARK    7  A    between atoms: N_19  and  C_20
REMARK    8  A    between atoms: C_27  and  C_28
REMARK                            x       y       z     vdW  Elec       q    Type
REMARK                         _______ _______ _______ _____ _____    ______ ____
ROOT
ATOM      1  C   UNL     1       2.518   7.319  18.729  0.00  0.00    +0.000 A 
ATOM      2  C   UNL     1       2.468   8.351  17.780  0.00  0.00    +0.000 A 
ATOM      3  C   UNL     1       1.743   9.513  18.054  0.00  0.00    +0.000 A 
ATOM      4  C   UNL     1       1.103   9.656  19.290  0.00  0.00    +0.000 A 
ATOM      5  C   UNL     1       0.346  10.872  19.629  0.00  0.00    +0.000 A 
ATOM      6  O   UNL     1       0.162  11.714  18.750  0.00  0.00    +0.000 OA
ATOM      7  N   UNL     1      -0.085  10.978  20.957  0.00  0.00    +0.000 N 
ATOM      8  C   UNL     1       0.078   9.928  21.848  0.00  0.00    +0.000 A 
ATOM      9  C   UNL     1      -0.452  10.013  23.268  0.00  0.00    +0.000 C 
ATOM     10  N   UNL     1       0.656   8.810  21.537  0.00  0.00    +0.000 NA
ATOM     11  C   UNL     1       1.186   8.659  20.256  0.00  0.00    +0.000 A 
ATOM     12  C   UNL     1       1.865   7.476  19.959  0.00  0.00    +0.000 A 
ENDROOT
BRANCH   7  13
ATOM     13  C   UNL     1      -0.755  12.174  21.333  0.00  0.00    +0.000 A 
ATOM     14  C   UNL     1      -0.036  13.248  21.876  0.00  0.00    +0.000 A 
ATOM     15  C   UNL     1      -0.706  14.396  22.298  0.00  0.00    +0.000 A 
ATOM     16  C   UNL     1      -2.094  14.476  22.180  0.00  0.00    +0.000 A 
ATOM     17  C   UNL     1      -2.805  13.420  21.612  0.00  0.00    +0.000 A 
ATOM     18 CL   UNL     1      -4.519  13.516  21.484  0.00  0.00    +0.000 Cl
ATOM     19  C   UNL     1      -2.143  12.277  21.171  0.00  0.00    +0.000 A 
ENDBRANCH   7  13
BRANCH   1  22
ATOM     20  C   UNL     1       4.435   4.542  17.549  0.00  0.00    +0.000 A 
ATOM     21  C   UNL     1       3.913   5.793  17.301  0.00  0.00    +0.000 A 
ATOM     22  N   UNL     1       3.242   6.133  18.450  0.00  0.00    +0.000 N 
ATOM     23  N   UNL     1       3.373   5.136  19.358  0.00  0.00    +0.000 NA
ATOM     24  N   UNL     1       4.086   4.159  18.813  0.00  0.00    +0.000 NA
BRANCH  20  25
ATOM     25  C   UNL     1       5.296   3.701  16.675  0.00  0.00    +0.000 C 
BRANCH  25  26
ATOM     26  O   UNL     1       6.384   4.458  16.136  0.00  0.00    +0.000 OA
BRANCH  26  33
ATOM     27  C   UNL     1       5.338   2.491  11.703  0.00  0.00    +0.000 C 
ATOM     28  C   UNL     1       6.085   3.463  12.569  0.00  0.00    +0.000 A 
ATOM     29  C   UNL     1       7.030   4.338  12.022  0.00  0.00    +0.000 A 
ATOM     30  C   UNL     1       7.737   5.227  12.841  0.00  0.00    +0.000 A 
ATOM     31  C   UNL     1       8.752   6.168  12.262  0.00  0.00    +0.000 C 
ATOM     32  C   UNL     1       7.484   5.233  14.220  0.00  0.00    +0.000 A 
ATOM     33  C   UNL     1       6.530   4.379  14.775  0.00  0.00    +0.000 A 
ATOM     34  C   UNL     1       5.842   3.488  13.949  0.00  0.00    +0.000 A 
ENDBRANCH  26  33
ENDBRANCH  25  26
ENDBRANCH  20  25
ENDBRANCH   1  22
TORSDOF 5
ENDMDL
MODEL 4
REMARK VINA RESULT:      -8.9      0.797      1.716
REMARK  Name = 
REMARK  8 active torsions:
REMARK  status: ('A' for Active; 'I' for Inactive)
REMARK    1  A    between atoms: C_1  and  C_2
REMARK    2  A    between atoms: C_4  and  C_5
REMARK    3  A    between atoms: C_7  and  O_8
REMARK    4  A    between atoms: O_8  and  C_9
REMARK    5  A    between atoms: C_9  and  C_10
REMARK    6  A    between atoms: N_12  and  C_13
REMARK    7  A    between atoms: N_19  and  C_20
REMARK    8  A    between atoms: C_27  and  C_28
REMARK                            x       y       z     vdW  Elec       q    Type
REMARK                         _______ _______ _______ _____ _____    ______ ____
ROOT
ATOM      1  C   UNL     1       0.172  10.336  20.793  0.00  0.00    +0.000 A 
ATOM      2  C   UNL     1       0.542  10.695  19.488  0.00  0.00    +0.000 A 
ATOM      3  C   UNL     1       1.325   9.827  18.724  0.00  0.00    +0.000 A 
ATOM      4  C   UNL     1       1.703   8.587  19.252  0.00  0.00    +0.000 A 
ATOM      5  C   UNL     1       2.509   7.632  18.473  0.00  0.00    +0.000 A 
ATOM      6  O   UNL     1       2.972   7.999  17.393  0.00  0.00    +0.000 OA
ATOM      7  N   UNL     1       2.661   6.357  19.032  0.00  0.00    +0.000 N 
ATOM      8  C   UNL     1       2.191   6.072  20.305  0.00  0.00    +0.000 A 
ATOM      9  C   UNL     1       2.417   4.713  20.940  0.00  0.00    +0.000 C 
ATOM     10  N   UNL     1       1.564   6.934  21.044  0.00  0.00    +0.000 NA
ATOM     11  C   UNL     1       1.301   8.202  20.525  0.00  0.00    +0.000 A 
ATOM     12  C   UNL     1       0.566   9.093  21.308  0.00  0.00    +0.000 A 
ENDROOT
BRANCH   7  13
ATOM     13  C   UNL     1       3.373   5.391  18.269  0.00  0.00    +0.000 A 
ATOM     14  C   UNL     1       2.688   4.352  17.625  0.00  0.00    +0.000 A 
ATOM     15  C   UNL     1       3.397   3.373  16.928  0.00  0.00    +0.000 A 
ATOM     16  C   UNL     1       4.789   3.429  16.871  0.00  0.00    +0.000 A 
ATOM     17  C   UNL     1       5.468   4.479  17.487  0.00  0.00    +0.000 A 
ATOM     18 CL   UNL     1       7.188   4.534  17.429  0.00  0.00    +0.000 Cl
ATOM     19  C   UNL     1       4.769   5.471  18.170  0.00  0.00    +0.000 A 
ENDBRANCH   7  13
BRANCH   1  22
ATOM     20  C   UNL     1      -2.073  12.660  22.322  0.00  0.00    +0.000 A 
ATOM     21  C   UNL     1      -1.679  11.989  21.185  0.00  0.00    +0.000 A 
ATOM     22  N   UNL     1      -0.611  11.219  21.577  0.00  0.00    +0.000 N 
ATOM     23  N   UNL     1      -0.386  11.405  22.900  0.00  0.00    +0.000 NA
ATOM     24  N   UNL     1      -1.261  12.290  23.358  0.00  0.00    +0.000 NA
BRANCH  20  25
ATOM     25  C   UNL     1      -3.211  13.598  22.504  0.00  0.00    +0.000 C 
BRANCH  25  26
ATOM     26  O   UNL     1      -3.786  13.968  21.247  0.00  0.00    +0.000 OA
BRANCH  26  33
ATOM     27  C   UNL     1      -6.129  11.366  17.733  0.00  0.00    +0.000 C 
ATOM     28  C   UNL     1      -6.013  11.867  19.143  0.00  0.00    +0.000 A 
ATOM     29  C   UNL     1      -6.983  11.556  20.102  0.00  0.00    +0.000 A 
ATOM     30  C   UNL     1      -6.876  12.045  21.409  0.00  0.00    +0.000 A 
ATOM     31  C   UNL     1      -7.913  11.715  22.443  0.00  0.00    +0.000 C 
ATOM     32  C   UNL     1      -5.781  12.851  21.750  0.00  0.00    +0.000 A 
ATOM     33  C   UNL     1      -4.796  13.154  20.807  0.00  0.00    +0.000 A 
ATOM     34  C   UNL     1      -4.922  12.671  19.504  0.00  0.00    +0.000 A 
ENDBRANCH  26  33
ENDBRANCH  25  26
ENDBRANCH  20  25
ENDBRANCH   1  22
TORSDOF 5
ENDMDL
MODEL 5
REMARK VINA RESULT:      -8.9      3.876     11.206
REMARK  Name = 
REMARK  8 active torsions:
REMARK  status: ('A' for Active; 'I' for Inactive)
REMARK    1  A    between atoms: C_1  and  C_2
REMARK    2  A    between atoms: C_4  and  C_5
REMARK    3  A    between atoms: C_7  and  O_8
REMARK    4  A    between atoms: O_8  and  C_9
REMARK    5  A    between atoms: C_9  and  C_10
REMARK    6  A    between atoms: N_12  and  C_13
REMARK    7  A    between atoms: N_19  and  C_20
REMARK    8  A    between atoms: C_27  and  C_28
REMARK                            x       y       z     vdW  Elec       q    Type
REMARK                         _______ _______ _______ _____ _____    ______ ____
ROOT
ATOM      1  C   UNL     1       1.785   7.541  19.824  0.00  0.00    +0.000 A 
ATOM      2  C   UNL     1       1.992   8.344  18.692  0.00  0.00    +0.000 A 
ATOM      3  C   UNL     1       1.393   9.603  18.614  0.00  0.00    +0.000 A 
ATOM      4  C   UNL     1       0.622  10.072  19.685  0.00  0.00    +0.000 A 
ATOM      5  C   UNL     1      -0.009  11.402  19.654  0.00  0.00    +0.000 A 
ATOM      6  O   UNL     1       0.032  12.048  18.607  0.00  0.00    +0.000 OA
ATOM      7  N   UNL     1      -0.592  11.834  20.852  0.00  0.00    +0.000 N 
ATOM      8  C   UNL     1      -0.681  10.990  21.949  0.00  0.00    +0.000 A 
ATOM      9  C   UNL     1      -1.374  11.431  23.225  0.00  0.00    +0.000 C 
ATOM     10  N   UNL     1      -0.216   9.780  21.959  0.00  0.00    +0.000 NA
ATOM     11  C   UNL     1       0.451   9.305  20.830  0.00  0.00    +0.000 A 
ATOM     12  C   UNL     1       1.005   8.024  20.883  0.00  0.00    +0.000 A 
ENDROOT
BRANCH   7  13
ATOM     13  C   UNL     1      -1.145  13.143  20.875  0.00  0.00    +0.000 A 
ATOM     14  C   UNL     1      -0.322  14.256  21.091  0.00  0.00    +0.000 A 
ATOM     15  C   UNL     1      -0.878  15.533  21.172  0.00  0.00    +0.000 A 
ATOM     16  C   UNL     1      -2.256  15.702  21.036  0.00  0.00    +0.000 A 
ATOM     17  C   UNL     1      -3.071  14.598  20.792  0.00  0.00    +0.000 A 
ATOM     18 CL   UNL     1      -4.773  14.809  20.643  0.00  0.00    +0.000 Cl
ATOM     19  C   UNL     1      -2.523  13.322  20.692  0.00  0.00    +0.000 A 
ENDBRANCH   7  13
BRANCH   1  22
ATOM     20  C   UNL     1       3.602   4.469  19.626  0.00  0.00    +0.000 A 
ATOM     21  C   UNL     1       3.421   5.752  19.160  0.00  0.00    +0.000 A 
ATOM     22  N   UNL     1       2.380   6.257  19.902  0.00  0.00    +0.000 N 
ATOM     23  N   UNL     1       1.968   5.322  20.791  0.00  0.00    +0.000 NA
ATOM     24  N   UNL     1       2.697   4.227  20.621  0.00  0.00    +0.000 NA
BRANCH  20  25
ATOM     25  C   UNL     1       4.622   3.466  19.222  0.00  0.00    +0.000 C 
BRANCH  25  26
ATOM     26  O   UNL     1       5.945   4.004  19.315  0.00  0.00    +0.000 OA
BRANCH  26  33
ATOM     27  C   UNL     1       6.660   4.626  14.445  0.00  0.00    +0.000 C 
ATOM     28  C   UNL     1       6.751   5.113  15.862  0.00  0.00    +0.000 A 
ATOM     29  C   UNL     1       7.314   6.358  16.163  0.00  0.00    +0.000 A 
ATOM     30  C   UNL     1       7.412   6.794  17.489  0.00  0.00    +0.000 A 
ATOM     31  C   UNL     1       8.015   8.129  17.819  0.00  0.00    +0.000 C 
ATOM     32  C   UNL     1       6.936   5.970  18.517  0.00  0.00    +0.000 A 
ATOM     33  C   UNL     1       6.354   4.733  18.229  0.00  0.00    +0.000 A 
ATOM     34  C   UNL     1       6.275   4.304  16.903  0.00  0.00    +0.000 A 
ENDBRANCH  26  33
ENDBRANCH  25  26
ENDBRANCH  20  25
ENDBRANCH   1  22
TORSDOF 5
ENDMDL
MODEL 6
REMARK VINA RESULT:      -8.9      3.879     11.099
REMARK  Name = 
REMARK  8 active torsions:
REMARK  status: ('A' for Active; 'I' for Inactive)
REMARK    1  A    between atoms: C_1  and  C_2
REMARK    2  A    between atoms: C_4  and  C_5
REMARK    3  A    between atoms: C_7  and  O_8
REMARK    4  A    between atoms: O_8  and  C_9
REMARK    5  A    between atoms: C_9  and  C_10
REMARK    6  A    between atoms: N_12  and  C_13
REMARK    7  A    between atoms: N_19  and  C_20
REMARK    8  A    between atoms: C_27  and  C_28
REMARK                            x       y       z     vdW  Elec       q    Type
REMARK                         _______ _______ _______ _____ _____    ______ ____
ROOT
ATOM      1  C   UNL     1       1.767   7.596  19.823  0.00  0.00    +0.000 A 
ATOM      2  C   UNL     1       1.979   8.409  18.700  0.00  0.00    +0.000 A 
ATOM      3  C   UNL     1       1.383   9.671  18.633  0.00  0.00    +0.000 A 
ATOM      4  C   UNL     1       0.610  10.130  19.705  0.00  0.00    +0.000 A 
ATOM      5  C   UNL     1      -0.019  11.462  19.685  0.00  0.00    +0.000 A 
ATOM      6  O   UNL     1       0.028  12.118  18.644  0.00  0.00    +0.000 OA
ATOM      7  N   UNL     1      -0.604  11.883  20.886  0.00  0.00    +0.000 N 
ATOM      8  C   UNL     1      -0.699  11.029  21.974  0.00  0.00    +0.000 A 
ATOM      9  C   UNL     1      -1.397  11.458  23.251  0.00  0.00    +0.000 C 
ATOM     10  N   UNL     1      -0.237   9.817  21.974  0.00  0.00    +0.000 NA
ATOM     11  C   UNL     1       0.433   9.352  20.842  0.00  0.00    +0.000 A 
ATOM     12  C   UNL     1       0.984   8.069  20.884  0.00  0.00    +0.000 A 
ENDROOT
BRANCH   7  13
ATOM     13  C   UNL     1      -1.155  13.193  20.920  0.00  0.00    +0.000 A 
ATOM     14  C   UNL     1      -0.336  14.298  21.186  0.00  0.00    +0.000 A 
ATOM     15  C   UNL     1      -0.892  15.575  21.277  0.00  0.00    +0.000 A 
ATOM     16  C   UNL     1      -2.264  15.751  21.101  0.00  0.00    +0.000 A 
ATOM     17  C   UNL     1      -3.074  14.655  20.807  0.00  0.00    +0.000 A 
ATOM     18 CL   UNL     1      -4.769  14.875  20.609  0.00  0.00    +0.000 Cl
ATOM     19  C   UNL     1      -2.526  13.380  20.696  0.00  0.00    +0.000 A 
ENDBRANCH   7  13
BRANCH   1  22
ATOM     20  C   UNL     1       3.578   4.521  19.601  0.00  0.00    +0.000 A 
ATOM     21  C   UNL     1       3.401   5.810  19.147  0.00  0.00    +0.000 A 
ATOM     22  N   UNL     1       2.359   6.310  19.890  0.00  0.00    +0.000 N 
ATOM     23  N   UNL     1       1.942   5.367  20.769  0.00  0.00    +0.000 NA
ATOM     24  N   UNL     1       2.669   4.271  20.590  0.00  0.00    +0.000 NA
BRANCH  20  25
ATOM     25  C   UNL     1       4.597   3.520  19.191  0.00  0.00    +0.000 C 
BRANCH  25  26
ATOM     26  O   UNL     1       5.924   4.020  19.385  0.00  0.00    +0.000 OA
BRANCH  26  33
ATOM     27  C   UNL     1       7.984   8.209  17.705  0.00  0.00    +0.000 C 
ATOM     28  C   UNL     1       7.384   6.853  17.475  0.00  0.00    +0.000 A 
ATOM     29  C   UNL     1       7.228   6.342  16.182  0.00  0.00    +0.000 A 
ATOM     30  C   UNL     1       6.648   5.084  15.977  0.00  0.00    +0.000 A 
ATOM     31  C   UNL     1       6.478   4.531  14.592  0.00  0.00    +0.000 C 
ATOM     32  C   UNL     1       6.227   4.338  17.085  0.00  0.00    +0.000 A 
ATOM     33  C   UNL     1       6.394   4.827  18.382  0.00  0.00    +0.000 A 
ATOM     34  C   UNL     1       6.961   6.088  18.572  0.00  0.00    +0.000 A 
ENDBRANCH  26  33
ENDBRANCH  25  26
ENDBRANCH  20  25
ENDBRANCH   1  22
TORSDOF 5
ENDMDL
MODEL 7
REMARK VINA RESULT:      -8.8      3.850     11.411
REMARK  Name = 
REMARK  8 active torsions:
REMARK  status: ('A' for Active; 'I' for Inactive)
REMARK    1  A    between atoms: C_1  and  C_2
REMARK    2  A    between atoms: C_4  and  C_5
REMARK    3  A    between atoms: C_7  and  O_8
REMARK    4  A    between atoms: O_8  and  C_9
REMARK    5  A    between atoms: C_9  and  C_10
REMARK    6  A    between atoms: N_12  and  C_13
REMARK    7  A    between atoms: N_19  and  C_20
REMARK    8  A    between atoms: C_27  and  C_28
REMARK                            x       y       z     vdW  Elec       q    Type
REMARK                         _______ _______ _______ _____ _____    ______ ____
ROOT
ATOM      1  C   UNL     1       1.712   7.904  19.979  0.00  0.00    +0.000 A 
ATOM      2  C   UNL     1       1.328   7.904  21.328  0.00  0.00    +0.000 A 
ATOM      3  C   UNL     1       0.741   9.043  21.884  0.00  0.00    +0.000 A 
ATOM      4  C   UNL     1       0.503  10.163  21.079  0.00  0.00    +0.000 A 
ATOM      5  C   UNL     1      -0.134  11.376  21.617  0.00  0.00    +0.000 A 
ATOM      6  O   UNL     1      -0.329  11.448  22.831  0.00  0.00    +0.000 OA
ATOM      7  N   UNL     1      -0.491  12.352  20.678  0.00  0.00    +0.000 N 
ATOM      8  C   UNL     1      -0.133  12.226  19.345  0.00  0.00    +0.000 A 
ATOM      9  C   UNL     1      -0.457  13.315  18.338  0.00  0.00    +0.000 C 
ATOM     10  N   UNL     1       0.515  11.208  18.872  0.00  0.00    +0.000 NA
ATOM     11  C   UNL     1       0.835  10.155  19.729  0.00  0.00    +0.000 A 
ATOM     12  C   UNL     1       1.473   9.037  19.190  0.00  0.00    +0.000 A 
ENDROOT
BRANCH   7  13
ATOM     13  C   UNL     1      -1.174  13.502  21.159  0.00  0.00    +0.000 A 
ATOM     14  C   UNL     1      -0.454  14.620  21.602  0.00  0.00    +0.000 A 
ATOM     15  C   UNL     1      -1.127  15.722  22.128  0.00  0.00    +0.000 A 
ATOM     16  C   UNL     1      -2.520  15.714  22.212  0.00  0.00    +0.000 A 
ATOM     17  C   UNL     1      -3.237  14.614  21.743  0.00  0.00    +0.000 A 
ATOM     18 CL   UNL     1      -4.954  14.600  21.864  0.00  0.00    +0.000 Cl
ATOM     19  C   UNL     1      -2.575  13.516  21.200  0.00  0.00    +0.000 A 
ENDBRANCH   7  13
BRANCH   1  22
ATOM     20  C   UNL     1       3.418   4.903  19.048  0.00  0.00    +0.000 A 
ATOM     21  C   UNL     1       3.059   5.783  20.045  0.00  0.00    +0.000 A 
ATOM     22  N   UNL     1       2.321   6.755  19.414  0.00  0.00    +0.000 N 
ATOM     23  N   UNL     1       2.223   6.459  18.096  0.00  0.00    +0.000 NA
ATOM     24  N   UNL     1       2.898   5.341  17.862  0.00  0.00    +0.000 NA
BRANCH  20  25
ATOM     25  C   UNL     1       4.183   3.633  19.156  0.00  0.00    +0.000 C 
BRANCH  25  26
ATOM     26  O   UNL     1       5.592   3.879  19.208  0.00  0.00    +0.000 OA
BRANCH  26  33
ATOM     27  C   UNL     1       6.652   4.431  14.393  0.00  0.00    +0.000 C 
ATOM     28  C   UNL     1       6.666   4.927  15.809  0.00  0.00    +0.000 A 
ATOM     29  C   UNL     1       7.254   6.153  16.139  0.00  0.00    +0.000 A 
ATOM     30  C   UNL     1       7.280   6.597  17.466  0.00  0.00    +0.000 A 
ATOM     31  C   UNL     1       7.910   7.911  17.826  0.00  0.00    +0.000 C 
ATOM     32  C   UNL     1       6.707   5.800  18.465  0.00  0.00    +0.000 A 
ATOM     33  C   UNL     1       6.099   4.583  18.147  0.00  0.00    +0.000 A 
ATOM     34  C   UNL     1       6.092   4.145  16.822  0.00  0.00    +0.000 A 
ENDBRANCH  26  33
ENDBRANCH  25  26
ENDBRANCH  20  25
ENDBRANCH   1  22
TORSDOF 5
ENDMDL
MODEL 8
REMARK VINA RESULT:      -8.8      3.746     11.340
REMARK  Name = 
REMARK  8 active torsions:
REMARK  status: ('A' for Active; 'I' for Inactive)
REMARK    1  A    between atoms: C_1  and  C_2
REMARK    2  A    between atoms: C_4  and  C_5
REMARK    3  A    between atoms: C_7  and  O_8
REMARK    4  A    between atoms: O_8  and  C_9
REMARK    5  A    between atoms: C_9  and  C_10
REMARK    6  A    between atoms: N_12  and  C_13
REMARK    7  A    between atoms: N_19  and  C_20
REMARK    8  A    between atoms: C_27  and  C_28
REMARK                            x       y       z     vdW  Elec       q    Type
REMARK                         _______ _______ _______ _____ _____    ______ ____
ROOT
ATOM      1  C   UNL     1       1.783   7.806  19.944  0.00  0.00    +0.000 A 
ATOM      2  C   UNL     1       1.420   7.816  21.300  0.00  0.00    +0.000 A 
ATOM      3  C   UNL     1       0.828   8.954  21.852  0.00  0.00    +0.000 A 
ATOM      4  C   UNL     1       0.564  10.063  21.040  0.00  0.00    +0.000 A 
ATOM      5  C   UNL     1      -0.079  11.274  21.575  0.00  0.00    +0.000 A 
ATOM      6  O   UNL     1      -0.256  11.356  22.791  0.00  0.00    +0.000 OA
ATOM      7  N   UNL     1      -0.461  12.235  20.632  0.00  0.00    +0.000 N 
ATOM      8  C   UNL     1      -0.122  12.100  19.294  0.00  0.00    +0.000 A 
ATOM      9  C   UNL     1      -0.473  13.175  18.282  0.00  0.00    +0.000 C 
ATOM     10  N   UNL     1       0.532  11.084  18.822  0.00  0.00    +0.000 NA
ATOM     11  C   UNL     1       0.877  10.045  19.686  0.00  0.00    +0.000 A 
ATOM     12  C   UNL     1       1.519   8.928  19.148  0.00  0.00    +0.000 A 
ENDROOT
BRANCH   7  13
ATOM     13  C   UNL     1      -1.150  13.383  21.111  0.00  0.00    +0.000 A 
ATOM     14  C   UNL     1      -2.550  13.398  21.164  0.00  0.00    +0.000 A 
ATOM     15  C   UNL     1      -3.222  14.548  21.579  0.00  0.00    +0.000 A 
ATOM     16  C   UNL     1      -2.500  15.685  21.942  0.00  0.00    +0.000 A 
ATOM     17  C   UNL     1      -1.106  15.659  21.918  0.00  0.00    +0.000 A 
ATOM     18 CL   UNL     1      -0.219  17.069  22.351  0.00  0.00    +0.000 Cl
ATOM     19  C   UNL     1      -0.426  14.510  21.523  0.00  0.00    +0.000 A 
ENDBRANCH   7  13
BRANCH   1  22
ATOM     20  C   UNL     1       3.526   4.827  19.015  0.00  0.00    +0.000 A 
ATOM     21  C   UNL     1       3.190   5.725  20.004  0.00  0.00    +0.000 A 
ATOM     22  N   UNL     1       2.397   6.659  19.383  0.00  0.00    +0.000 N 
ATOM     23  N   UNL     1       2.246   6.324  18.079  0.00  0.00    +0.000 NA
ATOM     24  N   UNL     1       2.941   5.218  17.843  0.00  0.00    +0.000 NA
BRANCH  20  25
ATOM     25  C   UNL     1       4.331   3.581  19.120  0.00  0.00    +0.000 C 
BRANCH  25  26
ATOM     26  O   UNL     1       5.732   3.871  19.170  0.00  0.00    +0.000 OA
BRANCH  26  33
ATOM     27  C   UNL     1       6.727   4.564  14.359  0.00  0.00    +0.000 C 
ATOM     28  C   UNL     1       6.744   5.026  15.787  0.00  0.00    +0.000 A 
ATOM     29  C   UNL     1       7.305   6.258  16.140  0.00  0.00    +0.000 A 
ATOM     30  C   UNL     1       7.334   6.671  17.477  0.00  0.00    +0.000 A 
ATOM     31  C   UNL     1       7.935   7.991  17.863  0.00  0.00    +0.000 C 
ATOM     32  C   UNL     1       6.791   5.836  18.462  0.00  0.00    +0.000 A 
ATOM     33  C   UNL     1       6.210   4.612  18.121  0.00  0.00    +0.000 A 
ATOM     34  C   UNL     1       6.200   4.206  16.786  0.00  0.00    +0.000 A 
ENDBRANCH  26  33
ENDBRANCH  25  26
ENDBRANCH  20  25
ENDBRANCH   1  22
TORSDOF 5
ENDMDL
MODEL 9
REMARK VINA RESULT:      -8.8      3.773     11.027
REMARK  Name = 
REMARK  8 active torsions:
REMARK  status: ('A' for Active; 'I' for Inactive)
REMARK    1  A    between atoms: C_1  and  C_2
REMARK    2  A    between atoms: C_4  and  C_5
REMARK    3  A    between atoms: C_7  and  O_8
REMARK    4  A    between atoms: O_8  and  C_9
REMARK    5  A    between atoms: C_9  and  C_10
REMARK    6  A    between atoms: N_12  and  C_13
REMARK    7  A    between atoms: N_19  and  C_20
REMARK    8  A    between atoms: C_27  and  C_28
REMARK                            x       y       z     vdW  Elec       q    Type
REMARK                         _______ _______ _______ _____ _____    ______ ____
ROOT
ATOM      1  C   UNL     1       1.736   7.669  19.829  0.00  0.00    +0.000 A 
ATOM      2  C   UNL     1       1.971   8.482  18.710  0.00  0.00    +0.000 A 
ATOM      3  C   UNL     1       1.399   9.755  18.644  0.00  0.00    +0.000 A 
ATOM      4  C   UNL     1       0.628  10.225  19.713  0.00  0.00    +0.000 A 
ATOM      5  C   UNL     1       0.025  11.568  19.695  0.00  0.00    +0.000 A 
ATOM      6  O   UNL     1       0.090  12.227  18.657  0.00  0.00    +0.000 OA
ATOM      7  N   UNL     1      -0.560  11.995  20.893  0.00  0.00    +0.000 N 
ATOM      8  C   UNL     1      -0.678  11.139  21.977  0.00  0.00    +0.000 A 
ATOM      9  C   UNL     1      -1.375  11.577  23.252  0.00  0.00    +0.000 C 
ATOM     10  N   UNL     1      -0.239   9.919  21.975  0.00  0.00    +0.000 NA
ATOM     11  C   UNL     1       0.429   9.446  20.846  0.00  0.00    +0.000 A 
ATOM     12  C   UNL     1       0.955   8.153  20.887  0.00  0.00    +0.000 A 
ENDROOT
BRANCH   7  13
ATOM     13  C   UNL     1      -1.086  13.316  20.929  0.00  0.00    +0.000 A 
ATOM     14  C   UNL     1      -2.450  13.542  20.702  0.00  0.00    +0.000 A 
ATOM     15  C   UNL     1      -2.950  14.844  20.680  0.00  0.00    +0.000 A 
ATOM     16  C   UNL     1      -2.090  15.923  20.884  0.00  0.00    +0.000 A 
ATOM     17  C   UNL     1      -0.739  15.697  21.139  0.00  0.00    +0.000 A 
ATOM     18 CL   UNL     1       0.322  17.032  21.373  0.00  0.00    +0.000 Cl
ATOM     19  C   UNL     1      -0.234  14.399  21.181  0.00  0.00    +0.000 A 
ENDBRANCH   7  13
BRANCH   1  22
ATOM     20  C   UNL     1       3.448   4.541  19.567  0.00  0.00    +0.000 A 
ATOM     21  C   UNL     1       3.256   5.814  19.076  0.00  0.00    +0.000 A 
ATOM     22  N   UNL     1       2.303   6.371  19.894  0.00  0.00    +0.000 N 
ATOM     23  N   UNL     1       1.954   5.477  20.850  0.00  0.00    +0.000 NA
ATOM     24  N   UNL     1       2.636   4.356  20.650  0.00  0.00    +0.000 NA
BRANCH  20  25
ATOM     25  C   UNL     1       4.400   3.497  19.104  0.00  0.00    +0.000 C 
BRANCH  25  26
ATOM     26  O   UNL     1       5.757   3.904  19.306  0.00  0.00    +0.000 OA
BRANCH  26  33
ATOM     27  C   UNL     1       7.913   8.070  17.693  0.00  0.00    +0.000 C 
ATOM     28  C   UNL     1       7.319   6.715  17.446  0.00  0.00    +0.000 A 
ATOM     29  C   UNL     1       7.225   6.193  16.151  0.00  0.00    +0.000 A 
ATOM     30  C   UNL     1       6.651   4.936  15.929  0.00  0.00    +0.000 A 
ATOM     31  C   UNL     1       6.546   4.371  14.542  0.00  0.00    +0.000 C 
ATOM     32  C   UNL     1       6.172   4.200  17.021  0.00  0.00    +0.000 A 
ATOM     33  C   UNL     1       6.279   4.701  18.321  0.00  0.00    +0.000 A 
ATOM     34  C   UNL     1       6.840   5.961  18.527  0.00  0.00    +0.000 A 
ENDBRANCH  26  33
ENDBRANCH  25  26
ENDBRANCH  20  25
ENDBRANCH   1  22
TORSDOF 5
ENDMDL
