MODEL 1
REMARK VINA RESULT:      -6.8      0.000      0.000
REMARK  Name = 
REMARK  5 active torsions:
REMARK  status: ('A' for Active; 'I' for Inactive)
REMARK    1  A    between atoms: C_1  and  C_2
REMARK    2  A    between atoms: C_2  and  O_4
REMARK    3  A    between atoms: O_4  and  C_5
REMARK    4  A    between atoms: C_8  and  C_9
REMARK    5  A    between atoms: C_21  and  C_22
REMARK                            x       y       z     vdW  Elec       q    Type
REMARK                         _______ _______ _______ _____ _____    ______ ____
ROOT
ATOM      1  C   UNL     1       3.952   7.263  17.746  0.00  0.00    +0.000 C 
ATOM      2  O   UNL     1       5.002   7.905  17.803  0.00  0.00    +0.000 OA
ATOM      3  N   UNL     1       3.809   6.049  17.004  0.00  0.00    +0.000 N 
ATOM      4  C   UNL     1       5.016   5.566  16.382  0.00  0.00    +0.000 A 
ATOM      5  C   UNL     1       5.164   5.585  14.998  0.00  0.00    +0.000 A 
ATOM      6  C   UNL     1       6.198   4.843  14.416  0.00  0.00    +0.000 A 
ATOM      7  C   UNL     1       7.118   4.150  15.216  0.00  0.00    +0.000 A 
ATOM      8  C   UNL     1       6.982   4.141  16.606  0.00  0.00    +0.000 A 
ATOM      9  C   UNL     1       5.879   4.771  17.168  0.00  0.00    +0.000 A 
ATOM     10  N   UNL     1       5.489   4.456  18.485  0.00  0.00    +0.000 N 
ATOM     11  C   UNL     1       4.146   4.464  18.838  0.00  0.00    +0.000 C 
ATOM     12  O   UNL     1       3.764   4.021  19.912  0.00  0.00    +0.000 OA
ATOM     13  C   UNL     1       3.201   4.866  17.675  0.00  0.00    +0.000 C 
ATOM     14  C   UNL     1       1.716   4.867  17.956  0.00  0.00    +0.000 C 
ATOM     15  H   UNL     1       6.127   4.003  19.126  0.00  0.00    +0.000 HD
ENDROOT
BRANCH   1  19
ATOM     16  C   UNL     1       0.635   8.958  19.921  0.00  0.00    +0.000 A 
ATOM     17  C   UNL     1       0.918   9.387  18.623  0.00  0.00    +0.000 A 
ATOM     18  C   UNL     1       2.001   8.843  17.921  0.00  0.00    +0.000 A 
ATOM     19  C   UNL     1       2.786   7.835  18.491  0.00  0.00    +0.000 A 
ATOM     20  C   UNL     1       2.528   7.453  19.821  0.00  0.00    +0.000 A 
ATOM     21  C   UNL     1       1.457   8.019  20.540  0.00  0.00    +0.000 A 
BRANCH  16  22
ATOM     22  O   UNL     1      -0.398   9.535  20.692  0.00  0.00    +0.000 OA
BRANCH  22  24
ATOM     23  C   UNL     1      -0.686   9.958  23.018  0.00  0.00    +0.000 C 
ATOM     24  C   UNL     1      -0.069  10.420  21.722  0.00  0.00    +0.000 C 
ATOM     25  O   UNL     1       0.628  11.420  21.628  0.00  0.00    +0.000 OA
ENDBRANCH  22  24
ENDBRANCH  16  22
ENDBRANCH   1  19
TORSDOF 3
ENDMDL
MODEL 2
REMARK VINA RESULT:      -6.4      3.655      9.044
REMARK  Name = 
REMARK  5 active torsions:
REMARK  status: ('A' for Active; 'I' for Inactive)
REMARK    1  A    between atoms: C_1  and  C_2
REMARK    2  A    between atoms: C_2  and  O_4
REMARK    3  A    between atoms: O_4  and  C_5
REMARK    4  A    between atoms: C_8  and  C_9
REMARK    5  A    between atoms: C_21  and  C_22
REMARK                            x       y       z     vdW  Elec       q    Type
REMARK                         _______ _______ _______ _____ _____    ______ ____
ROOT
ATOM      1  C   UNL     1       0.314  11.116  20.759  0.00  0.00    +0.000 C 
ATOM      2  O   UNL     1       1.056  11.802  21.464  0.00  0.00    +0.000 OA
ATOM      3  N   UNL     1      -1.100  11.313  20.678  0.00  0.00    +0.000 N 
ATOM      4  C   UNL     1      -1.605  12.441  21.421  0.00  0.00    +0.000 A 
ATOM      5  C   UNL     1      -2.391  12.255  22.555  0.00  0.00    +0.000 A 
ATOM      6  C   UNL     1      -3.107  13.343  23.068  0.00  0.00    +0.000 A 
ATOM      7  C   UNL     1      -2.979  14.617  22.497  0.00  0.00    +0.000 A 
ATOM      8  C   UNL     1      -2.179  14.809  21.369  0.00  0.00    +0.000 A 
ATOM      9  C   UNL     1      -1.576  13.702  20.786  0.00  0.00    +0.000 A 
ATOM     10  N   UNL     1      -1.108  13.777  19.460  0.00  0.00    +0.000 N 
ATOM     11  C   UNL     1      -1.160  12.661  18.635  0.00  0.00    +0.000 C 
ATOM     12  O   UNL     1      -0.936  12.739  17.436  0.00  0.00    +0.000 OA
ATOM     13  C   UNL     1      -1.736  11.400  19.334  0.00  0.00    +0.000 C 
ATOM     14  C   UNL     1      -1.865  10.145  18.502  0.00  0.00    +0.000 C 
ATOM     15  H   UNL     1      -0.946  14.668  19.011  0.00  0.00    +0.000 HD
ENDROOT
BRANCH   1  19
ATOM     16  C   UNL     1       2.264   7.971  18.542  0.00  0.00    +0.000 A 
ATOM     17  C   UNL     1       1.822   7.743  19.846  0.00  0.00    +0.000 A 
ATOM     18  C   UNL     1       1.198   8.768  20.568  0.00  0.00    +0.000 A 
ATOM     19  C   UNL     1       0.970  10.016  19.981  0.00  0.00    +0.000 A 
ATOM     20  C   UNL     1       1.472  10.254  18.688  0.00  0.00    +0.000 A 
ATOM     21  C   UNL     1       2.126   9.235  17.970  0.00  0.00    +0.000 A 
BRANCH  16  22
ATOM     22  O   UNL     1       2.968   6.992  17.807  0.00  0.00    +0.000 OA
BRANCH  22  24
ATOM     23  C   UNL     1       2.094   4.778  17.866  0.00  0.00    +0.000 C 
ATOM     24  C   UNL     1       3.157   5.724  18.363  0.00  0.00    +0.000 C 
ATOM     25  O   UNL     1       4.050   5.391  19.128  0.00  0.00    +0.000 OA
ENDBRANCH  22  24
ENDBRANCH  16  22
ENDBRANCH   1  19
TORSDOF 3
ENDMDL
MODEL 3
REMARK VINA RESULT:      -6.4      3.451      8.385
REMARK  Name = 
REMARK  5 active torsions:
REMARK  status: ('A' for Active; 'I' for Inactive)
REMARK    1  A    between atoms: C_1  and  C_2
REMARK    2  A    between atoms: C_2  and  O_4
REMARK    3  A    between atoms: O_4  and  C_5
REMARK    4  A    between atoms: C_8  and  C_9
REMARK    5  A    between atoms: C_21  and  C_22
REMARK                            x       y       z     vdW  Elec       q    Type
REMARK                         _______ _______ _______ _____ _____    ______ ____
ROOT
ATOM      1  C   UNL     1       0.992   9.511  21.323  0.00  0.00    +0.000 C 
ATOM      2  O   UNL     1       1.672   9.728  22.328  0.00  0.00    +0.000 OA
ATOM      3  N   UNL     1      -0.193  10.243  20.999  0.00  0.00    +0.000 N 
ATOM      4  C   UNL     1      -0.504  11.331  21.892  0.00  0.00    +0.000 A 
ATOM      5  C   UNL     1      -1.605  11.266  22.741  0.00  0.00    +0.000 A 
ATOM      6  C   UNL     1      -2.052  12.437  23.364  0.00  0.00    +0.000 A 
ATOM      7  C   UNL     1      -1.358  13.644  23.196  0.00  0.00    +0.000 A 
ATOM      8  C   UNL     1      -0.243  13.709  22.358  0.00  0.00    +0.000 A 
ATOM      9  C   UNL     1       0.115  12.575  21.642  0.00  0.00    +0.000 A 
ATOM     10  N   UNL     1       0.953  12.694  20.515  0.00  0.00    +0.000 N 
ATOM     11  C   UNL     1       0.790  11.843  19.430  0.00  0.00    +0.000 C 
ATOM     12  O   UNL     1       1.372  12.037  18.371  0.00  0.00    +0.000 OA
ATOM     13  C   UNL     1      -0.340  10.798  19.624  0.00  0.00    +0.000 C 
ATOM     14  C   UNL     1      -0.614   9.851  18.479  0.00  0.00    +0.000 C 
ATOM     15  H   UNL     1       1.517  13.520  20.367  0.00  0.00    +0.000 HD
ENDROOT
BRANCH   1  19
ATOM     16  C   UNL     1       2.398   6.309  18.797  0.00  0.00    +0.000 A 
ATOM     17  C   UNL     1       1.853   6.028  20.051  0.00  0.00    +0.000 A 
ATOM     18  C   UNL     1       1.405   7.069  20.874  0.00  0.00    +0.000 A 
ATOM     19  C   UNL     1       1.458   8.397  20.437  0.00  0.00    +0.000 A 
ATOM     20  C   UNL     1       2.063   8.674  19.197  0.00  0.00    +0.000 A 
ATOM     21  C   UNL     1       2.540   7.631  18.379  0.00  0.00    +0.000 A 
BRANCH  16  22
ATOM     22  O   UNL     1       2.932   5.298  17.968  0.00  0.00    +0.000 OA
BRANCH  22  24
ATOM     23  C   UNL     1       2.969   2.917  17.961  0.00  0.00    +0.000 C 
ATOM     24  C   UNL     1       2.165   4.164  17.693  0.00  0.00    +0.000 C 
ATOM     25  O   UNL     1       1.004   4.146  17.307  0.00  0.00    +0.000 OA
ENDBRANCH  22  24
ENDBRANCH  16  22
ENDBRANCH   1  19
TORSDOF 3
ENDMDL
MODEL 4
REMARK VINA RESULT:      -6.3      0.275      1.022
REMARK  Name = 
REMARK  5 active torsions:
REMARK  status: ('A' for Active; 'I' for Inactive)
REMARK    1  A    between atoms: C_1  and  C_2
REMARK    2  A    between atoms: C_2  and  O_4
REMARK    3  A    between atoms: O_4  and  C_5
REMARK    4  A    between atoms: C_8  and  C_9
REMARK    5  A    between atoms: C_21  and  C_22
REMARK                            x       y       z     vdW  Elec       q    Type
REMARK                         _______ _______ _______ _____ _____    ______ ____
ROOT
ATOM      1  C   UNL     1       4.095   7.116  17.683  0.00  0.00    +0.000 C 
ATOM      2  O   UNL     1       5.176   7.706  17.709  0.00  0.00    +0.000 OA
ATOM      3  N   UNL     1       3.858   5.934  16.914  0.00  0.00    +0.000 N 
ATOM      4  C   UNL     1       5.012   5.413  16.223  0.00  0.00    +0.000 A 
ATOM      5  C   UNL     1       5.098   5.468  14.835  0.00  0.00    +0.000 A 
ATOM      6  C   UNL     1       6.067   4.695  14.184  0.00  0.00    +0.000 A 
ATOM      7  C   UNL     1       6.987   3.935  14.920  0.00  0.00    +0.000 A 
ATOM      8  C   UNL     1       6.913   3.890  16.314  0.00  0.00    +0.000 A 
ATOM      9  C   UNL     1       5.869   4.554  16.945  0.00  0.00    +0.000 A 
ATOM     10  N   UNL     1       5.524   4.218  18.269  0.00  0.00    +0.000 N 
ATOM     11  C   UNL     1       4.200   4.278  18.684  0.00  0.00    +0.000 C 
ATOM     12  O   UNL     1       3.845   3.821  19.761  0.00  0.00    +0.000 OA
ATOM     13  C   UNL     1       3.225   4.761  17.578  0.00  0.00    +0.000 C 
ATOM     14  C   UNL     1       1.756   4.823  17.928  0.00  0.00    +0.000 C 
ATOM     15  H   UNL     1       6.167   3.715  18.866  0.00  0.00    +0.000 HD
ENDROOT
BRANCH   1  19
ATOM     16  C   UNL     1       0.873   8.809  20.000  0.00  0.00    +0.000 A 
ATOM     17  C   UNL     1       1.650   7.775  20.525  0.00  0.00    +0.000 A 
ATOM     18  C   UNL     1       2.690   7.220  19.768  0.00  0.00    +0.000 A 
ATOM     19  C   UNL     1       2.992   7.720  18.498  0.00  0.00    +0.000 A 
ATOM     20  C   UNL     1       2.166   8.721  17.954  0.00  0.00    +0.000 A 
ATOM     21  C   UNL     1       1.102   9.262  18.702  0.00  0.00    +0.000 A 
BRANCH  16  22
ATOM     22  O   UNL     1      -0.233   9.344  20.696  0.00  0.00    +0.000 OA
BRANCH  22  24
ATOM     23  C   UNL     1      -0.441   9.540  23.060  0.00  0.00    +0.000 C 
ATOM     24  C   UNL     1      -0.011  10.202  21.776  0.00  0.00    +0.000 C 
ATOM     25  O   UNL     1       0.475  11.323  21.727  0.00  0.00    +0.000 OA
ENDBRANCH  22  24
ENDBRANCH  16  22
ENDBRANCH   1  19
TORSDOF 3
ENDMDL
MODEL 5
REMARK VINA RESULT:      -6.2      8.410      9.476
REMARK  Name = 
REMARK  5 active torsions:
REMARK  status: ('A' for Active; 'I' for Inactive)
REMARK    1  A    between atoms: C_1  and  C_2
REMARK    2  A    between atoms: C_2  and  O_4
REMARK    3  A    between atoms: O_4  and  C_5
REMARK    4  A    between atoms: C_8  and  C_9
REMARK    5  A    between atoms: C_21  and  C_22
REMARK                            x       y       z     vdW  Elec       q    Type
REMARK                         _______ _______ _______ _____ _____    ______ ____
ROOT
ATOM      1  C   UNL     1       8.719  11.896  22.033  0.00  0.00    +0.000 C 
ATOM      2  O   UNL     1       8.435  10.828  21.488  0.00  0.00    +0.000 OA
ATOM      3  N   UNL     1       9.684  12.815  21.511  0.00  0.00    +0.000 N 
ATOM      4  C   UNL     1      10.252  12.449  20.238  0.00  0.00    +0.000 A 
ATOM      5  C   UNL     1      11.585  12.062  20.135  0.00  0.00    +0.000 A 
ATOM      6  C   UNL     1      12.180  12.009  18.869  0.00  0.00    +0.000 A 
ATOM      7  C   UNL     1      11.428  12.268  17.715  0.00  0.00    +0.000 A 
ATOM      8  C   UNL     1      10.086  12.641  17.814  0.00  0.00    +0.000 A 
ATOM      9  C   UNL     1       9.538  12.819  19.077  0.00  0.00    +0.000 A 
ATOM     10  N   UNL     1       8.351  13.563  19.227  0.00  0.00    +0.000 N 
ATOM     11  C   UNL     1       8.147  14.335  20.362  0.00  0.00    +0.000 C 
ATOM     12  O   UNL     1       7.220  15.129  20.439  0.00  0.00    +0.000 OA
ATOM     13  C   UNL     1       9.310  14.251  21.386  0.00  0.00    +0.000 C 
ATOM     14  C   UNL     1       9.193  15.089  22.639  0.00  0.00    +0.000 C 
ATOM     15  H   UNL     1       7.740  13.738  18.440  0.00  0.00    +0.000 HD
ENDROOT
BRANCH   1  19
ATOM     16  C   UNL     1       6.662  12.686  25.741  0.00  0.00    +0.000 A 
ATOM     17  C   UNL     1       8.035  12.438  25.737  0.00  0.00    +0.000 A 
ATOM     18  C   UNL     1       8.701  12.173  24.534  0.00  0.00    +0.000 A 
ATOM     19  C   UNL     1       8.010  12.194  23.318  0.00  0.00    +0.000 A 
ATOM     20  C   UNL     1       6.616  12.385  23.339  0.00  0.00    +0.000 A 
ATOM     21  C   UNL     1       5.939  12.624  24.550  0.00  0.00    +0.000 A 
BRANCH  16  22
ATOM     22  O   UNL     1       5.938  12.880  26.938  0.00  0.00    +0.000 OA
BRANCH  22  24
ATOM     23  C   UNL     1       5.687  10.694  27.849  0.00  0.00    +0.000 C 
ATOM     24  C   UNL     1       4.993  11.927  27.328  0.00  0.00    +0.000 C 
ATOM     25  O   UNL     1       3.777  12.048  27.284  0.00  0.00    +0.000 OA
ENDBRANCH  22  24
ENDBRANCH  16  22
ENDBRANCH   1  19
TORSDOF 3
ENDMDL
MODEL 6
REMARK VINA RESULT:      -6.1      3.052      8.469
REMARK  Name = 
REMARK  5 active torsions:
REMARK  status: ('A' for Active; 'I' for Inactive)
REMARK    1  A    between atoms: C_1  and  C_2
REMARK    2  A    between atoms: C_2  and  O_4
REMARK    3  A    between atoms: O_4  and  C_5
REMARK    4  A    between atoms: C_8  and  C_9
REMARK    5  A    between atoms: C_21  and  C_22
REMARK                            x       y       z     vdW  Elec       q    Type
REMARK                         _______ _______ _______ _____ _____    ______ ____
ROOT
ATOM      1  C   UNL     1       0.933   9.692  21.357  0.00  0.00    +0.000 C 
ATOM      2  O   UNL     1       1.622   9.921  22.352  0.00  0.00    +0.000 OA
ATOM      3  N   UNL     1      -0.277  10.393  21.057  0.00  0.00    +0.000 N 
ATOM      4  C   UNL     1      -0.605  11.465  21.964  0.00  0.00    +0.000 A 
ATOM      5  C   UNL     1      -1.690  11.362  22.829  0.00  0.00    +0.000 A 
ATOM      6  C   UNL     1      -2.159  12.516  23.468  0.00  0.00    +0.000 A 
ATOM      7  C   UNL     1      -1.502  13.744  23.299  0.00  0.00    +0.000 A 
ATOM      8  C   UNL     1      -0.403  13.846  22.444  0.00  0.00    +0.000 A 
ATOM      9  C   UNL     1      -0.024  12.728  21.713  0.00  0.00    +0.000 A 
ATOM     10  N   UNL     1       0.791  12.879  20.574  0.00  0.00    +0.000 N 
ATOM     11  C   UNL     1       0.635  12.032  19.485  0.00  0.00    +0.000 C 
ATOM     12  O   UNL     1       1.194  12.250  18.419  0.00  0.00    +0.000 OA
ATOM     13  C   UNL     1      -0.461  10.953  19.689  0.00  0.00    +0.000 C 
ATOM     14  C   UNL     1      -0.727  10.008  18.541  0.00  0.00    +0.000 C 
ATOM     15  H   UNL     1       1.330  13.721  20.424  0.00  0.00    +0.000 HD
ENDROOT
BRANCH   1  19
ATOM     16  C   UNL     1       2.388   6.551  18.782  0.00  0.00    +0.000 A 
ATOM     17  C   UNL     1       1.886   6.247  20.049  0.00  0.00    +0.000 A 
ATOM     18  C   UNL     1       1.423   7.269  20.887  0.00  0.00    +0.000 A 
ATOM     19  C   UNL     1       1.416   8.598  20.454  0.00  0.00    +0.000 A 
ATOM     20  C   UNL     1       1.979   8.901  19.200  0.00  0.00    +0.000 A 
ATOM     21  C   UNL     1       2.472   7.879  18.366  0.00  0.00    +0.000 A 
BRANCH  16  22
ATOM     22  O   UNL     1       2.937   5.563  17.936  0.00  0.00    +0.000 OA
BRANCH  22  24
ATOM     23  C   UNL     1       5.145   5.225  18.762  0.00  0.00    +0.000 C 
ATOM     24  C   UNL     1       4.289   5.634  17.590  0.00  0.00    +0.000 C 
ATOM     25  O   UNL     1       4.746   5.958  16.503  0.00  0.00    +0.000 OA
ENDBRANCH  22  24
ENDBRANCH  16  22
ENDBRANCH   1  19
TORSDOF 3
ENDMDL
MODEL 7
REMARK VINA RESULT:      -6.1      3.551      8.180
REMARK  Name = 
REMARK  5 active torsions:
REMARK  status: ('A' for Active; 'I' for Inactive)
REMARK    1  A    between atoms: C_1  and  C_2
REMARK    2  A    between atoms: C_2  and  O_4
REMARK    3  A    between atoms: O_4  and  C_5
REMARK    4  A    between atoms: C_8  and  C_9
REMARK    5  A    between atoms: C_21  and  C_22
REMARK                            x       y       z     vdW  Elec       q    Type
REMARK                         _______ _______ _______ _____ _____    ______ ____
ROOT
ATOM      1  C   UNL     1       1.118   9.318  21.320  0.00  0.00    +0.000 C 
ATOM      2  O   UNL     1       1.731   9.543  22.364  0.00  0.00    +0.000 OA
ATOM      3  N   UNL     1      -0.030  10.063  20.902  0.00  0.00    +0.000 N 
ATOM      4  C   UNL     1      -0.381  11.174  21.752  0.00  0.00    +0.000 A 
ATOM      5  C   UNL     1      -1.538  11.144  22.525  0.00  0.00    +0.000 A 
ATOM      6  C   UNL     1      -2.005  12.335  23.094  0.00  0.00    +0.000 A 
ATOM      7  C   UNL     1      -1.279  13.526  22.952  0.00  0.00    +0.000 A 
ATOM      8  C   UNL     1      -0.109  13.556  22.191  0.00  0.00    +0.000 A 
ATOM      9  C   UNL     1       0.277  12.402  21.522  0.00  0.00    +0.000 A 
ATOM     10  N   UNL     1       1.191  12.485  20.452  0.00  0.00    +0.000 N 
ATOM     11  C   UNL     1       1.087  11.616  19.374  0.00  0.00    +0.000 C 
ATOM     12  O   UNL     1       1.743  11.779  18.355  0.00  0.00    +0.000 OA
ATOM     13  C   UNL     1      -0.072  10.593  19.511  0.00  0.00    +0.000 C 
ATOM     14  C   UNL     1      -0.285   9.629  18.367  0.00  0.00    +0.000 C 
ATOM     15  H   UNL     1       1.780  13.298  20.329  0.00  0.00    +0.000 HD
ENDROOT
BRANCH   1  19
ATOM     16  C   UNL     1       2.506   6.031  18.896  0.00  0.00    +0.000 A 
ATOM     17  C   UNL     1       2.632   7.344  18.439  0.00  0.00    +0.000 A 
ATOM     18  C   UNL     1       2.172   8.410  19.223  0.00  0.00    +0.000 A 
ATOM     19  C   UNL     1       1.622   8.179  20.488  0.00  0.00    +0.000 A 
ATOM     20  C   UNL     1       1.446   6.849  20.913  0.00  0.00    +0.000 A 
ATOM     21  C   UNL     1       1.881   5.773  20.114  0.00  0.00    +0.000 A 
BRANCH  16  22
ATOM     22  O   UNL     1       2.884   4.923  18.105  0.00  0.00    +0.000 OA
BRANCH  22  24
ATOM     23  C   UNL     1       2.352   2.606  17.965  0.00  0.00    +0.000 C 
ATOM     24  C   UNL     1       1.906   4.019  17.684  0.00  0.00    +0.000 C 
ATOM     25  O   UNL     1       0.828   4.296  17.176  0.00  0.00    +0.000 OA
ENDBRANCH  22  24
ENDBRANCH  16  22
ENDBRANCH   1  19
TORSDOF 3
ENDMDL
MODEL 8
REMARK VINA RESULT:      -6.0      5.783      8.210
REMARK  Name = 
REMARK  5 active torsions:
REMARK  status: ('A' for Active; 'I' for Inactive)
REMARK    1  A    between atoms: C_1  and  C_2
REMARK    2  A    between atoms: C_2  and  O_4
REMARK    3  A    between atoms: O_4  and  C_5
REMARK    4  A    between atoms: C_8  and  C_9
REMARK    5  A    between atoms: C_21  and  C_22
REMARK                            x       y       z     vdW  Elec       q    Type
REMARK                         _______ _______ _______ _____ _____    ______ ____
ROOT
ATOM      1  C   UNL     1      -0.420  13.075  19.079  0.00  0.00    +0.000 C 
ATOM      2  O   UNL     1      -0.422  13.581  17.956  0.00  0.00    +0.000 OA
ATOM      3  N   UNL     1      -1.288  12.005  19.463  0.00  0.00    +0.000 N 
ATOM      4  C   UNL     1      -2.123  11.485  18.409  0.00  0.00    +0.000 A 
ATOM      5  C   UNL     1      -3.500  11.688  18.423  0.00  0.00    +0.000 A 
ATOM      6  C   UNL     1      -4.306  10.927  17.568  0.00  0.00    +0.000 A 
ATOM      7  C   UNL     1      -3.733  10.028  16.658  0.00  0.00    +0.000 A 
ATOM      8  C   UNL     1      -2.350   9.834  16.631  0.00  0.00    +0.000 A 
ATOM      9  C   UNL     1      -1.569  10.493  17.570  0.00  0.00    +0.000 A 
ATOM     10  N   UNL     1      -0.263  10.037  17.841  0.00  0.00    +0.000 N 
ATOM     11  C   UNL     1       0.264  10.143  19.121  0.00  0.00    +0.000 C 
ATOM     12  O   UNL     1       1.313   9.594  19.429  0.00  0.00    +0.000 OA
ATOM     13  C   UNL     1      -0.701  10.812  20.136  0.00  0.00    +0.000 C 
ATOM     14  C   UNL     1      -0.226  10.937  21.565  0.00  0.00    +0.000 C 
ATOM     15  H   UNL     1       0.222   9.428  17.196  0.00  0.00    +0.000 HD
ENDROOT
BRANCH   1  19
ATOM     16  C   UNL     1       2.362  14.811  21.882  0.00  0.00    +0.000 A 
ATOM     17  C   UNL     1       0.998  15.091  21.979  0.00  0.00    +0.000 A 
ATOM     18  C   UNL     1       0.096  14.534  21.063  0.00  0.00    +0.000 A 
ATOM     19  C   UNL     1       0.542  13.659  20.067  0.00  0.00    +0.000 A 
ATOM     20  C   UNL     1       1.925  13.431  19.941  0.00  0.00    +0.000 A 
ATOM     21  C   UNL     1       2.837  14.013  20.843  0.00  0.00    +0.000 A 
BRANCH  16  22
ATOM     22  O   UNL     1       3.313  15.413  22.735  0.00  0.00    +0.000 OA
BRANCH  22  24
ATOM     23  C   UNL     1       5.614  15.624  22.160  0.00  0.00    +0.000 C 
ATOM     24  C   UNL     1       4.568  14.818  22.886  0.00  0.00    +0.000 C 
ATOM     25  O   UNL     1       4.821  13.803  23.521  0.00  0.00    +0.000 OA
ENDBRANCH  22  24
ENDBRANCH  16  22
ENDBRANCH   1  19
TORSDOF 3
ENDMDL
MODEL 9
REMARK VINA RESULT:      -6.0      6.813      8.971
REMARK  Name = 
REMARK  5 active torsions:
REMARK  status: ('A' for Active; 'I' for Inactive)
REMARK    1  A    between atoms: C_1  and  C_2
REMARK    2  A    between atoms: C_2  and  O_4
REMARK    3  A    between atoms: O_4  and  C_5
REMARK    4  A    between atoms: C_8  and  C_9
REMARK    5  A    between atoms: C_21  and  C_22
REMARK                            x       y       z     vdW  Elec       q    Type
REMARK                         _______ _______ _______ _____ _____    ______ ____
ROOT
ATOM      1  C   UNL     1      -0.509  13.863  21.776  0.00  0.00    +0.000 C 
ATOM      2  O   UNL     1       0.474  14.107  22.477  0.00  0.00    +0.000 OA
ATOM      3  N   UNL     1      -0.495  13.924  20.347  0.00  0.00    +0.000 N 
ATOM      4  C   UNL     1       0.790  14.211  19.760  0.00  0.00    +0.000 A 
ATOM      5  C   UNL     1       1.031  15.427  19.127  0.00  0.00    +0.000 A 
ATOM      6  C   UNL     1       2.163  15.556  18.314  0.00  0.00    +0.000 A 
ATOM      7  C   UNL     1       3.083  14.503  18.197  0.00  0.00    +0.000 A 
ATOM      8  C   UNL     1       2.852  13.287  18.844  0.00  0.00    +0.000 A 
ATOM      9  C   UNL     1       1.662  13.122  19.541  0.00  0.00    +0.000 A 
ATOM     10  N   UNL     1       1.211  11.825  19.859  0.00  0.00    +0.000 N 
ATOM     11  C   UNL     1      -0.148  11.545  19.889  0.00  0.00    +0.000 C 
ATOM     12  O   UNL     1      -0.564  10.398  19.979  0.00  0.00    +0.000 OA
ATOM     13  C   UNL     1      -1.042  12.774  19.575  0.00  0.00    +0.000 C 
ATOM     14  C   UNL     1      -2.537  12.555  19.548  0.00  0.00    +0.000 C 
ATOM     15  H   UNL     1       1.841  11.034  19.844  0.00  0.00    +0.000 HD
ENDROOT
BRANCH   1  19
ATOM     16  C   UNL     1      -4.168  12.828  23.813  0.00  0.00    +0.000 A 
ATOM     17  C   UNL     1      -3.124  11.905  23.730  0.00  0.00    +0.000 A 
ATOM     18  C   UNL     1      -1.940  12.239  23.060  0.00  0.00    +0.000 A 
ATOM     19  C   UNL     1      -1.770  13.511  22.505  0.00  0.00    +0.000 A 
ATOM     20  C   UNL     1      -2.851  14.412  22.542  0.00  0.00    +0.000 A 
ATOM     21  C   UNL     1      -4.053  14.069  23.189  0.00  0.00    +0.000 A 
BRANCH  16  22
ATOM     22  O   UNL     1      -5.407  12.505  24.409  0.00  0.00    +0.000 OA
BRANCH  22  24
ATOM     23  C   UNL     1      -7.564  13.509  24.294  0.00  0.00    +0.000 C 
ATOM     24  C   UNL     1      -6.573  12.576  23.643  0.00  0.00    +0.000 C 
ATOM     25  O   UNL     1      -6.788  11.997  22.588  0.00  0.00    +0.000 OA
ENDBRANCH  22  24
ENDBRANCH  16  22
ENDBRANCH   1  19
TORSDOF 3
ENDMDL
