MODEL 1
REMARK VINA RESULT:      -8.5      0.000      0.000
REMARK  Name = 
REMARK  5 active torsions:
REMARK  status: ('A' for Active; 'I' for Inactive)
REMARK    1  A    between atoms: C_4  and  C_5
REMARK    2  A    between atoms: C_10  and  C_11
REMARK    3  A    between atoms: C_11  and  C_12
REMARK    4  A    between atoms: C_12  and  C_13
REMARK    5  A    between atoms: C_12  and  C_19
REMARK                            x       y       z     vdW  Elec       q    Type
REMARK                         _______ _______ _______ _____ _____    ______ ____
ROOT
ATOM      1  C   UNL     1       3.149   5.609  17.264  0.00  0.00    +0.000 C 
ENDROOT
BRANCH   1   7
ATOM      2  C   UNL     1       2.056   6.439  19.477  0.00  0.00    +0.000 A 
ATOM      3  C   UNL     1       1.618   7.561  20.235  0.00  0.00    +0.000 A 
ATOM      4  C   UNL     1       1.651   8.872  19.753  0.00  0.00    +0.000 A 
ATOM      5  C   UNL     1       2.182   9.118  18.510  0.00  0.00    +0.000 A 
ATOM      6  C   UNL     1       2.676   8.054  17.767  0.00  0.00    +0.000 A 
ATOM      7  C   UNL     1       2.619   6.707  18.194  0.00  0.00    +0.000 A 
BRANCH   2  11
ATOM      8  C   UNL     1       1.350   2.571  21.333  0.00  0.00    +0.000 A 
ATOM      9  C   UNL     1       2.207   3.494  21.914  0.00  0.00    +0.000 A 
ATOM     10  C   UNL     1       2.419   4.731  21.297  0.00  0.00    +0.000 A 
ATOM     11  C   UNL     1       1.815   5.081  20.067  0.00  0.00    +0.000 A 
ATOM     12  C   UNL     1       1.022   4.089  19.471  0.00  0.00    +0.000 A 
ATOM     13  C   UNL     1       0.762   2.867  20.109  0.00  0.00    +0.000 A 
ENDBRANCH   2  11
ENDBRANCH   1   7
BRANCH   1  14
ATOM     14  C   UNL     1       4.575   4.962  17.461  0.00  0.00    +0.000 C 
BRANCH  14  15
ATOM     15  C   UNL     1       4.513   3.614  18.188  0.00  0.00    +0.000 A 
ATOM     16  C   UNL     1       3.766   2.516  17.729  0.00  0.00    +0.000 A 
ATOM     17  C   UNL     1       3.614   1.383  18.525  0.00  0.00    +0.000 A 
ATOM     18  C   UNL     1       4.254   1.352  19.748  0.00  0.00    +0.000 A 
ATOM     19  N   UNL     1       5.038   2.351  20.204  0.00  0.00    +0.000 NA
ATOM     20  C   UNL     1       5.146   3.450  19.421  0.00  0.00    +0.000 A 
ENDBRANCH  14  15
BRANCH  14  21
ATOM     21  C   UNL     1       5.467   4.997  16.211  0.00  0.00    +0.000 A 
ATOM     22  C   UNL     1       5.164   4.354  15.003  0.00  0.00    +0.000 A 
ATOM     23  C   UNL     1       6.086   4.317  13.963  0.00  0.00    +0.000 A 
ATOM     24  C   UNL     1       7.290   4.973  14.136  0.00  0.00    +0.000 A 
ATOM     25  N   UNL     1       7.605   5.663  15.251  0.00  0.00    +0.000 NA
ATOM     26  C   UNL     1       6.692   5.663  16.252  0.00  0.00    +0.000 A 
ENDBRANCH  14  21
ENDBRANCH   1  14
TORSDOF 5
ENDMDL
MODEL 2
REMARK VINA RESULT:      -8.1      2.300      6.060
REMARK  Name = 
REMARK  5 active torsions:
REMARK  status: ('A' for Active; 'I' for Inactive)
REMARK    1  A    between atoms: C_4  and  C_5
REMARK    2  A    between atoms: C_10  and  C_11
REMARK    3  A    between atoms: C_11  and  C_12
REMARK    4  A    between atoms: C_12  and  C_13
REMARK    5  A    between atoms: C_12  and  C_19
REMARK                            x       y       z     vdW  Elec       q    Type
REMARK                         _______ _______ _______ _____ _____    ______ ____
ROOT
ATOM      1  C   UNL     1       3.171   6.533  18.160  0.00  0.00    +0.000 C 
ENDROOT
BRANCH   1   7
ATOM      2  C   UNL     1       5.284   5.066  17.752  0.00  0.00    +0.000 A 
ATOM      3  C   UNL     1       6.655   5.041  17.371  0.00  0.00    +0.000 A 
ATOM      4  C   UNL     1       7.397   6.194  17.104  0.00  0.00    +0.000 A 
ATOM      5  C   UNL     1       6.776   7.419  17.152  0.00  0.00    +0.000 A 
ATOM      6  C   UNL     1       5.423   7.476  17.460  0.00  0.00    +0.000 A 
ATOM      7  C   UNL     1       4.645   6.341  17.783  0.00  0.00    +0.000 A 
BRANCH   2  11
ATOM      8  C   UNL     1       3.503   1.232  18.769  0.00  0.00    +0.000 A 
ATOM      9  C   UNL     1       3.161   1.886  17.595  0.00  0.00    +0.000 A 
ATOM     10  C   UNL     1       3.747   3.120  17.291  0.00  0.00    +0.000 A 
ATOM     11  C   UNL     1       4.664   3.761  18.156  0.00  0.00    +0.000 A 
ATOM     12  C   UNL     1       4.919   3.106  19.371  0.00  0.00    +0.000 A 
ATOM     13  C   UNL     1       4.377   1.844  19.659  0.00  0.00    +0.000 A 
ENDBRANCH   2  11
ENDBRANCH   1   7
BRANCH   1  14
ATOM     14  C   UNL     1       2.684   6.521  19.661  0.00  0.00    +0.000 C 
BRANCH  14  15
ATOM     15  C   UNL     1       1.799   7.726  20.002  0.00  0.00    +0.000 A 
ATOM     16  C   UNL     1       1.055   7.835  21.189  0.00  0.00    +0.000 A 
ATOM     17  C   UNL     1       0.140   8.870  21.357  0.00  0.00    +0.000 A 
ATOM     18  C   UNL     1       0.021   9.808  20.350  0.00  0.00    +0.000 A 
ATOM     19  N   UNL     1       0.760   9.787  19.222  0.00  0.00    +0.000 NA
ATOM     20  C   UNL     1       1.623   8.754  19.074  0.00  0.00    +0.000 A 
ENDBRANCH  14  15
BRANCH  14  21
ATOM     21  C   UNL     1       2.162   5.161  20.150  0.00  0.00    +0.000 A 
ATOM     22  C   UNL     1       1.209   4.390  19.472  0.00  0.00    +0.000 A 
ATOM     23  C   UNL     1       0.685   3.236  20.047  0.00  0.00    +0.000 A 
ATOM     24  C   UNL     1       1.168   2.847  21.282  0.00  0.00    +0.000 A 
ATOM     25  N   UNL     1       2.133   3.516  21.946  0.00  0.00    +0.000 NA
ATOM     26  C   UNL     1       2.607   4.645  21.367  0.00  0.00    +0.000 A 
ENDBRANCH  14  21
ENDBRANCH   1  14
TORSDOF 5
ENDMDL
MODEL 3
REMARK VINA RESULT:      -8.0      0.582      3.751
REMARK  Name = 
REMARK  5 active torsions:
REMARK  status: ('A' for Active; 'I' for Inactive)
REMARK    1  A    between atoms: C_4  and  C_5
REMARK    2  A    between atoms: C_10  and  C_11
REMARK    3  A    between atoms: C_11  and  C_12
REMARK    4  A    between atoms: C_12  and  C_13
REMARK    5  A    between atoms: C_12  and  C_19
REMARK                            x       y       z     vdW  Elec       q    Type
REMARK                         _______ _______ _______ _____ _____    ______ ____
ROOT
ATOM      1  C   UNL     1       4.498   6.117  18.145  0.00  0.00    +0.000 C 
ENDROOT
BRANCH   1   7
ATOM      2  C   UNL     1       2.198   6.777  19.172  0.00  0.00    +0.000 A 
ATOM      3  C   UNL     1       1.190   7.776  19.280  0.00  0.00    +0.000 A 
ATOM      4  C   UNL     1       1.226   8.980  18.573  0.00  0.00    +0.000 A 
ATOM      5  C   UNL     1       2.309   9.257  17.773  0.00  0.00    +0.000 A 
ATOM      6  C   UNL     1       3.341   8.332  17.693  0.00  0.00    +0.000 A 
ATOM      7  C   UNL     1       3.324   7.081  18.352  0.00  0.00    +0.000 A 
BRANCH   2  11
ATOM      8  C   UNL     1       1.475   2.925  21.055  0.00  0.00    +0.000 A 
ATOM      9  C   UNL     1       0.882   3.247  19.844  0.00  0.00    +0.000 A 
ATOM     10  C   UNL     1       1.129   4.494  19.259  0.00  0.00    +0.000 A 
ATOM     11  C   UNL     1       1.944   5.473  19.871  0.00  0.00    +0.000 A 
ATOM     12  C   UNL     1       2.458   5.140  21.134  0.00  0.00    +0.000 A 
ATOM     13  C   UNL     1       2.259   3.873  21.703  0.00  0.00    +0.000 A 
ENDBRANCH   2  11
ENDBRANCH   1   7
BRANCH   1  14
ATOM     14  C   UNL     1       4.379   4.839  17.227  0.00  0.00    +0.000 C 
BRANCH  14  15
ATOM     15  C   UNL     1       5.334   4.885  16.028  0.00  0.00    +0.000 A 
ATOM     16  C   UNL     1       5.112   4.186  14.829  0.00  0.00    +0.000 A 
ATOM     17  C   UNL     1       6.100   4.132  13.850  0.00  0.00    +0.000 A 
ATOM     18  C   UNL     1       7.277   4.820  14.070  0.00  0.00    +0.000 A 
ATOM     19  N   UNL     1       7.512   5.561  15.172  0.00  0.00    +0.000 NA
ATOM     20  C   UNL     1       6.544   5.574  16.119  0.00  0.00    +0.000 A 
ENDBRANCH  14  15
BRANCH  14  21
ATOM     21  C   UNL     1       4.344   3.507  17.991  0.00  0.00    +0.000 A 
ATOM     22  C   UNL     1       3.647   2.368  17.566  0.00  0.00    +0.000 A 
ATOM     23  C   UNL     1       3.550   1.245  18.381  0.00  0.00    +0.000 A 
ATOM     24  C   UNL     1       4.200   1.266  19.600  0.00  0.00    +0.000 A 
ATOM     25  N   UNL     1       4.940   2.310  20.028  0.00  0.00    +0.000 NA
ATOM     26  C   UNL     1       4.998   3.395  19.218  0.00  0.00    +0.000 A 
ENDBRANCH  14  21
ENDBRANCH   1  14
TORSDOF 5
ENDMDL
MODEL 4
REMARK VINA RESULT:      -8.0      1.690      2.259
REMARK  Name = 
REMARK  5 active torsions:
REMARK  status: ('A' for Active; 'I' for Inactive)
REMARK    1  A    between atoms: C_4  and  C_5
REMARK    2  A    between atoms: C_10  and  C_11
REMARK    3  A    between atoms: C_11  and  C_12
REMARK    4  A    between atoms: C_12  and  C_13
REMARK    5  A    between atoms: C_12  and  C_19
REMARK                            x       y       z     vdW  Elec       q    Type
REMARK                         _______ _______ _______ _____ _____    ______ ____
ROOT
ATOM      1  C   UNL     1       3.020   6.453  18.208  0.00  0.00    +0.000 C 
ENDROOT
BRANCH   1   7
ATOM      2  C   UNL     1       1.541   6.670  20.341  0.00  0.00    +0.000 A 
ATOM      3  C   UNL     1       0.793   7.541  21.181  0.00  0.00    +0.000 A 
ATOM      4  C   UNL     1       0.595   8.895  20.900  0.00  0.00    +0.000 A 
ATOM      5  C   UNL     1       1.192   9.445  19.791  0.00  0.00    +0.000 A 
ATOM      6  C   UNL     1       1.981   8.638  18.982  0.00  0.00    +0.000 A 
ATOM      7  C   UNL     1       2.169   7.255  19.202  0.00  0.00    +0.000 A 
BRANCH   2  11
ATOM      8  C   UNL     1       1.513   2.408  21.202  0.00  0.00    +0.000 A 
ATOM      9  C   UNL     1       0.655   2.949  20.256  0.00  0.00    +0.000 A 
ATOM     10  C   UNL     1       0.681   4.324  19.998  0.00  0.00    +0.000 A 
ATOM     11  C   UNL     1       1.536   5.211  20.692  0.00  0.00    +0.000 A 
ATOM     12  C   UNL     1       2.329   4.637  21.698  0.00  0.00    +0.000 A 
ATOM     13  C   UNL     1       2.346   3.253  21.926  0.00  0.00    +0.000 A 
ENDBRANCH   2  11
ENDBRANCH   1   7
BRANCH   1  14
ATOM     14  C   UNL     1       4.226   5.551  18.679  0.00  0.00    +0.000 C 
BRANCH  14  15
ATOM     15  C   UNL     1       3.987   4.061  18.407  0.00  0.00    +0.000 A 
ATOM     16  C   UNL     1       3.116   3.581  17.414  0.00  0.00    +0.000 A 
ATOM     17  C   UNL     1       2.813   2.225  17.336  0.00  0.00    +0.000 A 
ATOM     18  C   UNL     1       3.426   1.365  18.227  0.00  0.00    +0.000 A 
ATOM     19  N   UNL     1       4.321   1.766  19.152  0.00  0.00    +0.000 NA
ATOM     20  C   UNL     1       4.577   3.094  19.222  0.00  0.00    +0.000 A 
ENDBRANCH  14  15
BRANCH  14  21
ATOM     21  C   UNL     1       5.611   6.081  18.277  0.00  0.00    +0.000 A 
ATOM     22  C   UNL     1       6.790   5.836  18.993  0.00  0.00    +0.000 A 
ATOM     23  C   UNL     1       7.981   6.464  18.643  0.00  0.00    +0.000 A 
ATOM     24  C   UNL     1       7.979   7.297  17.540  0.00  0.00    +0.000 A 
ATOM     25  N   UNL     1       6.888   7.514  16.777  0.00  0.00    +0.000 NA
ATOM     26  C   UNL     1       5.741   6.902  17.157  0.00  0.00    +0.000 A 
ENDBRANCH  14  21
ENDBRANCH   1  14
TORSDOF 5
ENDMDL
MODEL 5
REMARK VINA RESULT:      -8.0      2.369      5.969
REMARK  Name = 
REMARK  5 active torsions:
REMARK  status: ('A' for Active; 'I' for Inactive)
REMARK    1  A    between atoms: C_4  and  C_5
REMARK    2  A    between atoms: C_10  and  C_11
REMARK    3  A    between atoms: C_11  and  C_12
REMARK    4  A    between atoms: C_12  and  C_13
REMARK    5  A    between atoms: C_12  and  C_19
REMARK                            x       y       z     vdW  Elec       q    Type
REMARK                         _______ _______ _______ _____ _____    ______ ____
ROOT
ATOM      1  C   UNL     1       3.688   6.574  17.580  0.00  0.00    +0.000 C 
ENDROOT
BRANCH   1   7
ATOM      2  C   UNL     1       5.795   5.098  17.986  0.00  0.00    +0.000 A 
ATOM      3  C   UNL     1       7.216   5.049  18.034  0.00  0.00    +0.000 A 
ATOM      4  C   UNL     1       8.028   6.174  17.872  0.00  0.00    +0.000 A 
ATOM      5  C   UNL     1       7.447   7.387  17.595  0.00  0.00    +0.000 A 
ATOM      6  C   UNL     1       6.065   7.461  17.479  0.00  0.00    +0.000 A 
ATOM      7  C   UNL     1       5.203   6.360  17.682  0.00  0.00    +0.000 A 
BRANCH   2  11
ATOM      8  C   UNL     1       3.714   1.380  18.854  0.00  0.00    +0.000 A 
ATOM      9  C   UNL     1       3.765   1.882  17.563  0.00  0.00    +0.000 A 
ATOM     10  C   UNL     1       4.440   3.081  17.309  0.00  0.00    +0.000 A 
ATOM     11  C   UNL     1       5.056   3.839  18.332  0.00  0.00    +0.000 A 
ATOM     12  C   UNL     1       4.910   3.340  19.635  0.00  0.00    +0.000 A 
ATOM     13  C   UNL     1       4.282   2.112  19.891  0.00  0.00    +0.000 A 
ENDBRANCH   2  11
ENDBRANCH   1   7
BRANCH   1  14
ATOM     14  C   UNL     1       2.763   6.630  18.858  0.00  0.00    +0.000 C 
BRANCH  14  15
ATOM     15  C   UNL     1       1.992   7.951  18.969  0.00  0.00    +0.000 A 
ATOM     16  C   UNL     1       1.837   8.853  17.903  0.00  0.00    +0.000 A 
ATOM     17  C   UNL     1       1.278  10.110  18.116  0.00  0.00    +0.000 A 
ATOM     18  C   UNL     1       0.840  10.422  19.388  0.00  0.00    +0.000 A 
ATOM     19  N   UNL     1       0.903   9.567  20.429  0.00  0.00    +0.000 NA
ATOM     20  C   UNL     1       1.476   8.362  20.198  0.00  0.00    +0.000 A 
ENDBRANCH  14  15
BRANCH  14  21
ATOM     21  C   UNL     1       1.933   5.360  19.098  0.00  0.00    +0.000 A 
ATOM     22  C   UNL     1       1.645   4.831  20.364  0.00  0.00    +0.000 A 
ATOM     23  C   UNL     1       1.005   3.603  20.495  0.00  0.00    +0.000 A 
ATOM     24  C   UNL     1       0.619   2.942  19.344  0.00  0.00    +0.000 A 
ATOM     25  N   UNL     1       0.812   3.439  18.104  0.00  0.00    +0.000 NA
ATOM     26  C   UNL     1       1.455   4.628  18.011  0.00  0.00    +0.000 A 
ENDBRANCH  14  21
ENDBRANCH   1  14
TORSDOF 5
ENDMDL
MODEL 6
REMARK VINA RESULT:      -7.9      2.299      5.975
REMARK  Name = 
REMARK  5 active torsions:
REMARK  status: ('A' for Active; 'I' for Inactive)
REMARK    1  A    between atoms: C_4  and  C_5
REMARK    2  A    between atoms: C_10  and  C_11
REMARK    3  A    between atoms: C_11  and  C_12
REMARK    4  A    between atoms: C_12  and  C_13
REMARK    5  A    between atoms: C_12  and  C_19
REMARK                            x       y       z     vdW  Elec       q    Type
REMARK                         _______ _______ _______ _____ _____    ______ ____
ROOT
ATOM      1  C   UNL     1       3.215   6.567  18.100  0.00  0.00    +0.000 C 
ENDROOT
BRANCH   1   7
ATOM      2  C   UNL     1       5.322   5.087  17.712  0.00  0.00    +0.000 A 
ATOM      3  C   UNL     1       6.706   5.058  17.379  0.00  0.00    +0.000 A 
ATOM      4  C   UNL     1       7.472   6.209  17.185  0.00  0.00    +0.000 A 
ATOM      5  C   UNL     1       6.866   7.440  17.259  0.00  0.00    +0.000 A 
ATOM      6  C   UNL     1       5.503   7.504  17.520  0.00  0.00    +0.000 A 
ATOM      7  C   UNL     1       4.700   6.369  17.770  0.00  0.00    +0.000 A 
BRANCH   2  11
ATOM      8  C   UNL     1       3.420   1.337  18.819  0.00  0.00    +0.000 A 
ATOM      9  C   UNL     1       4.359   1.931  19.649  0.00  0.00    +0.000 A 
ATOM     10  C   UNL     1       4.958   3.137  19.269  0.00  0.00    +0.000 A 
ATOM     11  C   UNL     1       4.671   3.776  18.041  0.00  0.00    +0.000 A 
ATOM     12  C   UNL     1       3.778   3.102  17.194  0.00  0.00    +0.000 A 
ATOM     13  C   UNL     1       3.133   1.920  17.590  0.00  0.00    +0.000 A 
ENDBRANCH   2  11
ENDBRANCH   1   7
BRANCH   1  14
ATOM     14  C   UNL     1       2.685   6.585  19.587  0.00  0.00    +0.000 C 
BRANCH  14  15
ATOM     15  C   UNL     1       1.778   7.789  19.873  0.00  0.00    +0.000 A 
ATOM     16  C   UNL     1       1.541   8.821  18.950  0.00  0.00    +0.000 A 
ATOM     17  C   UNL     1       0.851   9.967  19.334  0.00  0.00    +0.000 A 
ATOM     18  C   UNL     1       0.368  10.037  20.626  0.00  0.00    +0.000 A 
ATOM     19  N   UNL     1       0.509   9.046  21.529  0.00  0.00    +0.000 NA
ATOM     20  C   UNL     1       1.208   7.954  21.136  0.00  0.00    +0.000 A 
ENDBRANCH  14  15
BRANCH  14  21
ATOM     21  C   UNL     1       2.164   5.232  20.093  0.00  0.00    +0.000 A 
ATOM     22  C   UNL     1       1.197   4.460  19.435  0.00  0.00    +0.000 A 
ATOM     23  C   UNL     1       0.676   3.313  20.026  0.00  0.00    +0.000 A 
ATOM     24  C   UNL     1       1.174   2.931  21.257  0.00  0.00    +0.000 A 
ATOM     25  N   UNL     1       2.152   3.600  21.902  0.00  0.00    +0.000 NA
ATOM     26  C   UNL     1       2.623   4.723  21.308  0.00  0.00    +0.000 A 
ENDBRANCH  14  21
ENDBRANCH   1  14
TORSDOF 5
ENDMDL
MODEL 7
REMARK VINA RESULT:      -7.8      2.353      5.933
REMARK  Name = 
REMARK  5 active torsions:
REMARK  status: ('A' for Active; 'I' for Inactive)
REMARK    1  A    between atoms: C_4  and  C_5
REMARK    2  A    between atoms: C_10  and  C_11
REMARK    3  A    between atoms: C_11  and  C_12
REMARK    4  A    between atoms: C_12  and  C_13
REMARK    5  A    between atoms: C_12  and  C_19
REMARK                            x       y       z     vdW  Elec       q    Type
REMARK                         _______ _______ _______ _____ _____    ______ ____
ROOT
ATOM      1  C   UNL     1       3.609   6.634  17.629  0.00  0.00    +0.000 C 
ENDROOT
BRANCH   1   7
ATOM      2  C   UNL     1       5.760   5.187  17.869  0.00  0.00    +0.000 A 
ATOM      3  C   UNL     1       7.183   5.165  17.848  0.00  0.00    +0.000 A 
ATOM      4  C   UNL     1       7.966   6.313  17.699  0.00  0.00    +0.000 A 
ATOM      5  C   UNL     1       7.349   7.525  17.504  0.00  0.00    +0.000 A 
ATOM      6  C   UNL     1       5.962   7.575  17.456  0.00  0.00    +0.000 A 
ATOM      7  C   UNL     1       5.131   6.448  17.650  0.00  0.00    +0.000 A 
BRANCH   2  11
ATOM      8  C   UNL     1       3.678   1.523  18.938  0.00  0.00    +0.000 A 
ATOM      9  C   UNL     1       4.327   2.280  19.902  0.00  0.00    +0.000 A 
ATOM     10  C   UNL     1       4.991   3.454  19.533  0.00  0.00    +0.000 A 
ATOM     11  C   UNL     1       5.063   3.898  18.192  0.00  0.00    +0.000 A 
ATOM     12  C   UNL     1       4.464   3.062  17.237  0.00  0.00    +0.000 A 
ATOM     13  C   UNL     1       3.750   1.911  17.605  0.00  0.00    +0.000 A 
ENDBRANCH   2  11
ENDBRANCH   1   7
BRANCH   1  14
ATOM     14  C   UNL     1       2.747   6.621  18.950  0.00  0.00    +0.000 C 
BRANCH  14  15
ATOM     15  C   UNL     1       2.009   7.946  19.184  0.00  0.00    +0.000 A 
ATOM     16  C   UNL     1       1.442   8.313  20.416  0.00  0.00    +0.000 A 
ATOM     17  C   UNL     1       0.639   9.445  20.514  0.00  0.00    +0.000 A 
ATOM     18  C   UNL     1       0.457  10.218  19.384  0.00  0.00    +0.000 A 
ATOM     19  N   UNL     1       1.034   9.947  18.196  0.00  0.00    +0.000 NA
ATOM     20  C   UNL     1       1.789   8.825  18.123  0.00  0.00    +0.000 A 
ENDBRANCH  14  15
BRANCH  14  21
ATOM     21  C   UNL     1       1.903   5.353  19.147  0.00  0.00    +0.000 A 
ATOM     22  C   UNL     1       1.591   4.795  20.394  0.00  0.00    +0.000 A 
ATOM     23  C   UNL     1       0.940   3.569  20.485  0.00  0.00    +0.000 A 
ATOM     24  C   UNL     1       0.566   2.942  19.312  0.00  0.00    +0.000 A 
ATOM     25  N   UNL     1       0.781   3.467  18.089  0.00  0.00    +0.000 NA
ATOM     26  C   UNL     1       1.434   4.653  18.035  0.00  0.00    +0.000 A 
ENDBRANCH  14  21
ENDBRANCH   1  14
TORSDOF 5
ENDMDL
MODEL 8
REMARK VINA RESULT:      -7.6      1.586      4.970
REMARK  Name = 
REMARK  5 active torsions:
REMARK  status: ('A' for Active; 'I' for Inactive)
REMARK    1  A    between atoms: C_4  and  C_5
REMARK    2  A    between atoms: C_10  and  C_11
REMARK    3  A    between atoms: C_11  and  C_12
REMARK    4  A    between atoms: C_12  and  C_13
REMARK    5  A    between atoms: C_12  and  C_19
REMARK                            x       y       z     vdW  Elec       q    Type
REMARK                         _______ _______ _______ _____ _____    ______ ____
ROOT
ATOM      1  C   UNL     1       4.159   4.403  16.394  0.00  0.00    +0.000 C 
ENDROOT
BRANCH   1   7
ATOM      2  C   UNL     1       2.658   4.320  18.520  0.00  0.00    +0.000 A 
ATOM      3  C   UNL     1       2.052   3.500  19.513  0.00  0.00    +0.000 A 
ATOM      4  C   UNL     1       2.261   2.121  19.601  0.00  0.00    +0.000 A 
ATOM      5  C   UNL     1       3.041   1.499  18.656  0.00  0.00    +0.000 A 
ATOM      6  C   UNL     1       3.598   2.259  17.636  0.00  0.00    +0.000 A 
ATOM      7  C   UNL     1       3.452   3.662  17.536  0.00  0.00    +0.000 A 
BRANCH   2  11
ATOM      8  C   UNL     1       2.158   8.609  19.037  0.00  0.00    +0.000 A 
ATOM      9  C   UNL     1       1.884   7.730  20.075  0.00  0.00    +0.000 A 
ATOM     10  C   UNL     1       2.051   6.354  19.883  0.00  0.00    +0.000 A 
ATOM     11  C   UNL     1       2.463   5.803  18.648  0.00  0.00    +0.000 A 
ATOM     12  C   UNL     1       2.650   6.718  17.601  0.00  0.00    +0.000 A 
ATOM     13  C   UNL     1       2.537   8.102  17.799  0.00  0.00    +0.000 A 
ENDBRANCH   2  11
ENDBRANCH   1   7
BRANCH   1  14
ATOM     14  C   UNL     1       5.724   4.346  16.203  0.00  0.00    +0.000 C 
BRANCH  14  15
ATOM     15  C   UNL     1       6.139   4.401  14.728  0.00  0.00    +0.000 A 
ATOM     16  C   UNL     1       5.542   3.622  13.722  0.00  0.00    +0.000 A 
ATOM     17  C   UNL     1       6.080   3.591  12.439  0.00  0.00    +0.000 A 
ATOM     18  C   UNL     1       7.183   4.380  12.174  0.00  0.00    +0.000 A 
ATOM     19  N   UNL     1       7.751   5.196  13.084  0.00  0.00    +0.000 NA
ATOM     20  C   UNL     1       7.222   5.186  14.331  0.00  0.00    +0.000 A 
ENDBRANCH  14  15
BRANCH  14  21
ATOM     21  C   UNL     1       6.514   5.268  17.145  0.00  0.00    +0.000 A 
ATOM     22  C   UNL     1       6.569   6.663  17.023  0.00  0.00    +0.000 A 
ATOM     23  C   UNL     1       7.416   7.417  17.830  0.00  0.00    +0.000 A 
ATOM     24  C   UNL     1       8.164   6.756  18.786  0.00  0.00    +0.000 A 
ATOM     25  N   UNL     1       8.098   5.425  18.989  0.00  0.00    +0.000 NA
ATOM     26  C   UNL     1       7.278   4.718  18.174  0.00  0.00    +0.000 A 
ENDBRANCH  14  21
ENDBRANCH   1  14
TORSDOF 5
ENDMDL
MODEL 9
REMARK VINA RESULT:      -7.5      0.933      3.824
REMARK  Name = 
REMARK  5 active torsions:
REMARK  status: ('A' for Active; 'I' for Inactive)
REMARK    1  A    between atoms: C_4  and  C_5
REMARK    2  A    between atoms: C_10  and  C_11
REMARK    3  A    between atoms: C_11  and  C_12
REMARK    4  A    between atoms: C_12  and  C_13
REMARK    5  A    between atoms: C_12  and  C_19
REMARK                            x       y       z     vdW  Elec       q    Type
REMARK                         _______ _______ _______ _____ _____    ______ ____
ROOT
ATOM      1  C   UNL     1       4.372   6.299  18.079  0.00  0.00    +0.000 C 
ENDROOT
BRANCH   1   7
ATOM      2  C   UNL     1       2.145   6.971  19.249  0.00  0.00    +0.000 A 
ATOM      3  C   UNL     1       1.148   7.974  19.416  0.00  0.00    +0.000 A 
ATOM      4  C   UNL     1       1.143   9.175  18.703  0.00  0.00    +0.000 A 
ATOM      5  C   UNL     1       2.172   9.445  17.833  0.00  0.00    +0.000 A 
ATOM      6  C   UNL     1       3.194   8.515  17.691  0.00  0.00    +0.000 A 
ATOM      7  C   UNL     1       3.216   7.268  18.356  0.00  0.00    +0.000 A 
BRANCH   2  11
ATOM      8  C   UNL     1       1.525   3.131  21.193  0.00  0.00    +0.000 A 
ATOM      9  C   UNL     1       0.816   3.473  20.051  0.00  0.00    +0.000 A 
ATOM     10  C   UNL     1       1.032   4.716  19.444  0.00  0.00    +0.000 A 
ATOM     11  C   UNL     1       1.932   5.672  19.969  0.00  0.00    +0.000 A 
ATOM     12  C   UNL     1       2.568   5.320  21.170  0.00  0.00    +0.000 A 
ATOM     13  C   UNL     1       2.397   4.056  21.755  0.00  0.00    +0.000 A 
ENDBRANCH   2  11
ENDBRANCH   1   7
BRANCH   1  14
ATOM     14  C   UNL     1       4.210   5.058  17.118  0.00  0.00    +0.000 C 
BRANCH  14  15
ATOM     15  C   UNL     1       5.264   5.036  16.004  0.00  0.00    +0.000 A 
ATOM     16  C   UNL     1       5.114   4.318  14.805  0.00  0.00    +0.000 A 
ATOM     17  C   UNL     1       6.178   4.199  13.916  0.00  0.00    +0.000 A 
ATOM     18  C   UNL     1       7.361   4.844  14.220  0.00  0.00    +0.000 A 
ATOM     19  N   UNL     1       7.533   5.601  15.323  0.00  0.00    +0.000 NA
ATOM     20  C   UNL     1       6.490   5.677  16.183  0.00  0.00    +0.000 A 
ENDBRANCH  14  15
BRANCH  14  21
ATOM     21  C   UNL     1       3.984   3.720  17.838  0.00  0.00    +0.000 A 
ATOM     22  C   UNL     1       4.685   3.307  18.979  0.00  0.00    +0.000 A 
ATOM     23  C   UNL     1       4.522   2.024  19.492  0.00  0.00    +0.000 A 
ATOM     24  C   UNL     1       3.612   1.187  18.874  0.00  0.00    +0.000 A 
ATOM     25  N   UNL     1       2.862   1.558  17.816  0.00  0.00    +0.000 NA
ATOM     26  C   UNL     1       3.060   2.807  17.330  0.00  0.00    +0.000 A 
ENDBRANCH  14  21
ENDBRANCH   1  14
TORSDOF 5
ENDMDL
