MODEL 1
REMARK VINA RESULT:      -7.4      0.000      0.000
REMARK  Name = 
REMARK  11 active torsions:
REMARK  status: ('A' for Active; 'I' for Inactive)
REMARK    1  A    between atoms: C_1  and  C_2
REMARK    2  A    between atoms: C_2  and  O_3
REMARK    3  A    between atoms: O_3  and  C_4
REMARK    4  A    between atoms: C_4  and  C_6
REMARK    5  A    between atoms: C_7  and  C_8
REMARK    6  A    between atoms: C_11  and  O_12
REMARK    7  A    between atoms: C_13  and  O_14
REMARK    8  A    between atoms: O_14  and  C_15
REMARK    9  A    between atoms: C_21  and  O_22
REMARK   10  A    between atoms: C_24  and  C_25
REMARK   11  A    between atoms: C_24  and  O_26
REMARK                            x       y       z     vdW  Elec       q    Type
REMARK                         _______ _______ _______ _____ _____    ______ ____
ROOT
ATOM      1  C   UNL     1       4.932   4.285  18.686  0.00  0.00    +0.000 C 
ATOM      2  C   UNL     1       3.571   4.548  19.394  0.00  0.00    +0.000 C 
ATOM      3  C   UNL     1       2.597   3.487  18.983  0.00  0.00    +0.000 A 
ATOM      4  C   UNL     1       2.785   2.624  17.873  0.00  0.00    +0.000 A 
ATOM      5  N   UNL     1       1.775   1.770  17.719  0.00  0.00    +0.000 NA
ATOM      6  N   UNL     1       0.947   2.068  18.734  0.00  0.00    +0.000 N 
ATOM      7  C   UNL     1       1.407   3.076  19.543  0.00  0.00    +0.000 A 
ATOM      8  C   UNL     1       3.990   2.608  16.995  0.00  0.00    +0.000 C 
ATOM      9  C   UNL     1       4.865   3.884  17.172  0.00  0.00    +0.000 C 
ATOM     10  C   UNL     1       4.368   4.983  16.222  0.00  0.00    +0.000 C 
ATOM     11  H   UNL     1       0.092   1.536  18.821  0.00  0.00    +0.000 HD
ENDROOT
BRANCH   2  12
ATOM     12  C   UNL     1       2.927   5.913  19.158  0.00  0.00    +0.000 A 
ATOM     13  C   UNL     1       2.838   6.529  17.901  0.00  0.00    +0.000 A 
ATOM     14  C   UNL     1       2.427   7.857  17.770  0.00  0.00    +0.000 A 
ATOM     15  C   UNL     1       2.012   8.573  18.889  0.00  0.00    +0.000 A 
ATOM     16  C   UNL     1       1.925   7.942  20.130  0.00  0.00    +0.000 A 
ATOM     17  C   UNL     1       2.418   6.633  20.260  0.00  0.00    +0.000 A 
BRANCH  15  18
ATOM     18  O   UNL     1       1.724   9.900  18.739  0.00  0.00    +0.000 OA
ATOM     19  H   UNL     1       1.634  10.086  17.789  0.00  0.00    +0.000 HD
ENDBRANCH  15  18
BRANCH  16  20
ATOM     20  O   UNL     1       1.449   8.493  21.292  0.00  0.00    +0.000 OA
ATOM     21  C   UNL     1       0.029   8.534  21.418  0.00  0.00    +0.000 C 
ENDBRANCH  16  20
ENDBRANCH   2  12
BRANCH   1  22
ATOM     22  C   UNL     1       5.977   5.335  18.998  0.00  0.00    +0.000 C 
ATOM     23  O   UNL     1       6.559   5.480  20.065  0.00  0.00    +0.000 OA
BRANCH  22  24
ATOM     24  O   UNL     1       6.040   6.221  17.959  0.00  0.00    +0.000 OA
BRANCH  24  26
ATOM     25  C   UNL     1       7.528   8.057  17.618  0.00  0.00    +0.000 C 
ATOM     26  C   UNL     1       7.366   6.550  17.517  0.00  0.00    +0.000 C 
ENDBRANCH  24  26
ENDBRANCH  22  24
ENDBRANCH   1  22
BRANCH   7  27
ATOM     27  O   UNL     1       0.768   3.515  20.627  0.00  0.00    +0.000 OA
ATOM     28  H   UNL     1       0.106   4.178  20.378  0.00  0.00    +0.000 HD
ENDBRANCH   7  27
BRANCH   9  29
ATOM     29  O   UNL     1       6.181   3.533  16.690  0.00  0.00    +0.000 OA
ATOM     30  H   UNL     1       6.533   4.242  16.127  0.00  0.00    +0.000 HD
ENDBRANCH   9  29
TORSDOF 8
ENDMDL
MODEL 2
REMARK VINA RESULT:      -6.9      1.957      5.338
REMARK  Name = 
REMARK  11 active torsions:
REMARK  status: ('A' for Active; 'I' for Inactive)
REMARK    1  A    between atoms: C_1  and  C_2
REMARK    2  A    between atoms: C_2  and  O_3
REMARK    3  A    between atoms: O_3  and  C_4
REMARK    4  A    between atoms: C_4  and  C_6
REMARK    5  A    between atoms: C_7  and  C_8
REMARK    6  A    between atoms: C_11  and  O_12
REMARK    7  A    between atoms: C_13  and  O_14
REMARK    8  A    between atoms: O_14  and  C_15
REMARK    9  A    between atoms: C_21  and  O_22
REMARK   10  A    between atoms: C_24  and  C_25
REMARK   11  A    between atoms: C_24  and  O_26
REMARK                            x       y       z     vdW  Elec       q    Type
REMARK                         _______ _______ _______ _____ _____    ______ ____
ROOT
ATOM      1  C   UNL     1       2.111   6.121  18.406  0.00  0.00    +0.000 C 
ATOM      2  C   UNL     1       2.526   4.800  17.695  0.00  0.00    +0.000 C 
ATOM      3  C   UNL     1       1.958   3.641  18.455  0.00  0.00    +0.000 A 
ATOM      4  C   UNL     1       1.449   3.731  19.776  0.00  0.00    +0.000 A 
ATOM      5  N   UNL     1       1.003   2.561  20.227  0.00  0.00    +0.000 NA
ATOM      6  N   UNL     1       1.207   1.722  19.199  0.00  0.00    +0.000 N 
ATOM      7  C   UNL     1       1.754   2.327  18.095  0.00  0.00    +0.000 A 
ATOM      8  C   UNL     1       1.354   4.987  20.573  0.00  0.00    +0.000 C 
ATOM      9  C   UNL     1       2.216   6.135  19.969  0.00  0.00    +0.000 C 
ATOM     10  C   UNL     1       3.641   6.058  20.533  0.00  0.00    +0.000 C 
ATOM     11  H   UNL     1       0.939   0.755  19.314  0.00  0.00    +0.000 HD
ENDROOT
BRANCH   2  12
ATOM     12  C   UNL     1       4.024   4.564  17.503  0.00  0.00    +0.000 A 
ATOM     13  C   UNL     1       4.899   4.212  18.540  0.00  0.00    +0.000 A 
ATOM     14  C   UNL     1       6.282   4.209  18.354  0.00  0.00    +0.000 A 
ATOM     15  C   UNL     1       6.818   4.475  17.097  0.00  0.00    +0.000 A 
ATOM     16  C   UNL     1       5.973   4.663  16.003  0.00  0.00    +0.000 A 
ATOM     17  C   UNL     1       4.588   4.743  16.223  0.00  0.00    +0.000 A 
BRANCH  15  18
ATOM     18  O   UNL     1       8.176   4.573  16.979  0.00  0.00    +0.000 OA
ATOM     19  H   UNL     1       8.401   4.548  16.034  0.00  0.00    +0.000 HD
ENDBRANCH  15  18
BRANCH  16  20
ATOM     20  O   UNL     1       6.358   4.840  14.699  0.00  0.00    +0.000 OA
ATOM     21  C   UNL     1       5.917   3.840  13.784  0.00  0.00    +0.000 C 
ENDBRANCH  16  20
ENDBRANCH   2  12
BRANCH   1  22
ATOM     22  C   UNL     1       2.678   7.356  17.740  0.00  0.00    +0.000 C 
ATOM     23  O   UNL     1       3.863   7.597  17.552  0.00  0.00    +0.000 OA
BRANCH  22  24
ATOM     24  O   UNL     1       1.669   8.258  17.545  0.00  0.00    +0.000 OA
BRANCH  24  26
ATOM     25  C   UNL     1       0.713  10.197  18.558  0.00  0.00    +0.000 C 
ATOM     26  C   UNL     1       1.969   9.606  17.940  0.00  0.00    +0.000 C 
ENDBRANCH  24  26
ENDBRANCH  22  24
ENDBRANCH   1  22
BRANCH   7  27
ATOM     27  O   UNL     1       2.012   1.698  16.949  0.00  0.00    +0.000 OA
ATOM     28  H   UNL     1       2.335   0.800  17.127  0.00  0.00    +0.000 HD
ENDBRANCH   7  27
BRANCH   9  29
ATOM     29  O   UNL     1       1.666   7.364  20.496  0.00  0.00    +0.000 OA
ATOM     30  H   UNL     1       2.197   8.122  20.203  0.00  0.00    +0.000 HD
ENDBRANCH   9  29
TORSDOF 8
ENDMDL
MODEL 3
REMARK VINA RESULT:      -6.8      8.228     11.046
REMARK  Name = 
REMARK  11 active torsions:
REMARK  status: ('A' for Active; 'I' for Inactive)
REMARK    1  A    between atoms: C_1  and  C_2
REMARK    2  A    between atoms: C_2  and  O_3
REMARK    3  A    between atoms: O_3  and  C_4
REMARK    4  A    between atoms: C_4  and  C_6
REMARK    5  A    between atoms: C_7  and  C_8
REMARK    6  A    between atoms: C_11  and  O_12
REMARK    7  A    between atoms: C_13  and  O_14
REMARK    8  A    between atoms: O_14  and  C_15
REMARK    9  A    between atoms: C_21  and  O_22
REMARK   10  A    between atoms: C_24  and  C_25
REMARK   11  A    between atoms: C_24  and  O_26
REMARK                            x       y       z     vdW  Elec       q    Type
REMARK                         _______ _______ _______ _____ _____    ______ ____
ROOT
ATOM      1  C   UNL     1      10.058  12.351  18.436  0.00  0.00    +0.000 C 
ATOM      2  C   UNL     1       9.210  13.623  18.726  0.00  0.00    +0.000 C 
ATOM      3  C   UNL     1       9.735  14.756  17.899  0.00  0.00    +0.000 A 
ATOM      4  C   UNL     1      10.998  14.747  17.252  0.00  0.00    +0.000 A 
ATOM      5  N   UNL     1      11.230  15.873  16.580  0.00  0.00    +0.000 NA
ATOM      6  N   UNL     1      10.117  16.599  16.777  0.00  0.00    +0.000 N 
ATOM      7  C   UNL     1       9.172  15.961  17.540  0.00  0.00    +0.000 A 
ATOM      8  C   UNL     1      11.954  13.603  17.255  0.00  0.00    +0.000 C 
ATOM      9  C   UNL     1      11.610  12.551  18.349  0.00  0.00    +0.000 C 
ATOM     10  C   UNL     1      12.297  12.938  19.666  0.00  0.00    +0.000 C 
ATOM     11  H   UNL     1      10.065  17.513  16.351  0.00  0.00    +0.000 HD
ENDROOT
BRANCH   2  12
ATOM     12  C   UNL     1       9.138  14.082  20.182  0.00  0.00    +0.000 A 
ATOM     13  C   UNL     1      10.183  14.738  20.848  0.00  0.00    +0.000 A 
ATOM     14  C   UNL     1      10.144  14.952  22.227  0.00  0.00    +0.000 A 
ATOM     15  C   UNL     1       9.017  14.590  22.959  0.00  0.00    +0.000 A 
ATOM     16  C   UNL     1       7.890  14.090  22.305  0.00  0.00    +0.000 A 
ATOM     17  C   UNL     1       7.975  13.806  20.932  0.00  0.00    +0.000 A 
BRANCH  15  18
ATOM     18  O   UNL     1       9.060  14.712  24.319  0.00  0.00    +0.000 OA
ATOM     19  H   UNL     1       8.567  13.970  24.707  0.00  0.00    +0.000 HD
ENDBRANCH  15  18
BRANCH  16  20
ATOM     20  O   UNL     1       6.685  13.781  22.881  0.00  0.00    +0.000 OA
ATOM     21  C   UNL     1       6.506  12.412  23.240  0.00  0.00    +0.000 C 
ENDBRANCH  16  20
ENDBRANCH   2  12
BRANCH   1  22
ATOM     22  C   UNL     1       9.637  11.155  19.263  0.00  0.00    +0.000 C 
ATOM     23  O   UNL     1       9.602  11.097  20.485  0.00  0.00    +0.000 OA
BRANCH  22  24
ATOM     24  O   UNL     1       9.479  10.077  18.436  0.00  0.00    +0.000 OA
BRANCH  24  26
ATOM     25  C   UNL     1       7.971   8.355  17.758  0.00  0.00    +0.000 C 
ATOM     26  C   UNL     1       8.137   9.849  17.980  0.00  0.00    +0.000 C 
ENDBRANCH  24  26
ENDBRANCH  22  24
ENDBRANCH   1  22
BRANCH   7  27
ATOM     27  O   UNL     1       7.979  16.476  17.837  0.00  0.00    +0.000 OA
ATOM     28  H   UNL     1       7.491  16.678  17.024  0.00  0.00    +0.000 HD
ENDBRANCH   7  27
BRANCH   9  29
ATOM     29  O   UNL     1      12.250  11.323  17.934  0.00  0.00    +0.000 OA
ATOM     30  H   UNL     1      13.190  11.336  18.177  0.00  0.00    +0.000 HD
ENDBRANCH   9  29
TORSDOF 8
ENDMDL
MODEL 4
REMARK VINA RESULT:      -6.8      1.734      5.073
REMARK  Name = 
REMARK  11 active torsions:
REMARK  status: ('A' for Active; 'I' for Inactive)
REMARK    1  A    between atoms: C_1  and  C_2
REMARK    2  A    between atoms: C_2  and  O_3
REMARK    3  A    between atoms: O_3  and  C_4
REMARK    4  A    between atoms: C_4  and  C_6
REMARK    5  A    between atoms: C_7  and  C_8
REMARK    6  A    between atoms: C_11  and  O_12
REMARK    7  A    between atoms: C_13  and  O_14
REMARK    8  A    between atoms: O_14  and  C_15
REMARK    9  A    between atoms: C_21  and  O_22
REMARK   10  A    between atoms: C_24  and  C_25
REMARK   11  A    between atoms: C_24  and  O_26
REMARK                            x       y       z     vdW  Elec       q    Type
REMARK                         _______ _______ _______ _____ _____    ______ ____
ROOT
ATOM      1  C   UNL     1       2.006   6.176  18.413  0.00  0.00    +0.000 C 
ATOM      2  C   UNL     1       2.515   4.921  17.646  0.00  0.00    +0.000 C 
ATOM      3  C   UNL     1       2.129   3.694  18.413  0.00  0.00    +0.000 A 
ATOM      4  C   UNL     1       1.700   3.705  19.765  0.00  0.00    +0.000 A 
ATOM      5  N   UNL     1       1.416   2.485  20.215  0.00  0.00    +0.000 NA
ATOM      6  N   UNL     1       1.643   1.691  19.156  0.00  0.00    +0.000 N 
ATOM      7  C   UNL     1       2.046   2.371  18.035  0.00  0.00    +0.000 A 
ATOM      8  C   UNL     1       1.521   4.929  20.596  0.00  0.00    +0.000 C 
ATOM      9  C   UNL     1       2.211   6.175  19.967  0.00  0.00    +0.000 C 
ATOM     10  C   UNL     1       3.670   6.247  20.438  0.00  0.00    +0.000 C 
ATOM     11  H   UNL     1       1.490   0.698  19.265  0.00  0.00    +0.000 HD
ENDROOT
BRANCH   2  12
ATOM     12  C   UNL     1       4.014   4.856  17.354  0.00  0.00    +0.000 A 
ATOM     13  C   UNL     1       4.555   4.714  16.069  0.00  0.00    +0.000 A 
ATOM     14  C   UNL     1       5.913   4.455  15.877  0.00  0.00    +0.000 A 
ATOM     15  C   UNL     1       6.778   4.419  16.967  0.00  0.00    +0.000 A 
ATOM     16  C   UNL     1       6.306   4.724  18.244  0.00  0.00    +0.000 A 
ATOM     17  C   UNL     1       4.925   4.902  18.431  0.00  0.00    +0.000 A 
BRANCH  15  18
ATOM     18  O   UNL     1       8.077   4.054  16.752  0.00  0.00    +0.000 OA
ATOM     19  H   UNL     1       8.632   4.499  17.414  0.00  0.00    +0.000 HD
ENDBRANCH  15  18
BRANCH  16  20
ATOM     20  O   UNL     1       7.056   4.817  19.388  0.00  0.00    +0.000 OA
ATOM     21  C   UNL     1       7.922   5.948  19.467  0.00  0.00    +0.000 C 
ENDBRANCH  16  20
ENDBRANCH   2  12
BRANCH   1  22
ATOM     22  C   UNL     1       2.390   7.478  17.743  0.00  0.00    +0.000 C 
ATOM     23  O   UNL     1       3.521   7.825  17.432  0.00  0.00    +0.000 OA
BRANCH  22  24
ATOM     24  O   UNL     1       1.295   8.296  17.703  0.00  0.00    +0.000 OA
BRANCH  24  26
ATOM     25  C   UNL     1       0.340  10.259  18.671  0.00  0.00    +0.000 C 
ATOM     26  C   UNL     1       1.559   9.682  17.969  0.00  0.00    +0.000 C 
ENDBRANCH  24  26
ENDBRANCH  22  24
ENDBRANCH   1  22
BRANCH   7  27
ATOM     27  O   UNL     1       2.296   1.794  16.860  0.00  0.00    +0.000 OA
ATOM     28  H   UNL     1       1.768   0.986  16.767  0.00  0.00    +0.000 HD
ENDBRANCH   7  27
BRANCH   9  29
ATOM     29  O   UNL     1       1.565   7.326  20.556  0.00  0.00    +0.000 OA
ATOM     30  H   UNL     1       0.603   7.199  20.573  0.00  0.00    +0.000 HD
ENDBRANCH   9  29
TORSDOF 8
ENDMDL
MODEL 5
REMARK VINA RESULT:      -6.6      6.934      9.671
REMARK  Name = 
REMARK  11 active torsions:
REMARK  status: ('A' for Active; 'I' for Inactive)
REMARK    1  A    between atoms: C_1  and  C_2
REMARK    2  A    between atoms: C_2  and  O_3
REMARK    3  A    between atoms: O_3  and  C_4
REMARK    4  A    between atoms: C_4  and  C_6
REMARK    5  A    between atoms: C_7  and  C_8
REMARK    6  A    between atoms: C_11  and  O_12
REMARK    7  A    between atoms: C_13  and  O_14
REMARK    8  A    between atoms: O_14  and  C_15
REMARK    9  A    between atoms: C_21  and  O_22
REMARK   10  A    between atoms: C_24  and  C_25
REMARK   11  A    between atoms: C_24  and  O_26
REMARK                            x       y       z     vdW  Elec       q    Type
REMARK                         _______ _______ _______ _____ _____    ______ ____
ROOT
ATOM      1  C   UNL     1      -0.764  11.712  18.326  0.00  0.00    +0.000 C 
ATOM      2  C   UNL     1      -0.945  13.008  19.168  0.00  0.00    +0.000 C 
ATOM      3  C   UNL     1       0.396  13.638  19.386  0.00  0.00    +0.000 A 
ATOM      4  C   UNL     1       1.630  12.971  19.171  0.00  0.00    +0.000 A 
ATOM      5  N   UNL     1       2.678  13.748  19.437  0.00  0.00    +0.000 NA
ATOM      6  N   UNL     1       2.126  14.915  19.805  0.00  0.00    +0.000 N 
ATOM      7  C   UNL     1       0.754  14.913  19.764  0.00  0.00    +0.000 A 
ATOM      8  C   UNL     1       1.772  11.581  18.651  0.00  0.00    +0.000 C 
ATOM      9  C   UNL     1       0.436  10.785  18.722  0.00  0.00    +0.000 C 
ATOM     10  C   UNL     1       0.317  10.104  20.092  0.00  0.00    +0.000 C 
ATOM     11  H   UNL     1       2.743  15.674  20.059  0.00  0.00    +0.000 HD
ENDROOT
BRANCH   2  12
ATOM     12  C   UNL     1      -1.633  12.855  20.524  0.00  0.00    +0.000 A 
ATOM     13  C   UNL     1      -0.972  12.457  21.696  0.00  0.00    +0.000 A 
ATOM     14  C   UNL     1      -1.679  12.137  22.855  0.00  0.00    +0.000 A 
ATOM     15  C   UNL     1      -3.062  12.291  22.895  0.00  0.00    +0.000 A 
ATOM     16  C   UNL     1      -3.735  12.845  21.806  0.00  0.00    +0.000 A 
ATOM     17  C   UNL     1      -3.021  13.086  20.620  0.00  0.00    +0.000 A 
BRANCH  15  18
ATOM     18  O   UNL     1      -3.730  11.862  24.007  0.00  0.00    +0.000 OA
ATOM     19  H   UNL     1      -4.680  11.838  23.801  0.00  0.00    +0.000 HD
ENDBRANCH  15  18
BRANCH  16  20
ATOM     20  O   UNL     1      -5.072  13.140  21.740  0.00  0.00    +0.000 OA
ATOM     21  C   UNL     1      -5.862  12.248  20.955  0.00  0.00    +0.000 C 
ENDBRANCH  16  20
ENDBRANCH   2  12
BRANCH   1  22
ATOM     22  C   UNL     1      -2.062  10.970  18.090  0.00  0.00    +0.000 C 
ATOM     23  O   UNL     1      -2.307   9.818  18.423  0.00  0.00    +0.000 OA
BRANCH  22  24
ATOM     24  O   UNL     1      -2.863  11.724  17.278  0.00  0.00    +0.000 OA
BRANCH  24  26
ATOM     25  C   UNL     1      -3.157  10.690  15.146  0.00  0.00    +0.000 C 
ATOM     26  C   UNL     1      -3.805  10.981  16.489  0.00  0.00    +0.000 C 
ENDBRANCH  24  26
ENDBRANCH  22  24
ENDBRANCH   1  22
BRANCH   7  27
ATOM     27  O   UNL     1      -0.004  15.970  20.056  0.00  0.00    +0.000 OA
ATOM     28  H   UNL     1       0.201  16.291  20.948  0.00  0.00    +0.000 HD
ENDBRANCH   7  27
BRANCH   9  29
ATOM     29  O   UNL     1       0.567   9.704  17.771  0.00  0.00    +0.000 OA
ATOM     30  H   UNL     1       0.953   8.924  18.201  0.00  0.00    +0.000 HD
ENDBRANCH   9  29
TORSDOF 8
ENDMDL
MODEL 6
REMARK VINA RESULT:      -6.6      7.614     10.014
REMARK  Name = 
REMARK  11 active torsions:
REMARK  status: ('A' for Active; 'I' for Inactive)
REMARK    1  A    between atoms: C_1  and  C_2
REMARK    2  A    between atoms: C_2  and  O_3
REMARK    3  A    between atoms: O_3  and  C_4
REMARK    4  A    between atoms: C_4  and  C_6
REMARK    5  A    between atoms: C_7  and  C_8
REMARK    6  A    between atoms: C_11  and  O_12
REMARK    7  A    between atoms: C_13  and  O_14
REMARK    8  A    between atoms: O_14  and  C_15
REMARK    9  A    between atoms: C_21  and  O_22
REMARK   10  A    between atoms: C_24  and  C_25
REMARK   11  A    between atoms: C_24  and  O_26
REMARK                            x       y       z     vdW  Elec       q    Type
REMARK                         _______ _______ _______ _____ _____    ______ ____
ROOT
ATOM      1  C   UNL     1      -0.665  12.054  18.360  0.00  0.00    +0.000 C 
ATOM      2  C   UNL     1      -1.330  13.300  19.013  0.00  0.00    +0.000 C 
ATOM      3  C   UNL     1      -0.320  14.403  19.093  0.00  0.00    +0.000 A 
ATOM      4  C   UNL     1       1.077  14.213  18.935  0.00  0.00    +0.000 A 
ATOM      5  N   UNL     1       1.759  15.350  19.051  0.00  0.00    +0.000 NA
ATOM      6  N   UNL     1       0.808  16.273  19.267  0.00  0.00    +0.000 N 
ATOM      7  C   UNL     1      -0.466  15.761  19.272  0.00  0.00    +0.000 A 
ATOM      8  C   UNL     1       1.733  12.913  18.615  0.00  0.00    +0.000 C 
ATOM      9  C   UNL     1       0.784  11.701  18.843  0.00  0.00    +0.000 C 
ATOM     10  C   UNL     1       0.894  11.231  20.300  0.00  0.00    +0.000 C 
ATOM     11  H   UNL     1       1.096  17.234  19.388  0.00  0.00    +0.000 HD
ENDROOT
BRANCH   2  12
ATOM     12  C   UNL     1      -1.942  13.104  20.399  0.00  0.00    +0.000 A 
ATOM     13  C   UNL     1      -1.201  13.112  21.590  0.00  0.00    +0.000 A 
ATOM     14  C   UNL     1      -1.772  12.726  22.803  0.00  0.00    +0.000 A 
ATOM     15  C   UNL     1      -3.125  12.408  22.868  0.00  0.00    +0.000 A 
ATOM     16  C   UNL     1      -3.932  12.552  21.739  0.00  0.00    +0.000 A 
ATOM     17  C   UNL     1      -3.327  12.861  20.510  0.00  0.00    +0.000 A 
BRANCH  15  18
ATOM     18  O   UNL     1      -3.622  11.929  24.048  0.00  0.00    +0.000 OA
ATOM     19  H   UNL     1      -2.888  11.541  24.552  0.00  0.00    +0.000 HD
ENDBRANCH  15  18
BRANCH  16  20
ATOM     20  O   UNL     1      -5.289  12.364  21.680  0.00  0.00    +0.000 OA
ATOM     21  C   UNL     1      -5.820  12.110  20.381  0.00  0.00    +0.000 C 
ENDBRANCH  16  20
ENDBRANCH   2  12
BRANCH   1  22
ATOM     22  C   UNL     1      -1.592  10.860  18.276  0.00  0.00    +0.000 C 
ATOM     23  O   UNL     1      -1.434   9.781  18.831  0.00  0.00    +0.000 OA
BRANCH  22  24
ATOM     24  O   UNL     1      -2.549  11.107  17.330  0.00  0.00    +0.000 OA
BRANCH  24  26
ATOM     25  C   UNL     1      -2.898  10.395  15.078  0.00  0.00    +0.000 C 
ATOM     26  C   UNL     1      -2.930   9.972  16.537  0.00  0.00    +0.000 C 
ENDBRANCH  24  26
ENDBRANCH  22  24
ENDBRANCH   1  22
BRANCH   7  27
ATOM     27  O   UNL     1      -1.566  16.495  19.435  0.00  0.00    +0.000 OA
ATOM     28  H   UNL     1      -2.078  16.514  18.612  0.00  0.00    +0.000 HD
ENDBRANCH   7  27
BRANCH   9  29
ATOM     29  O   UNL     1       1.325  10.618  18.054  0.00  0.00    +0.000 OA
ATOM     30  H   UNL     1       0.807   9.809  18.195  0.00  0.00    +0.000 HD
ENDBRANCH   9  29
TORSDOF 8
ENDMDL
MODEL 7
REMARK VINA RESULT:      -6.5      0.845      1.113
REMARK  Name = 
REMARK  11 active torsions:
REMARK  status: ('A' for Active; 'I' for Inactive)
REMARK    1  A    between atoms: C_1  and  C_2
REMARK    2  A    between atoms: C_2  and  O_3
REMARK    3  A    between atoms: O_3  and  C_4
REMARK    4  A    between atoms: C_4  and  C_6
REMARK    5  A    between atoms: C_7  and  C_8
REMARK    6  A    between atoms: C_11  and  O_12
REMARK    7  A    between atoms: C_13  and  O_14
REMARK    8  A    between atoms: O_14  and  C_15
REMARK    9  A    between atoms: C_21  and  O_22
REMARK   10  A    between atoms: C_24  and  C_25
REMARK   11  A    between atoms: C_24  and  O_26
REMARK                            x       y       z     vdW  Elec       q    Type
REMARK                         _______ _______ _______ _____ _____    ______ ____
ROOT
ATOM      1  C   UNL     1       4.794   4.624  18.718  0.00  0.00    +0.000 C 
ATOM      2  C   UNL     1       3.435   4.877  19.432  0.00  0.00    +0.000 C 
ATOM      3  C   UNL     1       2.485   3.777  19.072  0.00  0.00    +0.000 A 
ATOM      4  C   UNL     1       2.684   2.878  17.992  0.00  0.00    +0.000 A 
ATOM      5  N   UNL     1       1.696   1.993  17.882  0.00  0.00    +0.000 NA
ATOM      6  N   UNL     1       0.871   2.306  18.894  0.00  0.00    +0.000 N 
ATOM      7  C   UNL     1       1.313   3.354  19.661  0.00  0.00    +0.000 A 
ATOM      8  C   UNL     1       3.880   2.862  17.102  0.00  0.00    +0.000 C 
ATOM      9  C   UNL     1       4.722   4.166  17.221  0.00  0.00    +0.000 C 
ATOM     10  C   UNL     1       4.185   5.215  16.238  0.00  0.00    +0.000 C 
ATOM     11  H   UNL     1       0.033   1.755  19.011  0.00  0.00    +0.000 HD
ENDROOT
BRANCH   2  12
ATOM     12  C   UNL     1       2.751   6.215  19.154  0.00  0.00    +0.000 A 
ATOM     13  C   UNL     1       2.619   6.775  17.875  0.00  0.00    +0.000 A 
ATOM     14  C   UNL     1       2.173   8.085  17.698  0.00  0.00    +0.000 A 
ATOM     15  C   UNL     1       1.764   8.838  18.795  0.00  0.00    +0.000 A 
ATOM     16  C   UNL     1       1.721   8.258  20.063  0.00  0.00    +0.000 A 
ATOM     17  C   UNL     1       2.249   6.968  20.236  0.00  0.00    +0.000 A 
BRANCH  15  18
ATOM     18  O   UNL     1       1.440  10.150  18.596  0.00  0.00    +0.000 OA
ATOM     19  H   UNL     1       2.134  10.699  18.998  0.00  0.00    +0.000 HD
ENDBRANCH  15  18
BRANCH  16  20
ATOM     20  O   UNL     1       1.257   8.846  21.211  0.00  0.00    +0.000 OA
ATOM     21  C   UNL     1      -0.148   8.739  21.435  0.00  0.00    +0.000 C 
ENDBRANCH  16  20
ENDBRANCH   2  12
BRANCH   1  22
ATOM     22  C   UNL     1       5.814   5.712  18.979  0.00  0.00    +0.000 C 
ATOM     23  O   UNL     1       5.982   6.722  18.308  0.00  0.00    +0.000 OA
BRANCH  22  24
ATOM     24  O   UNL     1       6.652   5.304  19.980  0.00  0.00    +0.000 OA
BRANCH  24  26
ATOM     25  C   UNL     1       8.428   4.695  18.505  0.00  0.00    +0.000 C 
ATOM     26  C   UNL     1       8.050   5.513  19.729  0.00  0.00    +0.000 C 
ENDBRANCH  24  26
ENDBRANCH  22  24
ENDBRANCH   1  22
BRANCH   7  27
ATOM     27  O   UNL     1       0.675   3.816  20.735  0.00  0.00    +0.000 OA
ATOM     28  H   UNL     1      -0.166   4.224  20.474  0.00  0.00    +0.000 HD
ENDBRANCH   7  27
BRANCH   9  29
ATOM     29  O   UNL     1       6.042   3.832  16.736  0.00  0.00    +0.000 OA
ATOM     30  H   UNL     1       6.637   4.593  16.833  0.00  0.00    +0.000 HD
ENDBRANCH   9  29
TORSDOF 8
ENDMDL
MODEL 8
REMARK VINA RESULT:      -6.5      6.856      9.391
REMARK  Name = 
REMARK  11 active torsions:
REMARK  status: ('A' for Active; 'I' for Inactive)
REMARK    1  A    between atoms: C_1  and  C_2
REMARK    2  A    between atoms: C_2  and  O_3
REMARK    3  A    between atoms: O_3  and  C_4
REMARK    4  A    between atoms: C_4  and  C_6
REMARK    5  A    between atoms: C_7  and  C_8
REMARK    6  A    between atoms: C_11  and  O_12
REMARK    7  A    between atoms: C_13  and  O_14
REMARK    8  A    between atoms: O_14  and  C_15
REMARK    9  A    between atoms: C_21  and  O_22
REMARK   10  A    between atoms: C_24  and  C_25
REMARK   11  A    between atoms: C_24  and  O_26
REMARK                            x       y       z     vdW  Elec       q    Type
REMARK                         _______ _______ _______ _____ _____    ______ ____
ROOT
ATOM      1  C   UNL     1      -0.847  11.609  18.114  0.00  0.00    +0.000 C 
ATOM      2  C   UNL     1      -1.114  12.828  19.044  0.00  0.00    +0.000 C 
ATOM      3  C   UNL     1       0.194  13.469  19.391  0.00  0.00    +0.000 A 
ATOM      4  C   UNL     1       1.457  12.852  19.198  0.00  0.00    +0.000 A 
ATOM      5  N   UNL     1       2.465  13.629  19.587  0.00  0.00    +0.000 NA
ATOM      6  N   UNL     1       1.860  14.750  20.014  0.00  0.00    +0.000 N 
ATOM      7  C   UNL     1       0.493  14.718  19.890  0.00  0.00    +0.000 A 
ATOM      8  C   UNL     1       1.669  11.513  18.578  0.00  0.00    +0.000 C 
ATOM      9  C   UNL     1       0.354  10.682  18.506  0.00  0.00    +0.000 C 
ATOM     10  C   UNL     1       0.175   9.889  19.808  0.00  0.00    +0.000 C 
ATOM     11  H   UNL     1       2.439  15.499  20.363  0.00  0.00    +0.000 HD
ENDROOT
BRANCH   2  12
ATOM     12  C   UNL     1      -1.874  12.549  20.340  0.00  0.00    +0.000 A 
ATOM     13  C   UNL     1      -3.217  12.893  20.550  0.00  0.00    +0.000 A 
ATOM     14  C   UNL     1      -3.801  12.803  21.814  0.00  0.00    +0.000 A 
ATOM     15  C   UNL     1      -3.078  12.282  22.882  0.00  0.00    +0.000 A 
ATOM     16  C   UNL     1      -1.796  11.773  22.675  0.00  0.00    +0.000 A 
ATOM     17  C   UNL     1      -1.193  11.945  21.418  0.00  0.00    +0.000 A 
BRANCH  15  18
ATOM     18  O   UNL     1      -3.644  12.313  24.125  0.00  0.00    +0.000 OA
ATOM     19  H   UNL     1      -3.029  11.894  24.750  0.00  0.00    +0.000 HD
ENDBRANCH  15  18
BRANCH  16  20
ATOM     20  O   UNL     1      -1.007  11.151  23.609  0.00  0.00    +0.000 OA
ATOM     21  C   UNL     1      -0.531   9.855  23.250  0.00  0.00    +0.000 C 
ENDBRANCH  16  20
ENDBRANCH   2  12
BRANCH   1  22
ATOM     22  C   UNL     1      -2.108  10.858  17.743  0.00  0.00    +0.000 C 
ATOM     23  O   UNL     1      -2.434   9.749  18.145  0.00  0.00    +0.000 OA
BRANCH  22  24
ATOM     24  O   UNL     1      -2.745  11.530  16.737  0.00  0.00    +0.000 OA
BRANCH  24  26
ATOM     25  C   UNL     1      -2.999  10.227  14.752  0.00  0.00    +0.000 C 
ATOM     26  C   UNL     1      -3.699  10.756  15.993  0.00  0.00    +0.000 C 
ENDBRANCH  24  26
ENDBRANCH  22  24
ENDBRANCH   1  22
BRANCH   7  27
ATOM     27  O   UNL     1      -0.310  15.729  20.220  0.00  0.00    +0.000 OA
ATOM     28  H   UNL     1       0.038  16.192  20.997  0.00  0.00    +0.000 HD
ENDBRANCH   7  27
BRANCH   9  29
ATOM     29  O   UNL     1       0.570   9.685  17.481  0.00  0.00    +0.000 OA
ATOM     30  H   UNL     1      -0.259   9.221  17.285  0.00  0.00    +0.000 HD
ENDBRANCH   9  29
TORSDOF 8
ENDMDL
MODEL 9
REMARK VINA RESULT:      -6.5      6.679      9.703
REMARK  Name = 
REMARK  11 active torsions:
REMARK  status: ('A' for Active; 'I' for Inactive)
REMARK    1  A    between atoms: C_1  and  C_2
REMARK    2  A    between atoms: C_2  and  O_3
REMARK    3  A    between atoms: O_3  and  C_4
REMARK    4  A    between atoms: C_4  and  C_6
REMARK    5  A    between atoms: C_7  and  C_8
REMARK    6  A    between atoms: C_11  and  O_12
REMARK    7  A    between atoms: C_13  and  O_14
REMARK    8  A    between atoms: O_14  and  C_15
REMARK    9  A    between atoms: C_21  and  O_22
REMARK   10  A    between atoms: C_24  and  C_25
REMARK   11  A    between atoms: C_24  and  O_26
REMARK                            x       y       z     vdW  Elec       q    Type
REMARK                         _______ _______ _______ _____ _____    ______ ____
ROOT
ATOM      1  C   UNL     1      -1.119  11.493  21.434  0.00  0.00    +0.000 C 
ATOM      2  C   UNL     1      -1.874  12.160  20.248  0.00  0.00    +0.000 C 
ATOM      3  C   UNL     1      -1.619  11.367  19.002  0.00  0.00    +0.000 A 
ATOM      4  C   UNL     1      -0.586  10.403  18.873  0.00  0.00    +0.000 A 
ATOM      5  N   UNL     1      -0.569   9.839  17.668  0.00  0.00    +0.000 NA
ATOM      6  N   UNL     1      -1.595  10.421  17.027  0.00  0.00    +0.000 N 
ATOM      7  C   UNL     1      -2.280  11.329  17.794  0.00  0.00    +0.000 A 
ATOM      8  C   UNL     1       0.352  10.002  19.961  0.00  0.00    +0.000 C 
ATOM      9  C   UNL     1       0.344  11.010  21.147  0.00  0.00    +0.000 C 
ATOM     10  C   UNL     1       1.364  12.126  20.880  0.00  0.00    +0.000 C 
ATOM     11  H   UNL     1      -1.779  10.143  16.073  0.00  0.00    +0.000 HD
ENDROOT
BRANCH   2  12
ATOM     12  C   UNL     1      -1.547  13.625  19.962  0.00  0.00    +0.000 A 
ATOM     13  C   UNL     1      -0.559  14.045  19.060  0.00  0.00    +0.000 A 
ATOM     14  C   UNL     1      -0.161  15.380  18.988  0.00  0.00    +0.000 A 
ATOM     15  C   UNL     1      -0.805  16.344  19.759  0.00  0.00    +0.000 A 
ATOM     16  C   UNL     1      -1.904  15.991  20.542  0.00  0.00    +0.000 A 
ATOM     17  C   UNL     1      -2.240  14.633  20.666  0.00  0.00    +0.000 A 
BRANCH  15  18
ATOM     18  O   UNL     1      -0.315  17.619  19.745  0.00  0.00    +0.000 OA
ATOM     19  H   UNL     1      -0.559  18.048  20.582  0.00  0.00    +0.000 HD
ENDBRANCH  15  18
BRANCH  16  20
ATOM     20  O   UNL     1      -2.688  16.844  21.276  0.00  0.00    +0.000 OA
ATOM     21  C   UNL     1      -2.815  16.528  22.661  0.00  0.00    +0.000 C 
ENDBRANCH  16  20
ENDBRANCH   2  12
BRANCH   1  22
ATOM     22  C   UNL     1      -1.274  12.249  22.736  0.00  0.00    +0.000 C 
ATOM     23  O   UNL     1      -0.438  12.981  23.251  0.00  0.00    +0.000 OA
BRANCH  22  24
ATOM     24  O   UNL     1      -2.424  11.842  23.352  0.00  0.00    +0.000 OA
BRANCH  24  26
ATOM     25  C   UNL     1      -4.523  12.894  22.918  0.00  0.00    +0.000 C 
ATOM     26  C   UNL     1      -3.285  12.901  23.799  0.00  0.00    +0.000 C 
ENDBRANCH  24  26
ENDBRANCH  22  24
ENDBRANCH   1  22
BRANCH   7  27
ATOM     27  O   UNL     1      -3.351  12.003  17.378  0.00  0.00    +0.000 OA
ATOM     28  H   UNL     1      -4.011  11.390  17.017  0.00  0.00    +0.000 HD
ENDBRANCH   7  27
BRANCH   9  29
ATOM     29  O   UNL     1       0.864  10.287  22.286  0.00  0.00    +0.000 OA
ATOM     30  H   UNL     1       0.227   9.612  22.573  0.00  0.00    +0.000 HD
ENDBRANCH   9  29
TORSDOF 8
ENDMDL
