MODEL 1
REMARK VINA RESULT:      -7.4      0.000      0.000
REMARK  Name = 
REMARK  8 active torsions:
REMARK  status: ('A' for Active; 'I' for Inactive)
REMARK    1  A    between atoms: C_1  and  O_2
REMARK    2  A    between atoms: O_2  and  C_3
REMARK    3  A    between atoms: C_6  and  C_7
REMARK    4  A    between atoms: C_7  and  C_8
REMARK    5  A    between atoms: C_8  and  N_9
REMARK    6  A    between atoms: C_10  and  C_12
REMARK    7  A    between atoms: N_14  and  C_15
REMARK    8  A    between atoms: C_20  and  C_21
REMARK                            x       y       z     vdW  Elec       q    Type
REMARK                         _______ _______ _______ _____ _____    ______ ____
ROOT
ATOM      1  N   UNL     1       7.016   7.011  17.947  0.00  0.00    +0.000 N 
ATOM      2  C   UNL     1       6.913   6.302  16.771  0.00  0.00    +0.000 C 
ATOM      3  O   UNL     1       7.753   6.224  15.886  0.00  0.00    +0.000 OA
ATOM      4  H   UNL     1       6.211   6.964  18.570  0.00  0.00    +0.000 HD
ENDROOT
BRANCH   2   5
ATOM      5  C   UNL     1       5.575   5.551  16.639  0.00  0.00    +0.000 C 
ATOM      6  O   UNL     1       5.055   5.510  15.529  0.00  0.00    +0.000 OA
ATOM      7  N   UNL     1       5.093   5.038  17.829  0.00  0.00    +0.000 N 
ATOM      8  H   UNL     1       5.626   5.282  18.659  0.00  0.00    +0.000 HD
BRANCH   7   9
ATOM      9  C   UNL     1       3.915   4.266  17.969  0.00  0.00    +0.000 A 
ATOM     10  C   UNL     1       3.928   2.867  17.923  0.00  0.00    +0.000 A 
ATOM     11  N   UNL     1       2.838   2.073  18.066  0.00  0.00    +0.000 NA
ATOM     12  C   UNL     1       1.667   2.696  18.266  0.00  0.00    +0.000 A 
ATOM     13  C   UNL     1       1.535   4.073  18.335  0.00  0.00    +0.000 A 
ATOM     14  C   UNL     1       2.671   4.884  18.177  0.00  0.00    +0.000 A 
ATOM     15  C   UNL     1       2.489   6.377  18.205  0.00  0.00    +0.000 C 
ENDBRANCH   7   9
ENDBRANCH   2   5
BRANCH   1  16
ATOM     16  C   UNL     1       8.166   7.827  18.274  0.00  0.00    +0.000 C 
BRANCH  16  17
ATOM     17  C   UNL     1       8.027   9.261  17.758  0.00  0.00    +0.000 C 
BRANCH  17  21
ATOM     18  C   UNL     1      10.880  11.958  19.568  0.00  0.00    +0.000 A 
ATOM     19  C   UNL     1      10.090  11.131  20.364  0.00  0.00    +0.000 A 
ATOM     20  C   UNL     1       9.176  10.243  19.782  0.00  0.00    +0.000 A 
ATOM     21  C   UNL     1       9.035  10.190  18.390  0.00  0.00    +0.000 A 
ATOM     22  C   UNL     1       9.815  11.037  17.596  0.00  0.00    +0.000 A 
ATOM     23  C   UNL     1      10.736  11.918  18.182  0.00  0.00    +0.000 A 
BRANCH  18  25
ATOM     24  C   UNL     1      11.565  14.185  19.987  0.00  0.00    +0.000 C 
ATOM     25  O   UNL     1      11.721  12.795  20.251  0.00  0.00    +0.000 OA
ENDBRANCH  18  25
ENDBRANCH  17  21
ENDBRANCH  16  17
ENDBRANCH   1  16
TORSDOF 6
ENDMDL
MODEL 2
REMARK VINA RESULT:      -7.3      1.479      1.735
REMARK  Name = 
REMARK  8 active torsions:
REMARK  status: ('A' for Active; 'I' for Inactive)
REMARK    1  A    between atoms: C_1  and  O_2
REMARK    2  A    between atoms: O_2  and  C_3
REMARK    3  A    between atoms: C_6  and  C_7
REMARK    4  A    between atoms: C_7  and  C_8
REMARK    5  A    between atoms: C_8  and  N_9
REMARK    6  A    between atoms: C_10  and  C_12
REMARK    7  A    between atoms: N_14  and  C_15
REMARK    8  A    between atoms: C_20  and  C_21
REMARK                            x       y       z     vdW  Elec       q    Type
REMARK                         _______ _______ _______ _____ _____    ______ ____
ROOT
ATOM      1  N   UNL     1       6.799   7.557  17.692  0.00  0.00    +0.000 N 
ATOM      2  C   UNL     1       6.710   6.381  16.981  0.00  0.00    +0.000 C 
ATOM      3  O   UNL     1       7.492   5.975  16.135  0.00  0.00    +0.000 OA
ATOM      4  H   UNL     1       6.050   7.736  18.359  0.00  0.00    +0.000 HD
ENDROOT
BRANCH   2   5
ATOM      5  C   UNL     1       5.471   5.546  17.357  0.00  0.00    +0.000 C 
ATOM      6  O   UNL     1       4.778   5.117  16.442  0.00  0.00    +0.000 OA
ATOM      7  N   UNL     1       5.268   5.416  18.718  0.00  0.00    +0.000 N 
ATOM      8  H   UNL     1       5.901   5.948  19.309  0.00  0.00    +0.000 HD
BRANCH   7   9
ATOM      9  C   UNL     1       4.235   4.660  19.322  0.00  0.00    +0.000 A 
ATOM     10  C   UNL     1       4.368   3.292  19.588  0.00  0.00    +0.000 A 
ATOM     11  N   UNL     1       3.423   2.517  20.177  0.00  0.00    +0.000 NA
ATOM     12  C   UNL     1       2.280   3.129  20.524  0.00  0.00    +0.000 A 
ATOM     13  C   UNL     1       2.040   4.477  20.314  0.00  0.00    +0.000 A 
ATOM     14  C   UNL     1       3.024   5.266  19.695  0.00  0.00    +0.000 A 
ATOM     15  C   UNL     1       2.714   6.715  19.435  0.00  0.00    +0.000 C 
ENDBRANCH   7   9
ENDBRANCH   2   5
BRANCH   1  16
ATOM     16  C   UNL     1       7.856   8.524  17.482  0.00  0.00    +0.000 C 
BRANCH  16  17
ATOM     17  C   UNL     1       8.680   8.768  18.749  0.00  0.00    +0.000 C 
BRANCH  17  21
ATOM     18  C   UNL     1       9.841  12.912  19.160  0.00  0.00    +0.000 A 
ATOM     19  C   UNL     1       9.174  12.478  18.017  0.00  0.00    +0.000 A 
ATOM     20  C   UNL     1       8.781  11.140  17.886  0.00  0.00    +0.000 A 
ATOM     21  C   UNL     1       9.069  10.218  18.899  0.00  0.00    +0.000 A 
ATOM     22  C   UNL     1       9.758  10.654  20.037  0.00  0.00    +0.000 A 
ATOM     23  C   UNL     1      10.141  11.997  20.168  0.00  0.00    +0.000 A 
BRANCH  18  25
ATOM     24  C   UNL     1       9.871  14.968  17.989  0.00  0.00    +0.000 C 
ATOM     25  O   UNL     1      10.190  14.236  19.166  0.00  0.00    +0.000 OA
ENDBRANCH  18  25
ENDBRANCH  17  21
ENDBRANCH  16  17
ENDBRANCH   1  16
TORSDOF 6
ENDMDL
MODEL 3
REMARK VINA RESULT:      -7.3      1.617      1.859
REMARK  Name = 
REMARK  8 active torsions:
REMARK  status: ('A' for Active; 'I' for Inactive)
REMARK    1  A    between atoms: C_1  and  O_2
REMARK    2  A    between atoms: O_2  and  C_3
REMARK    3  A    between atoms: C_6  and  C_7
REMARK    4  A    between atoms: C_7  and  C_8
REMARK    5  A    between atoms: C_8  and  N_9
REMARK    6  A    between atoms: C_10  and  C_12
REMARK    7  A    between atoms: N_14  and  C_15
REMARK    8  A    between atoms: C_20  and  C_21
REMARK                            x       y       z     vdW  Elec       q    Type
REMARK                         _______ _______ _______ _____ _____    ______ ____
ROOT
ATOM      1  N   UNL     1       6.919   6.426  18.473  0.00  0.00    +0.000 N 
ATOM      2  C   UNL     1       6.857   5.169  17.912  0.00  0.00    +0.000 C 
ATOM      3  O   UNL     1       7.754   4.584  17.324  0.00  0.00    +0.000 OA
ATOM      4  H   UNL     1       6.068   6.758  18.924  0.00  0.00    +0.000 HD
ENDROOT
BRANCH   2   5
ATOM      5  C   UNL     1       5.483   4.498  18.098  0.00  0.00    +0.000 C 
ATOM      6  O   UNL     1       5.062   3.805  17.178  0.00  0.00    +0.000 OA
ATOM      7  N   UNL     1       4.861   4.802  19.294  0.00  0.00    +0.000 N 
ATOM      8  H   UNL     1       5.335   5.490  19.872  0.00  0.00    +0.000 HD
BRANCH   7   9
ATOM      9  C   UNL     1       3.620   4.276  19.727  0.00  0.00    +0.000 A 
ATOM     10  C   UNL     1       3.448   2.920  20.030  0.00  0.00    +0.000 A 
ATOM     11  N   UNL     1       2.291   2.359  20.463  0.00  0.00    +0.000 NA
ATOM     12  C   UNL     1       1.244   3.186  20.607  0.00  0.00    +0.000 A 
ATOM     13  C   UNL     1       1.299   4.544  20.342  0.00  0.00    +0.000 A 
ATOM     14  C   UNL     1       2.501   5.110  19.886  0.00  0.00    +0.000 A 
ATOM     15  C   UNL     1       2.516   6.579  19.558  0.00  0.00    +0.000 C 
ENDBRANCH   7   9
ENDBRANCH   2   5
BRANCH   1  16
ATOM     16  C   UNL     1       8.096   7.265  18.390  0.00  0.00    +0.000 C 
BRANCH  16  17
ATOM     17  C   UNL     1       7.862   8.511  17.532  0.00  0.00    +0.000 C 
BRANCH  17  21
ATOM     18  C   UNL     1       9.622  12.044  19.294  0.00  0.00    +0.000 A 
ATOM     19  C   UNL     1       8.908  12.133  18.102  0.00  0.00    +0.000 A 
ATOM     20  C   UNL     1       8.322  10.994  17.534  0.00  0.00    +0.000 A 
ATOM     21  C   UNL     1       8.461   9.747  18.156  0.00  0.00    +0.000 A 
ATOM     22  C   UNL     1       9.195   9.659  19.343  0.00  0.00    +0.000 A 
ATOM     23  C   UNL     1       9.773  10.803  19.912  0.00  0.00    +0.000 A 
BRANCH  18  25
ATOM     24  C   UNL     1      11.580  13.239  19.879  0.00  0.00    +0.000 C 
ATOM     25  O   UNL     1      10.164  13.220  19.740  0.00  0.00    +0.000 OA
ENDBRANCH  18  25
ENDBRANCH  17  21
ENDBRANCH  16  17
ENDBRANCH   1  16
TORSDOF 6
ENDMDL
MODEL 4
REMARK VINA RESULT:      -7.2      3.350      6.053
REMARK  Name = 
REMARK  8 active torsions:
REMARK  status: ('A' for Active; 'I' for Inactive)
REMARK    1  A    between atoms: C_1  and  O_2
REMARK    2  A    between atoms: O_2  and  C_3
REMARK    3  A    between atoms: C_6  and  C_7
REMARK    4  A    between atoms: C_7  and  C_8
REMARK    5  A    between atoms: C_8  and  N_9
REMARK    6  A    between atoms: C_10  and  C_12
REMARK    7  A    between atoms: N_14  and  C_15
REMARK    8  A    between atoms: C_20  and  C_21
REMARK                            x       y       z     vdW  Elec       q    Type
REMARK                         _______ _______ _______ _____ _____    ______ ____
ROOT
ATOM      1  N   UNL     1       3.214   4.270  18.330  0.00  0.00    +0.000 N 
ATOM      2  C   UNL     1       2.958   4.277  19.684  0.00  0.00    +0.000 C 
ATOM      3  O   UNL     1       3.405   3.503  20.518  0.00  0.00    +0.000 OA
ATOM      4  H   UNL     1       2.750   4.992  17.783  0.00  0.00    +0.000 HD
ENDROOT
BRANCH   2   5
ATOM      5  C   UNL     1       2.007   5.412  20.108  0.00  0.00    +0.000 C 
ATOM      6  O   UNL     1       0.912   5.095  20.560  0.00  0.00    +0.000 OA
ATOM      7  N   UNL     1       2.505   6.681  19.881  0.00  0.00    +0.000 N 
ATOM      8  H   UNL     1       3.394   6.723  19.391  0.00  0.00    +0.000 HD
BRANCH   7   9
ATOM      9  C   UNL     1       1.852   7.889  20.227  0.00  0.00    +0.000 A 
ATOM     10  C   UNL     1       1.500   8.196  21.547  0.00  0.00    +0.000 A 
ATOM     11  N   UNL     1       0.889   9.340  21.944  0.00  0.00    +0.000 NA
ATOM     12  C   UNL     1       0.610  10.233  20.982  0.00  0.00    +0.000 A 
ATOM     13  C   UNL     1       0.916  10.038  19.645  0.00  0.00    +0.000 A 
ATOM     14  C   UNL     1       1.542   8.845  19.247  0.00  0.00    +0.000 A 
ATOM     15  C   UNL     1       1.815   8.640  17.782  0.00  0.00    +0.000 C 
ENDBRANCH   7   9
ENDBRANCH   2   5
BRANCH   1  16
ATOM     16  C   UNL     1       4.048   3.271  17.694  0.00  0.00    +0.000 C 
BRANCH  16  17
ATOM     17  C   UNL     1       4.895   3.858  16.563  0.00  0.00    +0.000 C 
BRANCH  17  21
ATOM     18  C   UNL     1       7.545   6.950  18.016  0.00  0.00    +0.000 A 
ATOM     19  C   UNL     1       7.681   5.638  18.464  0.00  0.00    +0.000 A 
ATOM     20  C   UNL     1       6.836   4.629  17.984  0.00  0.00    +0.000 A 
ATOM     21  C   UNL     1       5.832   4.934  17.057  0.00  0.00    +0.000 A 
ATOM     22  C   UNL     1       5.685   6.256  16.626  0.00  0.00    +0.000 A 
ATOM     23  C   UNL     1       6.539   7.261  17.102  0.00  0.00    +0.000 A 
BRANCH  18  25
ATOM     24  C   UNL     1       8.312   9.188  18.097  0.00  0.00    +0.000 C 
ATOM     25  O   UNL     1       8.415   7.850  18.570  0.00  0.00    +0.000 OA
ENDBRANCH  18  25
ENDBRANCH  17  21
ENDBRANCH  16  17
ENDBRANCH   1  16
TORSDOF 6
ENDMDL
MODEL 5
REMARK VINA RESULT:      -7.2      1.130      1.141
REMARK  Name = 
REMARK  8 active torsions:
REMARK  status: ('A' for Active; 'I' for Inactive)
REMARK    1  A    between atoms: C_1  and  O_2
REMARK    2  A    between atoms: O_2  and  C_3
REMARK    3  A    between atoms: C_6  and  C_7
REMARK    4  A    between atoms: C_7  and  C_8
REMARK    5  A    between atoms: C_8  and  N_9
REMARK    6  A    between atoms: C_10  and  C_12
REMARK    7  A    between atoms: N_14  and  C_15
REMARK    8  A    between atoms: C_20  and  C_21
REMARK                            x       y       z     vdW  Elec       q    Type
REMARK                         _______ _______ _______ _____ _____    ______ ____
ROOT
ATOM      1  N   UNL     1       7.418   7.629  17.773  0.00  0.00    +0.000 N 
ATOM      2  C   UNL     1       7.349   6.358  18.299  0.00  0.00    +0.000 C 
ATOM      3  O   UNL     1       8.099   5.868  19.131  0.00  0.00    +0.000 OA
ATOM      4  H   UNL     1       6.707   7.867  17.083  0.00  0.00    +0.000 HD
ENDROOT
BRANCH   2   5
ATOM      5  C   UNL     1       6.174   5.538  17.735  0.00  0.00    +0.000 C 
ATOM      6  O   UNL     1       6.197   5.262  16.540  0.00  0.00    +0.000 OA
ATOM      7  N   UNL     1       5.193   5.241  18.663  0.00  0.00    +0.000 N 
ATOM      8  H   UNL     1       5.315   5.662  19.579  0.00  0.00    +0.000 HD
BRANCH   7   9
ATOM      9  C   UNL     1       4.040   4.459  18.411  0.00  0.00    +0.000 A 
ATOM     10  C   UNL     1       4.076   3.060  18.389  0.00  0.00    +0.000 A 
ATOM     11  N   UNL     1       3.005   2.257  18.170  0.00  0.00    +0.000 NA
ATOM     12  C   UNL     1       1.830   2.871  17.961  0.00  0.00    +0.000 A 
ATOM     13  C   UNL     1       1.675   4.247  17.966  0.00  0.00    +0.000 A 
ATOM     14  C   UNL     1       2.794   5.068  18.186  0.00  0.00    +0.000 A 
ATOM     15  C   UNL     1       2.604   6.559  18.134  0.00  0.00    +0.000 C 
ENDBRANCH   7   9
ENDBRANCH   2   5
BRANCH   1  16
ATOM     16  C   UNL     1       8.461   8.569  18.122  0.00  0.00    +0.000 C 
BRANCH  16  17
ATOM     17  C   UNL     1       8.054  10.018  17.845  0.00  0.00    +0.000 C 
BRANCH  17  21
ATOM     18  C   UNL     1      10.959  12.857  19.326  0.00  0.00    +0.000 A 
ATOM     19  C   UNL     1      10.751  11.650  19.991  0.00  0.00    +0.000 A 
ATOM     20  C   UNL     1       9.823  10.720  19.506  0.00  0.00    +0.000 A 
ATOM     21  C   UNL     1       9.081  11.001  18.353  0.00  0.00    +0.000 A 
ATOM     22  C   UNL     1       9.278  12.222  17.700  0.00  0.00    +0.000 A 
ATOM     23  C   UNL     1      10.214  13.147  18.184  0.00  0.00    +0.000 A 
BRANCH  18  25
ATOM     24  C   UNL     1      12.211  14.859  19.162  0.00  0.00    +0.000 C 
ATOM     25  O   UNL     1      11.876  13.693  19.905  0.00  0.00    +0.000 OA
ENDBRANCH  18  25
ENDBRANCH  17  21
ENDBRANCH  16  17
ENDBRANCH   1  16
TORSDOF 6
ENDMDL
MODEL 6
REMARK VINA RESULT:      -7.2      1.547      1.707
REMARK  Name = 
REMARK  8 active torsions:
REMARK  status: ('A' for Active; 'I' for Inactive)
REMARK    1  A    between atoms: C_1  and  O_2
REMARK    2  A    between atoms: O_2  and  C_3
REMARK    3  A    between atoms: C_6  and  C_7
REMARK    4  A    between atoms: C_7  and  C_8
REMARK    5  A    between atoms: C_8  and  N_9
REMARK    6  A    between atoms: C_10  and  C_12
REMARK    7  A    between atoms: N_14  and  C_15
REMARK    8  A    between atoms: C_20  and  C_21
REMARK                            x       y       z     vdW  Elec       q    Type
REMARK                         _______ _______ _______ _____ _____    ______ ____
ROOT
ATOM      1  N   UNL     1       7.336   7.271  18.065  0.00  0.00    +0.000 N 
ATOM      2  C   UNL     1       6.411   6.629  17.272  0.00  0.00    +0.000 C 
ATOM      3  O   UNL     1       6.075   6.941  16.139  0.00  0.00    +0.000 OA
ATOM      4  H   UNL     1       7.489   6.871  18.989  0.00  0.00    +0.000 HD
ENDROOT
BRANCH   2   5
ATOM      5  C   UNL     1       5.789   5.397  17.955  0.00  0.00    +0.000 C 
ATOM      6  O   UNL     1       6.514   4.723  18.678  0.00  0.00    +0.000 OA
ATOM      7  N   UNL     1       4.464   5.176  17.626  0.00  0.00    +0.000 N 
ATOM      8  H   UNL     1       4.080   5.793  16.916  0.00  0.00    +0.000 HD
BRANCH   7   9
ATOM      9  C   UNL     1       3.652   4.145  18.156  0.00  0.00    +0.000 A 
ATOM     10  C   UNL     1       3.741   2.820  17.714  0.00  0.00    +0.000 A 
ATOM     11  N   UNL     1       3.003   1.788  18.192  0.00  0.00    +0.000 NA
ATOM     12  C   UNL     1       2.125   2.080  19.164  0.00  0.00    +0.000 A 
ATOM     13  C   UNL     1       1.955   3.353  19.682  0.00  0.00    +0.000 A 
ATOM     14  C   UNL     1       2.720   4.415  19.172  0.00  0.00    +0.000 A 
ATOM     15  C   UNL     1       2.476   5.795  19.719  0.00  0.00    +0.000 C 
ENDBRANCH   7   9
ENDBRANCH   2   5
BRANCH   1  16
ATOM     16  C   UNL     1       8.024   8.477  17.652  0.00  0.00    +0.000 C 
BRANCH  16  17
ATOM     17  C   UNL     1       8.785   9.135  18.805  0.00  0.00    +0.000 C 
BRANCH  17  21
ATOM     18  C   UNL     1       9.919  13.211  17.914  0.00  0.00    +0.000 A 
ATOM     19  C   UNL     1      10.782  12.379  18.623  0.00  0.00    +0.000 A 
ATOM     20  C   UNL     1      10.427  11.052  18.900  0.00  0.00    +0.000 A 
ATOM     21  C   UNL     1       9.189  10.552  18.479  0.00  0.00    +0.000 A 
ATOM     22  C   UNL     1       8.317  11.397  17.785  0.00  0.00    +0.000 A 
ATOM     23  C   UNL     1       8.680  12.722  17.502  0.00  0.00    +0.000 A 
BRANCH  18  25
ATOM     24  C   UNL     1      10.118  15.404  18.783  0.00  0.00    +0.000 C 
ATOM     25  O   UNL     1      10.368  14.490  17.721  0.00  0.00    +0.000 OA
ENDBRANCH  18  25
ENDBRANCH  17  21
ENDBRANCH  16  17
ENDBRANCH   1  16
TORSDOF 6
ENDMDL
MODEL 7
REMARK VINA RESULT:      -7.2      1.311      1.311
REMARK  Name = 
REMARK  8 active torsions:
REMARK  status: ('A' for Active; 'I' for Inactive)
REMARK    1  A    between atoms: C_1  and  O_2
REMARK    2  A    between atoms: O_2  and  C_3
REMARK    3  A    between atoms: C_6  and  C_7
REMARK    4  A    between atoms: C_7  and  C_8
REMARK    5  A    between atoms: C_8  and  N_9
REMARK    6  A    between atoms: C_10  and  C_12
REMARK    7  A    between atoms: N_14  and  C_15
REMARK    8  A    between atoms: C_20  and  C_21
REMARK                            x       y       z     vdW  Elec       q    Type
REMARK                         _______ _______ _______ _____ _____    ______ ____
ROOT
ATOM      1  N   UNL     1       6.998   6.789  18.160  0.00  0.00    +0.000 N 
ATOM      2  C   UNL     1       7.025   5.422  18.329  0.00  0.00    +0.000 C 
ATOM      3  O   UNL     1       7.987   4.744  18.661  0.00  0.00    +0.000 OA
ATOM      4  H   UNL     1       6.105   7.187  17.875  0.00  0.00    +0.000 HD
ENDROOT
BRANCH   2   5
ATOM      5  C   UNL     1       5.662   4.758  18.060  0.00  0.00    +0.000 C 
ATOM      6  O   UNL     1       5.358   4.542  16.892  0.00  0.00    +0.000 OA
ATOM      7  N   UNL     1       4.915   4.518  19.198  0.00  0.00    +0.000 N 
ATOM      8  H   UNL     1       5.306   4.878  20.064  0.00  0.00    +0.000 HD
BRANCH   7   9
ATOM      9  C   UNL     1       3.654   3.874  19.227  0.00  0.00    +0.000 A 
ATOM     10  C   UNL     1       3.511   2.502  18.993  0.00  0.00    +0.000 A 
ATOM     11  N   UNL     1       2.336   1.825  19.023  0.00  0.00    +0.000 NA
ATOM     12  C   UNL     1       1.238   2.545  19.300  0.00  0.00    +0.000 A 
ATOM     13  C   UNL     1       1.261   3.907  19.554  0.00  0.00    +0.000 A 
ATOM     14  C   UNL     1       2.484   4.597  19.511  0.00  0.00    +0.000 A 
ATOM     15  C   UNL     1       2.470   6.084  19.740  0.00  0.00    +0.000 C 
ENDBRANCH   7   9
ENDBRANCH   2   5
BRANCH   1  16
ATOM     16  C   UNL     1       8.171   7.624  18.318  0.00  0.00    +0.000 C 
BRANCH  16  17
ATOM     17  C   UNL     1       8.023   8.972  17.609  0.00  0.00    +0.000 C 
BRANCH  17  21
ATOM     18  C   UNL     1       9.961  12.173  19.773  0.00  0.00    +0.000 A 
ATOM     19  C   UNL     1       9.788  10.926  20.368  0.00  0.00    +0.000 A 
ATOM     20  C   UNL     1       9.176   9.880  19.666  0.00  0.00    +0.000 A 
ATOM     21  C   UNL     1       8.715  10.084  18.359  0.00  0.00    +0.000 A 
ATOM     22  C   UNL     1       8.873  11.344  17.773  0.00  0.00    +0.000 A 
ATOM     23  C   UNL     1       9.494  12.386  18.477  0.00  0.00    +0.000 A 
BRANCH  18  25
ATOM     24  C   UNL     1      10.614  14.435  20.023  0.00  0.00    +0.000 C 
ATOM     25  O   UNL     1      10.555  13.120  20.565  0.00  0.00    +0.000 OA
ENDBRANCH  18  25
ENDBRANCH  17  21
ENDBRANCH  16  17
ENDBRANCH   1  16
TORSDOF 6
ENDMDL
MODEL 8
REMARK VINA RESULT:      -7.2      1.143      1.452
REMARK  Name = 
REMARK  8 active torsions:
REMARK  status: ('A' for Active; 'I' for Inactive)
REMARK    1  A    between atoms: C_1  and  O_2
REMARK    2  A    between atoms: O_2  and  C_3
REMARK    3  A    between atoms: C_6  and  C_7
REMARK    4  A    between atoms: C_7  and  C_8
REMARK    5  A    between atoms: C_8  and  N_9
REMARK    6  A    between atoms: C_10  and  C_12
REMARK    7  A    between atoms: N_14  and  C_15
REMARK    8  A    between atoms: C_20  and  C_21
REMARK                            x       y       z     vdW  Elec       q    Type
REMARK                         _______ _______ _______ _____ _____    ______ ____
ROOT
ATOM      1  N   UNL     1       7.226   6.966  18.118  0.00  0.00    +0.000 N 
ATOM      2  C   UNL     1       7.110   5.702  17.582  0.00  0.00    +0.000 C 
ATOM      3  O   UNL     1       7.801   5.214  16.699  0.00  0.00    +0.000 OA
ATOM      4  H   UNL     1       6.558   7.205  18.849  0.00  0.00    +0.000 HD
ENDROOT
BRANCH   2   5
ATOM      5  C   UNL     1       5.975   4.881  18.222  0.00  0.00    +0.000 C 
ATOM      6  O   UNL     1       6.146   4.472  19.365  0.00  0.00    +0.000 OA
ATOM      7  N   UNL     1       4.891   4.669  17.390  0.00  0.00    +0.000 N 
ATOM      8  H   UNL     1       4.999   5.001  16.436  0.00  0.00    +0.000 HD
BRANCH   7   9
ATOM      9  C   UNL     1       3.702   3.992  17.753  0.00  0.00    +0.000 A 
ATOM     10  C   UNL     1       3.609   2.596  17.759  0.00  0.00    +0.000 A 
ATOM     11  N   UNL     1       2.505   1.890  18.111  0.00  0.00    +0.000 NA
ATOM     12  C   UNL     1       1.431   2.605  18.480  0.00  0.00    +0.000 A 
ATOM     13  C   UNL     1       1.411   3.989  18.517  0.00  0.00    +0.000 A 
ATOM     14  C   UNL     1       2.558   4.708  18.142  0.00  0.00    +0.000 A 
ATOM     15  C   UNL     1       2.489   6.211  18.144  0.00  0.00    +0.000 C 
ENDBRANCH   7   9
ENDBRANCH   2   5
BRANCH   1  16
ATOM     16  C   UNL     1       8.196   7.933  17.648  0.00  0.00    +0.000 C 
BRANCH  16  17
ATOM     17  C   UNL     1       7.630   9.355  17.619  0.00  0.00    +0.000 C 
BRANCH  17  21
ATOM     18  C   UNL     1      10.327  12.173  19.483  0.00  0.00    +0.000 A 
ATOM     19  C   UNL     1       9.619  12.528  18.338  0.00  0.00    +0.000 A 
ATOM     20  C   UNL     1       8.731  11.625  17.739  0.00  0.00    +0.000 A 
ATOM     21  C   UNL     1       8.558  10.345  18.279  0.00  0.00    +0.000 A 
ATOM     22  C   UNL     1       9.287   9.985  19.418  0.00  0.00    +0.000 A 
ATOM     23  C   UNL     1      10.168  10.896  20.019  0.00  0.00    +0.000 A 
BRANCH  18  25
ATOM     24  C   UNL     1      11.233  14.344  19.224  0.00  0.00    +0.000 C 
ATOM     25  O   UNL     1      11.178  13.132  19.966  0.00  0.00    +0.000 OA
ENDBRANCH  18  25
ENDBRANCH  17  21
ENDBRANCH  16  17
ENDBRANCH   1  16
TORSDOF 6
ENDMDL
MODEL 9
REMARK VINA RESULT:      -7.1      1.879      2.406
REMARK  Name = 
REMARK  8 active torsions:
REMARK  status: ('A' for Active; 'I' for Inactive)
REMARK    1  A    between atoms: C_1  and  O_2
REMARK    2  A    between atoms: O_2  and  C_3
REMARK    3  A    between atoms: C_6  and  C_7
REMARK    4  A    between atoms: C_7  and  C_8
REMARK    5  A    between atoms: C_8  and  N_9
REMARK    6  A    between atoms: C_10  and  C_12
REMARK    7  A    between atoms: N_14  and  C_15
REMARK    8  A    between atoms: C_20  and  C_21
REMARK                            x       y       z     vdW  Elec       q    Type
REMARK                         _______ _______ _______ _____ _____    ______ ____
ROOT
ATOM      1  N   UNL     1       7.631   7.951  18.202  0.00  0.00    +0.000 N 
ATOM      2  C   UNL     1       7.299   6.858  17.431  0.00  0.00    +0.000 C 
ATOM      3  O   UNL     1       7.664   6.632  16.287  0.00  0.00    +0.000 OA
ATOM      4  H   UNL     1       7.231   7.977  19.138  0.00  0.00    +0.000 HD
ENDROOT
BRANCH   2   5
ATOM      5  C   UNL     1       6.377   5.866  18.164  0.00  0.00    +0.000 C 
ATOM      6  O   UNL     1       6.907   4.997  18.846  0.00  0.00    +0.000 OA
ATOM      7  N   UNL     1       5.030   6.061  17.921  0.00  0.00    +0.000 N 
ATOM      8  H   UNL     1       4.807   6.773  17.232  0.00  0.00    +0.000 HD
BRANCH   7   9
ATOM      9  C   UNL     1       3.978   5.319  18.511  0.00  0.00    +0.000 A 
ATOM     10  C   UNL     1       3.353   5.722  19.697  0.00  0.00    +0.000 A 
ATOM     11  N   UNL     1       2.332   5.066  20.302  0.00  0.00    +0.000 NA
ATOM     12  C   UNL     1       1.903   3.946  19.701  0.00  0.00    +0.000 A 
ATOM     13  C   UNL     1       2.442   3.456  18.523  0.00  0.00    +0.000 A 
ATOM     14  C   UNL     1       3.504   4.141  17.911  0.00  0.00    +0.000 A 
ATOM     15  C   UNL     1       4.102   3.557  16.661  0.00  0.00    +0.000 C 
ENDBRANCH   7   9
ENDBRANCH   2   5
BRANCH   1  16
ATOM     16  C   UNL     1       8.455   9.036  17.713  0.00  0.00    +0.000 C 
BRANCH  16  17
ATOM     17  C   UNL     1       8.933   9.955  18.840  0.00  0.00    +0.000 C 
BRANCH  17  21
ATOM     18  C   UNL     1      10.880  13.523  17.367  0.00  0.00    +0.000 A 
ATOM     19  C   UNL     1      11.622  12.373  17.627  0.00  0.00    +0.000 A 
ATOM     20  C   UNL     1      10.994  11.209  18.089  0.00  0.00    +0.000 A 
ATOM     21  C   UNL     1       9.611  11.195  18.309  0.00  0.00    +0.000 A 
ATOM     22  C   UNL     1       8.873  12.358  18.066  0.00  0.00    +0.000 A 
ATOM     23  C   UNL     1       9.505  13.518  17.595  0.00  0.00    +0.000 A 
BRANCH  18  25
ATOM     24  C   UNL     1      10.935  15.855  16.968  0.00  0.00    +0.000 C 
ATOM     25  O   UNL     1      11.607  14.602  16.938  0.00  0.00    +0.000 OA
ENDBRANCH  18  25
ENDBRANCH  17  21
ENDBRANCH  16  17
ENDBRANCH   1  16
TORSDOF 6
ENDMDL
