MODEL 1
REMARK VINA RESULT:      -6.9      0.000      0.000
REMARK  Name = 
REMARK  5 active torsions:
REMARK  status: ('A' for Active; 'I' for Inactive)
REMARK    1  A    between atoms: C_1  and  C_2
REMARK    2  A    between atoms: C_2  and  C_4
REMARK    3  A    between atoms: N_6  and  C_7
REMARK    4  A    between atoms: C_7  and  C_8
REMARK    5  A    between atoms: N_15  and  C_16
REMARK                            x       y       z     vdW  Elec       q    Type
REMARK                         _______ _______ _______ _____ _____    ______ ____
ROOT
ATOM      1  C   UNL     1       2.898   6.040  19.465  0.00  0.00    +0.000 A 
ATOM      2  C   UNL     1       4.137   5.897  18.981  0.00  0.00    +0.000 A 
ATOM      3  N   UNL     1       4.825   4.702  19.040  0.00  0.00    +0.000 N 
ATOM      4  C   UNL     1       4.299   3.567  19.651  0.00  0.00    +0.000 A 
ATOM      5  O   UNL     1       4.957   2.536  19.793  0.00  0.00    +0.000 OA
ATOM      6  N   UNL     1       2.979   3.683  20.081  0.00  0.00    +0.000 N 
ATOM      7  C   UNL     1       2.323   2.511  20.630  0.00  0.00    +0.000 C 
ATOM      8  C   UNL     1       2.231   4.851  20.036  0.00  0.00    +0.000 A 
ATOM      9  O   UNL     1       1.067   4.913  20.427  0.00  0.00    +0.000 OA
ENDROOT
BRANCH   1  11
ATOM     10  C   UNL     1       2.132   8.071  18.069  0.00  0.00    +0.000 C 
ATOM     11  C   UNL     1       2.276   7.392  19.404  0.00  0.00    +0.000 C 
ATOM     12  O   UNL     1       1.845   7.925  20.431  0.00  0.00    +0.000 OA
ENDBRANCH   1  11
BRANCH   3  13
ATOM     13  C   UNL     1       6.192   4.637  18.517  0.00  0.00    +0.000 C 
BRANCH  13  14
ATOM     14  C   UNL     1       6.157   4.526  17.036  0.00  0.00    +0.000 A 
ATOM     15  C   UNL     1       5.217   4.043  16.147  0.00  0.00    +0.000 A 
ATOM     16  C   UNL     1       5.779   4.185  14.857  0.00  0.00    +0.000 A 
ATOM     17  C   UNL     1       7.018   4.755  15.039  0.00  0.00    +0.000 A 
ATOM     18  O   UNL     1       7.255   4.971  16.358  0.00  0.00    +0.000 OA
ENDBRANCH  13  14
ENDBRANCH   3  13
TORSDOF 3
ENDMDL
MODEL 2
REMARK VINA RESULT:      -6.9      1.827      5.442
REMARK  Name = 
REMARK  5 active torsions:
REMARK  status: ('A' for Active; 'I' for Inactive)
REMARK    1  A    between atoms: C_1  and  C_2
REMARK    2  A    between atoms: C_2  and  C_4
REMARK    3  A    between atoms: N_6  and  C_7
REMARK    4  A    between atoms: C_7  and  C_8
REMARK    5  A    between atoms: N_15  and  C_16
REMARK                            x       y       z     vdW  Elec       q    Type
REMARK                         _______ _______ _______ _____ _____    ______ ____
ROOT
ATOM      1  C   UNL     1       5.678   5.111  16.031  0.00  0.00    +0.000 A 
ATOM      2  C   UNL     1       5.521   4.200  16.998  0.00  0.00    +0.000 A 
ATOM      3  N   UNL     1       4.771   4.439  18.131  0.00  0.00    +0.000 N 
ATOM      4  C   UNL     1       4.160   5.666  18.376  0.00  0.00    +0.000 A 
ATOM      5  O   UNL     1       3.581   5.907  19.436  0.00  0.00    +0.000 OA
ATOM      6  N   UNL     1       4.248   6.591  17.339  0.00  0.00    +0.000 N 
ATOM      7  C   UNL     1       3.546   7.853  17.473  0.00  0.00    +0.000 C 
ATOM      8  C   UNL     1       4.974   6.403  16.171  0.00  0.00    +0.000 A 
ATOM      9  O   UNL     1       5.027   7.245  15.277  0.00  0.00    +0.000 OA
ENDROOT
BRANCH   1  11
ATOM     10  C   UNL     1       6.039   3.856  13.806  0.00  0.00    +0.000 C 
ATOM     11  C   UNL     1       6.562   4.767  14.883  0.00  0.00    +0.000 C 
ATOM     12  O   UNL     1       7.690   5.261  14.796  0.00  0.00    +0.000 OA
ENDBRANCH   1  11
BRANCH   3  13
ATOM     13  C   UNL     1       4.676   3.399  19.159  0.00  0.00    +0.000 C 
BRANCH  13  14
ATOM     14  C   UNL     1       3.280   2.896  19.233  0.00  0.00    +0.000 A 
ATOM     15  C   UNL     1       2.407   2.389  18.291  0.00  0.00    +0.000 A 
ATOM     16  C   UNL     1       1.203   2.105  18.976  0.00  0.00    +0.000 A 
ATOM     17  C   UNL     1       1.420   2.446  20.290  0.00  0.00    +0.000 A 
ATOM     18  O   UNL     1       2.679   2.923  20.458  0.00  0.00    +0.000 OA
ENDBRANCH  13  14
ENDBRANCH   3  13
TORSDOF 3
ENDMDL
MODEL 3
REMARK VINA RESULT:      -6.7      1.961      5.643
REMARK  Name = 
REMARK  5 active torsions:
REMARK  status: ('A' for Active; 'I' for Inactive)
REMARK    1  A    between atoms: C_1  and  C_2
REMARK    2  A    between atoms: C_2  and  C_4
REMARK    3  A    between atoms: N_6  and  C_7
REMARK    4  A    between atoms: C_7  and  C_8
REMARK    5  A    between atoms: N_15  and  C_16
REMARK                            x       y       z     vdW  Elec       q    Type
REMARK                         _______ _______ _______ _____ _____    ______ ____
ROOT
ATOM      1  C   UNL     1       5.391   4.813  16.486  0.00  0.00    +0.000 A 
ATOM      2  C   UNL     1       4.544   3.835  16.827  0.00  0.00    +0.000 A 
ATOM      3  N   UNL     1       3.348   4.078  17.470  0.00  0.00    +0.000 N 
ATOM      4  C   UNL     1       2.954   5.357  17.857  0.00  0.00    +0.000 A 
ATOM      5  O   UNL     1       1.937   5.554  18.522  0.00  0.00    +0.000 OA
ATOM      6  N   UNL     1       3.789   6.388  17.434  0.00  0.00    +0.000 N 
ATOM      7  C   UNL     1       3.392   7.757  17.703  0.00  0.00    +0.000 C 
ATOM      8  C   UNL     1       4.996   6.208  16.771  0.00  0.00    +0.000 A 
ATOM      9  O   UNL     1       5.705   7.146  16.413  0.00  0.00    +0.000 OA
ENDROOT
BRANCH   1  11
ATOM     10  C   UNL     1       6.723   4.180  14.369  0.00  0.00    +0.000 C 
ATOM     11  C   UNL     1       6.683   4.429  15.852  0.00  0.00    +0.000 C 
ATOM     12  O   UNL     1       7.713   4.363  16.529  0.00  0.00    +0.000 OA
ENDBRANCH   1  11
BRANCH   3  13
ATOM     13  C   UNL     1       2.491   2.948  17.838  0.00  0.00    +0.000 C 
BRANCH  13  14
ATOM     14  C   UNL     1       2.420   2.834  19.318  0.00  0.00    +0.000 A 
ATOM     15  C   UNL     1       3.380   2.712  20.302  0.00  0.00    +0.000 A 
ATOM     16  C   UNL     1       2.683   2.619  21.529  0.00  0.00    +0.000 A 
ATOM     17  C   UNL     1       1.346   2.701  21.217  0.00  0.00    +0.000 A 
ATOM     18  O   UNL     1       1.175   2.837  19.878  0.00  0.00    +0.000 OA
ENDBRANCH  13  14
ENDBRANCH   3  13
TORSDOF 3
ENDMDL
MODEL 4
REMARK VINA RESULT:      -6.7      1.593      3.557
REMARK  Name = 
REMARK  5 active torsions:
REMARK  status: ('A' for Active; 'I' for Inactive)
REMARK    1  A    between atoms: C_1  and  C_2
REMARK    2  A    between atoms: C_2  and  C_4
REMARK    3  A    between atoms: N_6  and  C_7
REMARK    4  A    between atoms: C_7  and  C_8
REMARK    5  A    between atoms: N_15  and  C_16
REMARK                            x       y       z     vdW  Elec       q    Type
REMARK                         _______ _______ _______ _____ _____    ______ ____
ROOT
ATOM      1  C   UNL     1       4.405   3.687  19.083  0.00  0.00    +0.000 A 
ATOM      2  C   UNL     1       5.465   4.064  18.358  0.00  0.00    +0.000 A 
ATOM      3  N   UNL     1       5.584   5.328  17.816  0.00  0.00    +0.000 N 
ATOM      4  C   UNL     1       4.587   6.292  17.944  0.00  0.00    +0.000 A 
ATOM      5  O   UNL     1       4.654   7.380  17.371  0.00  0.00    +0.000 OA
ATOM      6  N   UNL     1       3.520   5.937  18.765  0.00  0.00    +0.000 N 
ATOM      7  C   UNL     1       2.494   6.926  19.035  0.00  0.00    +0.000 C 
ATOM      8  C   UNL     1       3.352   4.688  19.349  0.00  0.00    +0.000 A 
ATOM      9  O   UNL     1       2.394   4.414  20.069  0.00  0.00    +0.000 OA
ENDROOT
BRANCH   1  11
ATOM     10  C   UNL     1       3.578   1.263  18.768  0.00  0.00    +0.000 C 
ATOM     11  C   UNL     1       4.353   2.279  19.563  0.00  0.00    +0.000 C 
ATOM     12  O   UNL     1       4.976   1.943  20.574  0.00  0.00    +0.000 OA
ENDBRANCH   1  11
BRANCH   3  13
ATOM     13  C   UNL     1       6.762   5.651  17.007  0.00  0.00    +0.000 C 
BRANCH  13  14
ATOM     14  C   UNL     1       6.611   5.068  15.649  0.00  0.00    +0.000 A 
ATOM     15  C   UNL     1       5.674   4.229  15.080  0.00  0.00    +0.000 A 
ATOM     16  C   UNL     1       6.094   4.008  13.748  0.00  0.00    +0.000 A 
ATOM     17  C   UNL     1       7.252   4.732  13.586  0.00  0.00    +0.000 A 
ATOM     18  O   UNL     1       7.572   5.384  14.732  0.00  0.00    +0.000 OA
ENDBRANCH  13  14
ENDBRANCH   3  13
TORSDOF 3
ENDMDL
MODEL 5
REMARK VINA RESULT:      -6.7      2.134      3.798
REMARK  Name = 
REMARK  5 active torsions:
REMARK  status: ('A' for Active; 'I' for Inactive)
REMARK    1  A    between atoms: C_1  and  C_2
REMARK    2  A    between atoms: C_2  and  C_4
REMARK    3  A    between atoms: N_6  and  C_7
REMARK    4  A    between atoms: C_7  and  C_8
REMARK    5  A    between atoms: N_15  and  C_16
REMARK                            x       y       z     vdW  Elec       q    Type
REMARK                         _______ _______ _______ _____ _____    ______ ____
ROOT
ATOM      1  C   UNL     1       3.591   4.025  17.847  0.00  0.00    +0.000 A 
ATOM      2  C   UNL     1       4.839   3.860  17.392  0.00  0.00    +0.000 A 
ATOM      3  N   UNL     1       5.631   4.917  16.992  0.00  0.00    +0.000 N 
ATOM      4  C   UNL     1       5.174   6.232  16.987  0.00  0.00    +0.000 A 
ATOM      5  O   UNL     1       5.848   7.156  16.531  0.00  0.00    +0.000 OA
ATOM      6  N   UNL     1       3.909   6.423  17.536  0.00  0.00    +0.000 N 
ATOM      7  C   UNL     1       3.405   7.777  17.666  0.00  0.00    +0.000 C 
ATOM      8  C   UNL     1       3.071   5.403  17.969  0.00  0.00    +0.000 A 
ATOM      9  O   UNL     1       1.959   5.613  18.449  0.00  0.00    +0.000 OA
ENDROOT
BRANCH   1  11
ATOM     10  C   UNL     1       2.722   2.373  19.628  0.00  0.00    +0.000 C 
ATOM     11  C   UNL     1       2.806   2.808  18.190  0.00  0.00    +0.000 C 
ATOM     12  O   UNL     1       2.195   2.193  17.311  0.00  0.00    +0.000 OA
ENDBRANCH   1  11
BRANCH   3  13
ATOM     13  C   UNL     1       6.975   4.648  16.475  0.00  0.00    +0.000 C 
BRANCH  13  14
ATOM     14  C   UNL     1       6.930   4.544  14.993  0.00  0.00    +0.000 A 
ATOM     15  C   UNL     1       6.198   3.761  14.123  0.00  0.00    +0.000 A 
ATOM     16  C   UNL     1       6.625   4.108  12.820  0.00  0.00    +0.000 A 
ATOM     17  C   UNL     1       7.579   5.086  12.977  0.00  0.00    +0.000 A 
ATOM     18  O   UNL     1       7.769   5.361  14.292  0.00  0.00    +0.000 OA
ENDBRANCH  13  14
ENDBRANCH   3  13
TORSDOF 3
ENDMDL
MODEL 6
REMARK VINA RESULT:      -6.7      2.098      5.459
REMARK  Name = 
REMARK  5 active torsions:
REMARK  status: ('A' for Active; 'I' for Inactive)
REMARK    1  A    between atoms: C_1  and  C_2
REMARK    2  A    between atoms: C_2  and  C_4
REMARK    3  A    between atoms: N_6  and  C_7
REMARK    4  A    between atoms: C_7  and  C_8
REMARK    5  A    between atoms: N_15  and  C_16
REMARK                            x       y       z     vdW  Elec       q    Type
REMARK                         _______ _______ _______ _____ _____    ______ ____
ROOT
ATOM      1  C   UNL     1       5.905   5.132  17.827  0.00  0.00    +0.000 A 
ATOM      2  C   UNL     1       5.134   4.044  17.941  0.00  0.00    +0.000 A 
ATOM      3  N   UNL     1       3.756   4.102  17.908  0.00  0.00    +0.000 N 
ATOM      4  C   UNL     1       3.062   5.305  17.803  0.00  0.00    +0.000 A 
ATOM      5  O   UNL     1       1.834   5.359  17.880  0.00  0.00    +0.000 OA
ATOM      6  N   UNL     1       3.855   6.432  17.601  0.00  0.00    +0.000 N 
ATOM      7  C   UNL     1       3.202   7.707  17.374  0.00  0.00    +0.000 C 
ATOM      8  C   UNL     1       5.243   6.435  17.608  0.00  0.00    +0.000 A 
ATOM      9  O   UNL     1       5.908   7.453  17.426  0.00  0.00    +0.000 OA
ENDROOT
BRANCH   1  11
ATOM     10  C   UNL     1       8.089   5.500  19.152  0.00  0.00    +0.000 C 
ATOM     11  C   UNL     1       7.380   4.958  17.940  0.00  0.00    +0.000 C 
ATOM     12  O   UNL     1       8.001   4.338  17.073  0.00  0.00    +0.000 OA
ENDBRANCH   1  11
BRANCH   3  13
ATOM     13  C   UNL     1       2.984   2.868  18.072  0.00  0.00    +0.000 C 
BRANCH  13  14
ATOM     14  C   UNL     1       2.442   2.797  19.454  0.00  0.00    +0.000 A 
ATOM     15  C   UNL     1       1.160   2.800  19.967  0.00  0.00    +0.000 A 
ATOM     16  C   UNL     1       1.295   2.737  21.373  0.00  0.00    +0.000 A 
ATOM     17  C   UNL     1       2.645   2.688  21.628  0.00  0.00    +0.000 A 
ATOM     18  O   UNL     1       3.351   2.720  20.469  0.00  0.00    +0.000 OA
ENDBRANCH  13  14
ENDBRANCH   3  13
TORSDOF 3
ENDMDL
MODEL 7
REMARK VINA RESULT:      -6.7      1.982      5.426
REMARK  Name = 
REMARK  5 active torsions:
REMARK  status: ('A' for Active; 'I' for Inactive)
REMARK    1  A    between atoms: C_1  and  C_2
REMARK    2  A    between atoms: C_2  and  C_4
REMARK    3  A    between atoms: N_6  and  C_7
REMARK    4  A    between atoms: C_7  and  C_8
REMARK    5  A    between atoms: N_15  and  C_16
REMARK                            x       y       z     vdW  Elec       q    Type
REMARK                         _______ _______ _______ _____ _____    ______ ____
ROOT
ATOM      1  C   UNL     1       6.524   5.299  18.501  0.00  0.00    +0.000 A 
ATOM      2  C   UNL     1       5.263   5.459  18.920  0.00  0.00    +0.000 A 
ATOM      3  N   UNL     1       4.177   4.999  18.204  0.00  0.00    +0.000 N 
ATOM      4  C   UNL     1       4.310   4.375  16.966  0.00  0.00    +0.000 A 
ATOM      5  O   UNL     1       3.333   4.061  16.285  0.00  0.00    +0.000 OA
ATOM      6  N   UNL     1       5.620   4.130  16.562  0.00  0.00    +0.000 N 
ATOM      7  C   UNL     1       5.841   3.387  15.336  0.00  0.00    +0.000 C 
ATOM      8  C   UNL     1       6.751   4.554  17.246  0.00  0.00    +0.000 A 
ATOM      9  O   UNL     1       7.893   4.318  16.856  0.00  0.00    +0.000 OA
ENDROOT
BRANCH   1  11
ATOM     10  C   UNL     1       8.297   7.144  18.839  0.00  0.00    +0.000 C 
ATOM     11  C   UNL     1       7.614   5.894  19.324  0.00  0.00    +0.000 C 
ATOM     12  O   UNL     1       7.918   5.392  20.409  0.00  0.00    +0.000 OA
ENDBRANCH   1  11
BRANCH   3  13
ATOM     13  C   UNL     1       2.827   5.243  18.716  0.00  0.00    +0.000 C 
BRANCH  13  14
ATOM     14  C   UNL     1       2.465   4.188  19.698  0.00  0.00    +0.000 A 
ATOM     15  C   UNL     1       2.061   2.874  19.566  0.00  0.00    +0.000 A 
ATOM     16  C   UNL     1       1.838   2.394  20.877  0.00  0.00    +0.000 A 
ATOM     17  C   UNL     1       2.129   3.438  21.724  0.00  0.00    +0.000 A 
ATOM     18  O   UNL     1       2.516   4.531  21.018  0.00  0.00    +0.000 OA
ENDBRANCH  13  14
ENDBRANCH   3  13
TORSDOF 3
ENDMDL
MODEL 8
REMARK VINA RESULT:      -6.5      1.347      1.981
REMARK  Name = 
REMARK  5 active torsions:
REMARK  status: ('A' for Active; 'I' for Inactive)
REMARK    1  A    between atoms: C_1  and  C_2
REMARK    2  A    between atoms: C_2  and  C_4
REMARK    3  A    between atoms: N_6  and  C_7
REMARK    4  A    between atoms: C_7  and  C_8
REMARK    5  A    between atoms: N_15  and  C_16
REMARK                            x       y       z     vdW  Elec       q    Type
REMARK                         _______ _______ _______ _____ _____    ______ ____
ROOT
ATOM      1  C   UNL     1       2.556   5.973  19.293  0.00  0.00    +0.000 A 
ATOM      2  C   UNL     1       3.627   5.723  18.531  0.00  0.00    +0.000 A 
ATOM      3  N   UNL     1       4.128   4.451  18.346  0.00  0.00    +0.000 N 
ATOM      4  C   UNL     1       3.585   3.335  18.979  0.00  0.00    +0.000 A 
ATOM      5  O   UNL     1       4.101   2.220  18.894  0.00  0.00    +0.000 OA
ATOM      6  N   UNL     1       2.422   3.574  19.707  0.00  0.00    +0.000 N 
ATOM      7  C   UNL     1       1.736   2.445  20.307  0.00  0.00    +0.000 C 
ATOM      8  C   UNL     1       1.862   4.827  19.916  0.00  0.00    +0.000 A 
ATOM      9  O   UNL     1       0.832   4.996  20.566  0.00  0.00    +0.000 OA
ENDROOT
BRANCH   1  11
ATOM     10  C   UNL     1       2.085   8.294  18.269  0.00  0.00    +0.000 C 
ATOM     11  C   UNL     1       2.141   7.392  19.472  0.00  0.00    +0.000 C 
ATOM     12  O   UNL     1       1.805   7.806  20.585  0.00  0.00    +0.000 OA
ENDBRANCH   1  11
BRANCH   3  13
ATOM     13  C   UNL     1       5.325   4.266  17.522  0.00  0.00    +0.000 C 
BRANCH  13  14
ATOM     14  C   UNL     1       6.390   5.200  17.969  0.00  0.00    +0.000 A 
ATOM     15  C   UNL     1       6.924   6.352  17.428  0.00  0.00    +0.000 A 
ATOM     16  C   UNL     1       7.938   6.776  18.318  0.00  0.00    +0.000 A 
ATOM     17  C   UNL     1       7.952   5.865  19.348  0.00  0.00    +0.000 A 
ATOM     18  O   UNL     1       7.012   4.906  19.148  0.00  0.00    +0.000 OA
ENDBRANCH  13  14
ENDBRANCH   3  13
TORSDOF 3
ENDMDL
MODEL 9
REMARK VINA RESULT:      -6.5      1.950      5.324
REMARK  Name = 
REMARK  5 active torsions:
REMARK  status: ('A' for Active; 'I' for Inactive)
REMARK    1  A    between atoms: C_1  and  C_2
REMARK    2  A    between atoms: C_2  and  C_4
REMARK    3  A    between atoms: N_6  and  C_7
REMARK    4  A    between atoms: C_7  and  C_8
REMARK    5  A    between atoms: N_15  and  C_16
REMARK                            x       y       z     vdW  Elec       q    Type
REMARK                         _______ _______ _______ _____ _____    ______ ____
ROOT
ATOM      1  C   UNL     1       6.688   5.137  18.438  0.00  0.00    +0.000 A 
ATOM      2  C   UNL     1       5.519   5.006  19.077  0.00  0.00    +0.000 A 
ATOM      3  N   UNL     1       4.410   4.434  18.490  0.00  0.00    +0.000 N 
ATOM      4  C   UNL     1       4.409   3.992  17.169  0.00  0.00    +0.000 A 
ATOM      5  O   UNL     1       3.387   3.579  16.619  0.00  0.00    +0.000 OA
ATOM      6  N   UNL     1       5.641   4.047  16.524  0.00  0.00    +0.000 N 
ATOM      7  C   UNL     1       5.747   3.505  15.182  0.00  0.00    +0.000 C 
ATOM      8  C   UNL     1       6.795   4.597  17.066  0.00  0.00    +0.000 A 
ATOM      9  O   UNL     1       7.866   4.627  16.463  0.00  0.00    +0.000 OA
ENDROOT
BRANCH   1  11
ATOM     10  C   UNL     1       8.222   7.197  18.686  0.00  0.00    +0.000 C 
ATOM     11  C   UNL     1       7.799   5.828  19.147  0.00  0.00    +0.000 C 
ATOM     12  O   UNL     1       8.332   5.303  20.129  0.00  0.00    +0.000 OA
ENDBRANCH   1  11
BRANCH   3  13
ATOM     13  C   UNL     1       3.158   4.358  19.247  0.00  0.00    +0.000 C 
BRANCH  13  14
ATOM     14  C   UNL     1       2.648   5.730  19.509  0.00  0.00    +0.000 A 
ATOM     15  C   UNL     1       2.013   6.311  20.588  0.00  0.00    +0.000 A 
ATOM     16  C   UNL     1       1.752   7.651  20.221  0.00  0.00    +0.000 A 
ATOM     17  C   UNL     1       2.253   7.806  18.949  0.00  0.00    +0.000 A 
ATOM     18  O   UNL     1       2.803   6.646  18.509  0.00  0.00    +0.000 OA
ENDBRANCH  13  14
ENDBRANCH   3  13
TORSDOF 3
ENDMDL
