MODEL 1
REMARK VINA RESULT:      -8.4      0.000      0.000
REMARK  Name = 
REMARK  10 active torsions:
REMARK  status: ('A' for Active; 'I' for Inactive)
REMARK    1  A    between atoms: C_4  and  O_5
REMARK    2  A    between atoms: O_5  and  C_6
REMARK    3  A    between atoms: C_6  and  C_7
REMARK    4  A    between atoms: C_7  and  N_8
REMARK    5  A    between atoms: N_8  and  C_9
REMARK    6  A    between atoms: C_9  and  C_10
REMARK    7  A    between atoms: C_10  and  C_11
REMARK    8  A    between atoms: C_14  and  C_15
REMARK    9  A    between atoms: C_15  and  C_16
REMARK   10  A    between atoms: C_15  and  C_22
REMARK                            x       y       z     vdW  Elec       q    Type
REMARK                         _______ _______ _______ _____ _____    ______ ____
ROOT
ATOM      1  C   UNL     1       4.948   5.144  17.378  0.00  0.00    +0.000 C 
ATOM      2  C   UNL     1       5.605   4.133  18.280  0.00  0.00    +0.000 C 
ATOM      3  O   UNL     1       4.945   4.350  19.537  0.00  0.00    +0.000 OA
ATOM      4  C   UNL     1       4.545   5.739  19.512  0.00  0.00    +0.000 C 
ATOM      5  O   UNL     1       4.840   6.285  18.216  0.00  0.00    +0.000 OA
ENDROOT
BRANCH   1   6
ATOM      6  C   UNL     1       5.633   5.502  16.078  0.00  0.00    +0.000 C 
BRANCH   6   7
ATOM      7  C   UNL     1       7.029   6.020  16.380  0.00  0.00    +0.000 C 
BRANCH   7   8
ATOM      8  N   UNL     1       6.977   7.426  16.753  0.00  0.00    +0.000 NA
ATOM      9  H   UNL     1       7.282   7.999  15.965  0.00  0.00    +0.000 HD
BRANCH   8  10
ATOM     10  C   UNL     1       7.853   7.660  17.904  0.00  0.00    +0.000 C 
BRANCH  10  11
ATOM     11  C   UNL     1       8.297   9.119  17.945  0.00  0.00    +0.000 C 
BRANCH  11  12
ATOM     12  O   UNL     1       8.975   9.345  19.181  0.00  0.00    +0.000 OA
BRANCH  12  16
ATOM     13  C   UNL     1      10.539  13.195  19.344  0.00  0.00    +0.000 A 
ATOM     14  C   UNL     1      10.147  12.618  18.137  0.00  0.00    +0.000 A 
ATOM     15  C   UNL     1       9.618  11.327  18.118  0.00  0.00    +0.000 A 
ATOM     16  C   UNL     1       9.508  10.599  19.306  0.00  0.00    +0.000 A 
ATOM     17  C   UNL     1       9.884  11.187  20.516  0.00  0.00    +0.000 A 
ATOM     18  C   UNL     1      10.402  12.482  20.533  0.00  0.00    +0.000 A 
ENDBRANCH  12  16
ENDBRANCH  11  12
ENDBRANCH  10  11
ENDBRANCH   8  10
ENDBRANCH   7   8
ENDBRANCH   6   7
ENDBRANCH   1   6
BRANCH   4  19
ATOM     19  C   UNL     1       3.046   5.916  19.939  0.00  0.00    +0.000 C 
BRANCH  19  20
ATOM     20  C   UNL     1       2.104   4.762  19.558  0.00  0.00    +0.000 A 
ATOM     21  C   UNL     1       1.542   3.917  20.534  0.00  0.00    +0.000 A 
ATOM     22  C   UNL     1       0.731   2.838  20.184  0.00  0.00    +0.000 A 
ATOM     23  C   UNL     1       0.494   2.559  18.843  0.00  0.00    +0.000 A 
ATOM     24  C   UNL     1       1.047   3.377  17.859  0.00  0.00    +0.000 A 
ATOM     25  C   UNL     1       1.836   4.477  18.210  0.00  0.00    +0.000 A 
ENDBRANCH  19  20
BRANCH  19  26
ATOM     26  C   UNL     1       2.423   7.253  19.509  0.00  0.00    +0.000 A 
ATOM     27  C   UNL     1       1.638   7.978  20.420  0.00  0.00    +0.000 A 
ATOM     28  C   UNL     1       0.921   9.102  20.002  0.00  0.00    +0.000 A 
ATOM     29  C   UNL     1       0.969   9.513  18.674  0.00  0.00    +0.000 A 
ATOM     30  C   UNL     1       1.764   8.824  17.766  0.00  0.00    +0.000 A 
ATOM     31  C   UNL     1       2.493   7.713  18.182  0.00  0.00    +0.000 A 
ENDBRANCH  19  26
ENDBRANCH   4  19
TORSDOF 10
ENDMDL
MODEL 2
REMARK VINA RESULT:      -8.1      3.388      6.391
REMARK  Name = 
REMARK  10 active torsions:
REMARK  status: ('A' for Active; 'I' for Inactive)
REMARK    1  A    between atoms: C_4  and  O_5
REMARK    2  A    between atoms: O_5  and  C_6
REMARK    3  A    between atoms: C_6  and  C_7
REMARK    4  A    between atoms: C_7  and  N_8
REMARK    5  A    between atoms: N_8  and  C_9
REMARK    6  A    between atoms: C_9  and  C_10
REMARK    7  A    between atoms: C_10  and  C_11
REMARK    8  A    between atoms: C_14  and  C_15
REMARK    9  A    between atoms: C_15  and  C_16
REMARK   10  A    between atoms: C_15  and  C_22
REMARK                            x       y       z     vdW  Elec       q    Type
REMARK                         _______ _______ _______ _____ _____    ______ ____
ROOT
ATOM      1  C   UNL     1       6.210   5.783  18.242  0.00  0.00    +0.000 C 
ATOM      2  C   UNL     1       6.110   7.040  17.420  0.00  0.00    +0.000 C 
ATOM      3  O   UNL     1       4.740   7.431  17.600  0.00  0.00    +0.000 OA
ATOM      4  C   UNL     1       4.031   6.198  17.854  0.00  0.00    +0.000 C 
ATOM      5  O   UNL     1       4.983   5.127  17.958  0.00  0.00    +0.000 OA
ENDROOT
BRANCH   1   6
ATOM      6  C   UNL     1       7.378   4.855  18.000  0.00  0.00    +0.000 C 
BRANCH   6   7
ATOM      7  C   UNL     1       7.433   4.503  16.523  0.00  0.00    +0.000 C 
BRANCH   7   8
ATOM      8  N   UNL     1       6.438   3.490  16.207  0.00  0.00    +0.000 NA
ATOM      9  H   UNL     1       6.867   2.565  16.249  0.00  0.00    +0.000 HD
BRANCH   8  10
ATOM     10  C   UNL     1       5.906   3.727  14.862  0.00  0.00    +0.000 C 
BRANCH  10  11
ATOM     11  C   UNL     1       6.575   4.945  14.233  0.00  0.00    +0.000 C 
BRANCH  11  12
ATOM     12  O   UNL     1       7.163   4.544  12.997  0.00  0.00    +0.000 OA
BRANCH  12  16
ATOM     13  C   UNL     1       4.788   1.852  10.895  0.00  0.00    +0.000 A 
ATOM     14  C   UNL     1       4.272   3.050  11.390  0.00  0.00    +0.000 A 
ATOM     15  C   UNL     1       5.097   3.935  12.083  0.00  0.00    +0.000 A 
ATOM     16  C   UNL     1       6.438   3.609  12.309  0.00  0.00    +0.000 A 
ATOM     17  C   UNL     1       6.957   2.418  11.796  0.00  0.00    +0.000 A 
ATOM     18  C   UNL     1       6.132   1.540  11.094  0.00  0.00    +0.000 A 
ENDBRANCH  12  16
ENDBRANCH  11  12
ENDBRANCH  10  11
ENDBRANCH   8  10
ENDBRANCH   7   8
ENDBRANCH   6   7
ENDBRANCH   1   6
BRANCH   4  19
ATOM     19  C   UNL     1       3.087   6.319  19.101  0.00  0.00    +0.000 C 
BRANCH  19  20
ATOM     20  C   UNL     1       2.259   5.067  19.434  0.00  0.00    +0.000 A 
ATOM     21  C   UNL     1       2.113   4.611  20.758  0.00  0.00    +0.000 A 
ATOM     22  C   UNL     1       1.406   3.447  21.054  0.00  0.00    +0.000 A 
ATOM     23  C   UNL     1       0.861   2.690  20.023  0.00  0.00    +0.000 A 
ATOM     24  C   UNL     1       1.001   3.116  18.704  0.00  0.00    +0.000 A 
ATOM     25  C   UNL     1       1.684   4.301  18.409  0.00  0.00    +0.000 A 
ENDBRANCH  19  20
BRANCH  19  26
ATOM     26  C   UNL     1       2.172   7.552  19.079  0.00  0.00    +0.000 A 
ATOM     27  C   UNL     1       1.973   8.247  17.875  0.00  0.00    +0.000 A 
ATOM     28  C   UNL     1       1.290   9.467  17.865  0.00  0.00    +0.000 A 
ATOM     29  C   UNL     1       0.805  10.011  19.049  0.00  0.00    +0.000 A 
ATOM     30  C   UNL     1       0.967   9.322  20.244  0.00  0.00    +0.000 A 
ATOM     31  C   UNL     1       1.633   8.098  20.257  0.00  0.00    +0.000 A 
ENDBRANCH  19  26
ENDBRANCH   4  19
TORSDOF 10
ENDMDL
MODEL 3
REMARK VINA RESULT:      -8.0      1.461      3.963
REMARK  Name = 
REMARK  10 active torsions:
REMARK  status: ('A' for Active; 'I' for Inactive)
REMARK    1  A    between atoms: C_4  and  O_5
REMARK    2  A    between atoms: O_5  and  C_6
REMARK    3  A    between atoms: C_6  and  C_7
REMARK    4  A    between atoms: C_7  and  N_8
REMARK    5  A    between atoms: N_8  and  C_9
REMARK    6  A    between atoms: C_9  and  C_10
REMARK    7  A    between atoms: C_10  and  C_11
REMARK    8  A    between atoms: C_14  and  C_15
REMARK    9  A    between atoms: C_15  and  C_16
REMARK   10  A    between atoms: C_15  and  C_22
REMARK                            x       y       z     vdW  Elec       q    Type
REMARK                         _______ _______ _______ _____ _____    ______ ____
ROOT
ATOM      1  C   UNL     1       6.816   6.154  17.832  0.00  0.00    +0.000 C 
ATOM      2  C   UNL     1       7.210   4.731  18.128  0.00  0.00    +0.000 C 
ATOM      3  O   UNL     1       5.966   4.129  18.516  0.00  0.00    +0.000 OA
ATOM      4  C   UNL     1       5.183   5.214  19.065  0.00  0.00    +0.000 C 
ATOM      5  O   UNL     1       5.897   6.445  18.875  0.00  0.00    +0.000 OA
ENDROOT
BRANCH   1   6
ATOM      6  C   UNL     1       7.902   7.205  17.771  0.00  0.00    +0.000 C 
BRANCH   6   7
ATOM      7  C   UNL     1       7.257   8.579  17.693  0.00  0.00    +0.000 C 
BRANCH   7   8
ATOM      8  N   UNL     1       8.277   9.616  17.690  0.00  0.00    +0.000 NA
ATOM      9  H   UNL     1       8.927   9.454  16.919  0.00  0.00    +0.000 HD
BRANCH   8  10
ATOM     10  C   UNL     1       9.005   9.591  18.962  0.00  0.00    +0.000 C 
BRANCH  10  11
ATOM     11  C   UNL     1       9.413  11.003  19.369  0.00  0.00    +0.000 C 
BRANCH  11  12
ATOM     12  O   UNL     1       8.931  11.911  18.380  0.00  0.00    +0.000 OA
BRANCH  12  16
ATOM     13  C   UNL     1      11.838  14.592  17.093  0.00  0.00    +0.000 A 
ATOM     14  C   UNL     1      12.041  13.213  17.038  0.00  0.00    +0.000 A 
ATOM     15  C   UNL     1      11.042  12.341  17.469  0.00  0.00    +0.000 A 
ATOM     16  C   UNL     1       9.847  12.848  17.986  0.00  0.00    +0.000 A 
ATOM     17  C   UNL     1       9.638  14.229  18.022  0.00  0.00    +0.000 A 
ATOM     18  C   UNL     1      10.635  15.099  17.579  0.00  0.00    +0.000 A 
ENDBRANCH  12  16
ENDBRANCH  11  12
ENDBRANCH  10  11
ENDBRANCH   8  10
ENDBRANCH   7   8
ENDBRANCH   6   7
ENDBRANCH   1   6
BRANCH   4  19
ATOM     19  C   UNL     1       3.730   5.235  18.473  0.00  0.00    +0.000 C 
BRANCH  19  20
ATOM     20  C   UNL     1       2.970   6.563  18.622  0.00  0.00    +0.000 A 
ATOM     21  C   UNL     1       2.946   7.519  17.590  0.00  0.00    +0.000 A 
ATOM     22  C   UNL     1       2.300   8.745  17.746  0.00  0.00    +0.000 A 
ATOM     23  C   UNL     1       1.695   9.056  18.958  0.00  0.00    +0.000 A 
ATOM     24  C   UNL     1       1.714   8.129  19.999  0.00  0.00    +0.000 A 
ATOM     25  C   UNL     1       2.335   6.887  19.831  0.00  0.00    +0.000 A 
ENDBRANCH  19  20
BRANCH  19  26
ATOM     26  C   UNL     1       2.841   4.076  18.945  0.00  0.00    +0.000 A 
ATOM     27  C   UNL     1       1.797   3.622  18.123  0.00  0.00    +0.000 A 
ATOM     28  C   UNL     1       0.870   2.692  18.601  0.00  0.00    +0.000 A 
ATOM     29  C   UNL     1       0.965   2.210  19.902  0.00  0.00    +0.000 A 
ATOM     30  C   UNL     1       2.009   2.625  20.719  0.00  0.00    +0.000 A 
ATOM     31  C   UNL     1       2.945   3.540  20.241  0.00  0.00    +0.000 A 
ENDBRANCH  19  26
ENDBRANCH   4  19
TORSDOF 10
ENDMDL
MODEL 4
REMARK VINA RESULT:      -7.9      3.330      6.407
REMARK  Name = 
REMARK  10 active torsions:
REMARK  status: ('A' for Active; 'I' for Inactive)
REMARK    1  A    between atoms: C_4  and  O_5
REMARK    2  A    between atoms: O_5  and  C_6
REMARK    3  A    between atoms: C_6  and  C_7
REMARK    4  A    between atoms: C_7  and  N_8
REMARK    5  A    between atoms: N_8  and  C_9
REMARK    6  A    between atoms: C_9  and  C_10
REMARK    7  A    between atoms: C_10  and  C_11
REMARK    8  A    between atoms: C_14  and  C_15
REMARK    9  A    between atoms: C_15  and  C_16
REMARK   10  A    between atoms: C_15  and  C_22
REMARK                            x       y       z     vdW  Elec       q    Type
REMARK                         _______ _______ _______ _____ _____    ______ ____
ROOT
ATOM      1  C   UNL     1       6.372   5.725  18.147  0.00  0.00    +0.000 C 
ATOM      2  C   UNL     1       6.337   7.020  17.380  0.00  0.00    +0.000 C 
ATOM      3  O   UNL     1       4.987   7.469  17.574  0.00  0.00    +0.000 OA
ATOM      4  C   UNL     1       4.218   6.261  17.773  0.00  0.00    +0.000 C 
ATOM      5  O   UNL     1       5.116   5.142  17.832  0.00  0.00    +0.000 OA
ENDROOT
BRANCH   1   6
ATOM      6  C   UNL     1       7.496   4.752  17.867  0.00  0.00    +0.000 C 
BRANCH   6   7
ATOM      7  C   UNL     1       7.549   4.474  16.374  0.00  0.00    +0.000 C 
BRANCH   7   8
ATOM      8  N   UNL     1       6.539   3.494  16.006  0.00  0.00    +0.000 NA
ATOM      9  H   UNL     1       6.982   2.585  15.863  0.00  0.00    +0.000 HD
BRANCH   8  10
ATOM     10  C   UNL     1       5.872   3.917  14.772  0.00  0.00    +0.000 C 
BRANCH  10  11
ATOM     11  C   UNL     1       6.648   5.052  14.110  0.00  0.00    +0.000 C 
BRANCH  11  12
ATOM     12  O   UNL     1       7.223   4.556  12.903  0.00  0.00    +0.000 OA
BRANCH  12  16
ATOM     13  C   UNL     1       5.012   1.665  10.891  0.00  0.00    +0.000 A 
ATOM     14  C   UNL     1       6.376   1.503  11.132  0.00  0.00    +0.000 A 
ATOM     15  C   UNL     1       7.087   2.489  11.818  0.00  0.00    +0.000 A 
ATOM     16  C   UNL     1       6.439   3.653  12.238  0.00  0.00    +0.000 A 
ATOM     17  C   UNL     1       5.069   3.805  12.011  0.00  0.00    +0.000 A 
ATOM     18  C   UNL     1       4.358   2.813  11.336  0.00  0.00    +0.000 A 
ENDBRANCH  12  16
ENDBRANCH  11  12
ENDBRANCH  10  11
ENDBRANCH   8  10
ENDBRANCH   7   8
ENDBRANCH   6   7
ENDBRANCH   1   6
BRANCH   4  19
ATOM     19  C   UNL     1       3.276   6.375  19.023  0.00  0.00    +0.000 C 
BRANCH  19  20
ATOM     20  C   UNL     1       2.410   5.140  19.319  0.00  0.00    +0.000 A 
ATOM     21  C   UNL     1       1.781   4.416  18.288  0.00  0.00    +0.000 A 
ATOM     22  C   UNL     1       0.953   3.328  18.561  0.00  0.00    +0.000 A 
ATOM     23  C   UNL     1       0.706   2.963  19.880  0.00  0.00    +0.000 A 
ATOM     24  C   UNL     1       1.310   3.670  20.918  0.00  0.00    +0.000 A 
ATOM     25  C   UNL     1       2.165   4.743  20.642  0.00  0.00    +0.000 A 
ENDBRANCH  19  20
BRANCH  19  26
ATOM     26  C   UNL     1       2.399   7.635  19.037  0.00  0.00    +0.000 A 
ATOM     27  C   UNL     1       1.787   8.041  20.234  0.00  0.00    +0.000 A 
ATOM     28  C   UNL     1       0.848   9.077  20.235  0.00  0.00    +0.000 A 
ATOM     29  C   UNL     1       0.502   9.714  19.048  0.00  0.00    +0.000 A 
ATOM     30  C   UNL     1       1.120   9.344  17.860  0.00  0.00    +0.000 A 
ATOM     31  C   UNL     1       2.068   8.323  17.856  0.00  0.00    +0.000 A 
ENDBRANCH  19  26
ENDBRANCH   4  19
TORSDOF 10
ENDMDL
MODEL 5
REMARK VINA RESULT:      -7.9      4.230      7.924
REMARK  Name = 
REMARK  10 active torsions:
REMARK  status: ('A' for Active; 'I' for Inactive)
REMARK    1  A    between atoms: C_4  and  O_5
REMARK    2  A    between atoms: O_5  and  C_6
REMARK    3  A    between atoms: C_6  and  C_7
REMARK    4  A    between atoms: C_7  and  N_8
REMARK    5  A    between atoms: N_8  and  C_9
REMARK    6  A    between atoms: C_9  and  C_10
REMARK    7  A    between atoms: C_10  and  C_11
REMARK    8  A    between atoms: C_14  and  C_15
REMARK    9  A    between atoms: C_15  and  C_16
REMARK   10  A    between atoms: C_15  and  C_22
REMARK                            x       y       z     vdW  Elec       q    Type
REMARK                         _______ _______ _______ _____ _____    ______ ____
ROOT
ATOM      1  C   UNL     1       1.691   7.606  19.732  0.00  0.00    +0.000 C 
ATOM      2  C   UNL     1       1.837   8.687  18.695  0.00  0.00    +0.000 C 
ATOM      3  O   UNL     1       2.624   8.049  17.677  0.00  0.00    +0.000 OA
ATOM      4  C   UNL     1       3.404   7.055  18.378  0.00  0.00    +0.000 C 
ATOM      5  O   UNL     1       2.983   7.017  19.751  0.00  0.00    +0.000 OA
ENDROOT
BRANCH   1   6
ATOM      6  C   UNL     1       1.265   8.000  21.129  0.00  0.00    +0.000 C 
BRANCH   6   7
ATOM      7  C   UNL     1      -0.065   8.730  21.054  0.00  0.00    +0.000 C 
BRANCH   7   8
ATOM      8  N   UNL     1      -0.109   9.803  22.035  0.00  0.00    +0.000 NA
ATOM      9  H   UNL     1      -1.057   9.890  22.403  0.00  0.00    +0.000 HD
BRANCH   8  10
ATOM     10  C   UNL     1       0.294  11.062  21.403  0.00  0.00    +0.000 C 
BRANCH  10  11
ATOM     11  C   UNL     1      -0.931  11.909  21.076  0.00  0.00    +0.000 C 
BRANCH  11  12
ATOM     12  O   UNL     1      -0.875  12.261  19.694  0.00  0.00    +0.000 OA
BRANCH  12  16
ATOM     13  C   UNL     1      -3.600  10.209  17.315  0.00  0.00    +0.000 A 
ATOM     14  C   UNL     1      -3.998  11.264  18.136  0.00  0.00    +0.000 A 
ATOM     15  C   UNL     1      -3.056  11.937  18.915  0.00  0.00    +0.000 A 
ATOM     16  C   UNL     1      -1.718  11.536  18.896  0.00  0.00    +0.000 A 
ATOM     17  C   UNL     1      -1.319  10.491  18.059  0.00  0.00    +0.000 A 
ATOM     18  C   UNL     1      -2.260   9.827  17.272  0.00  0.00    +0.000 A 
ENDBRANCH  12  16
ENDBRANCH  11  12
ENDBRANCH  10  11
ENDBRANCH   8  10
ENDBRANCH   7   8
ENDBRANCH   6   7
ENDBRANCH   1   6
BRANCH   4  19
ATOM     19  C   UNL     1       3.338   5.659  17.665  0.00  0.00    +0.000 C 
BRANCH  19  20
ATOM     20  C   UNL     1       2.773   4.505  18.510  0.00  0.00    +0.000 A 
ATOM     21  C   UNL     1       1.477   4.000  18.295  0.00  0.00    +0.000 A 
ATOM     22  C   UNL     1       0.946   2.989  19.095  0.00  0.00    +0.000 A 
ATOM     23  C   UNL     1       1.690   2.488  20.157  0.00  0.00    +0.000 A 
ATOM     24  C   UNL     1       2.973   2.979  20.395  0.00  0.00    +0.000 A 
ATOM     25  C   UNL     1       3.517   3.972  19.573  0.00  0.00    +0.000 A 
ENDBRANCH  19  20
BRANCH  19  26
ATOM     26  C   UNL     1       4.658   5.223  17.014  0.00  0.00    +0.000 A 
ATOM     27  C   UNL     1       5.851   5.883  17.353  0.00  0.00    +0.000 A 
ATOM     28  C   UNL     1       7.030   5.625  16.649  0.00  0.00    +0.000 A 
ATOM     29  C   UNL     1       7.036   4.715  15.597  0.00  0.00    +0.000 A 
ATOM     30  C   UNL     1       5.873   4.031  15.268  0.00  0.00    +0.000 A 
ATOM     31  C   UNL     1       4.698   4.274  15.977  0.00  0.00    +0.000 A 
ENDBRANCH  19  26
ENDBRANCH   4  19
TORSDOF 10
ENDMDL
MODEL 6
REMARK VINA RESULT:      -7.9      4.193      7.911
REMARK  Name = 
REMARK  10 active torsions:
REMARK  status: ('A' for Active; 'I' for Inactive)
REMARK    1  A    between atoms: C_4  and  O_5
REMARK    2  A    between atoms: O_5  and  C_6
REMARK    3  A    between atoms: C_6  and  C_7
REMARK    4  A    between atoms: C_7  and  N_8
REMARK    5  A    between atoms: N_8  and  C_9
REMARK    6  A    between atoms: C_9  and  C_10
REMARK    7  A    between atoms: C_10  and  C_11
REMARK    8  A    between atoms: C_14  and  C_15
REMARK    9  A    between atoms: C_15  and  C_16
REMARK   10  A    between atoms: C_15  and  C_22
REMARK                            x       y       z     vdW  Elec       q    Type
REMARK                         _______ _______ _______ _____ _____    ______ ____
ROOT
ATOM      1  C   UNL     1       1.428   7.792  19.734  0.00  0.00    +0.000 C 
ATOM      2  C   UNL     1       1.675   8.893  18.738  0.00  0.00    +0.000 C 
ATOM      3  O   UNL     1       2.559   8.274  17.791  0.00  0.00    +0.000 OA
ATOM      4  C   UNL     1       3.266   7.265  18.546  0.00  0.00    +0.000 C 
ATOM      5  O   UNL     1       2.712   7.200  19.869  0.00  0.00    +0.000 OA
ENDROOT
BRANCH   1   6
ATOM      6  C   UNL     1       0.866   8.158  21.090  0.00  0.00    +0.000 C 
BRANCH   6   7
ATOM      7  C   UNL     1       1.536   9.433  21.575  0.00  0.00    +0.000 C 
BRANCH   7   8
ATOM      8  N   UNL     1       0.592  10.246  22.325  0.00  0.00    +0.000 NA
ATOM      9  H   UNL     1       0.363   9.780  23.205  0.00  0.00    +0.000 HD
BRANCH   8  10
ATOM     10  C   UNL     1      -0.628  10.435  21.536  0.00  0.00    +0.000 C 
BRANCH  10  11
ATOM     11  C   UNL     1      -0.613  11.799  20.853  0.00  0.00    +0.000 C 
BRANCH  11  12
ATOM     12  O   UNL     1      -0.490  11.594  19.446  0.00  0.00    +0.000 OA
BRANCH  12  16
ATOM     13  C   UNL     1      -3.973  10.494  17.458  0.00  0.00    +0.000 A 
ATOM     14  C   UNL     1      -2.768   9.824  17.244  0.00  0.00    +0.000 A 
ATOM     15  C   UNL     1      -1.620  10.213  17.934  0.00  0.00    +0.000 A 
ATOM     16  C   UNL     1      -1.668  11.294  18.819  0.00  0.00    +0.000 A 
ATOM     17  C   UNL     1      -2.880  11.951  19.045  0.00  0.00    +0.000 A 
ATOM     18  C   UNL     1      -4.029  11.552  18.362  0.00  0.00    +0.000 A 
ENDBRANCH  12  16
ENDBRANCH  11  12
ENDBRANCH  10  11
ENDBRANCH   8  10
ENDBRANCH   7   8
ENDBRANCH   6   7
ENDBRANCH   1   6
BRANCH   4  19
ATOM     19  C   UNL     1       3.271   5.884  17.801  0.00  0.00    +0.000 C 
BRANCH  19  20
ATOM     20  C   UNL     1       2.666   4.705  18.580  0.00  0.00    +0.000 A 
ATOM     21  C   UNL     1       3.332   4.126  19.677  0.00  0.00    +0.000 A 
ATOM     22  C   UNL     1       2.808   3.024  20.350  0.00  0.00    +0.000 A 
ATOM     23  C   UNL     1       1.619   2.451  19.913  0.00  0.00    +0.000 A 
ATOM     24  C   UNL     1       0.945   3.000  18.824  0.00  0.00    +0.000 A 
ATOM     25  C   UNL     1       1.456   4.126  18.168  0.00  0.00    +0.000 A 
ENDBRANCH  19  20
BRANCH  19  26
ATOM     26  C   UNL     1       4.640   5.480  17.236  0.00  0.00    +0.000 A 
ATOM     27  C   UNL     1       4.720   4.458  16.276  0.00  0.00    +0.000 A 
ATOM     28  C   UNL     1       5.961   3.954  15.878  0.00  0.00    +0.000 A 
ATOM     29  C   UNL     1       7.135   4.453  16.433  0.00  0.00    +0.000 A 
ATOM     30  C   UNL     1       7.075   5.484  17.362  0.00  0.00    +0.000 A 
ATOM     31  C   UNL     1       5.841   6.000  17.750  0.00  0.00    +0.000 A 
ENDBRANCH  19  26
ENDBRANCH   4  19
TORSDOF 10
ENDMDL
MODEL 7
REMARK VINA RESULT:      -7.8      0.770      1.208
REMARK  Name = 
REMARK  10 active torsions:
REMARK  status: ('A' for Active; 'I' for Inactive)
REMARK    1  A    between atoms: C_4  and  O_5
REMARK    2  A    between atoms: O_5  and  C_6
REMARK    3  A    between atoms: C_6  and  C_7
REMARK    4  A    between atoms: C_7  and  N_8
REMARK    5  A    between atoms: N_8  and  C_9
REMARK    6  A    between atoms: C_9  and  C_10
REMARK    7  A    between atoms: C_10  and  C_11
REMARK    8  A    between atoms: C_14  and  C_15
REMARK    9  A    between atoms: C_15  and  C_16
REMARK   10  A    between atoms: C_15  and  C_22
REMARK                            x       y       z     vdW  Elec       q    Type
REMARK                         _______ _______ _______ _____ _____    ______ ____
ROOT
ATOM      1  C   UNL     1       5.043   5.235  17.289  0.00  0.00    +0.000 C 
ATOM      2  C   UNL     1       5.736   4.174  18.102  0.00  0.00    +0.000 C 
ATOM      3  O   UNL     1       5.134   4.320  19.398  0.00  0.00    +0.000 OA
ATOM      4  C   UNL     1       4.738   5.709  19.469  0.00  0.00    +0.000 C 
ATOM      5  O   UNL     1       4.977   6.327  18.195  0.00  0.00    +0.000 OA
ENDROOT
BRANCH   1   6
ATOM      6  C   UNL     1       5.670   5.665  15.982  0.00  0.00    +0.000 C 
BRANCH   6   7
ATOM      7  C   UNL     1       6.382   6.991  16.187  0.00  0.00    +0.000 C 
BRANCH   7   8
ATOM      8  N   UNL     1       7.704   6.773  16.754  0.00  0.00    +0.000 NA
ATOM      9  H   UNL     1       7.831   5.779  16.950  0.00  0.00    +0.000 HD
BRANCH   8  10
ATOM     10  C   UNL     1       7.840   7.542  17.993  0.00  0.00    +0.000 C 
BRANCH  10  11
ATOM     11  C   UNL     1       8.074   9.017  17.681  0.00  0.00    +0.000 C 
BRANCH  11  12
ATOM     12  O   UNL     1       8.894   9.567  18.711  0.00  0.00    +0.000 OA
BRANCH  12  16
ATOM     13  C   UNL     1      10.219  13.405  17.810  0.00  0.00    +0.000 A 
ATOM     14  C   UNL     1       8.882  13.040  17.657  0.00  0.00    +0.000 A 
ATOM     15  C   UNL     1       8.468  11.747  17.977  0.00  0.00    +0.000 A 
ATOM     16  C   UNL     1       9.400  10.805  18.423  0.00  0.00    +0.000 A 
ATOM     17  C   UNL     1      10.735  11.179  18.593  0.00  0.00    +0.000 A 
ATOM     18  C   UNL     1      11.144  12.476  18.284  0.00  0.00    +0.000 A 
ENDBRANCH  12  16
ENDBRANCH  11  12
ENDBRANCH  10  11
ENDBRANCH   8  10
ENDBRANCH   7   8
ENDBRANCH   6   7
ENDBRANCH   1   6
BRANCH   4  19
ATOM     19  C   UNL     1       3.261   5.864  19.972  0.00  0.00    +0.000 C 
BRANCH  19  20
ATOM     20  C   UNL     1       2.332   4.672  19.691  0.00  0.00    +0.000 A 
ATOM     21  C   UNL     1       1.915   4.355  18.384  0.00  0.00    +0.000 A 
ATOM     22  C   UNL     1       1.031   3.306  18.135  0.00  0.00    +0.000 A 
ATOM     23  C   UNL     1       0.514   2.573  19.197  0.00  0.00    +0.000 A 
ATOM     24  C   UNL     1       0.905   2.874  20.501  0.00  0.00    +0.000 A 
ATOM     25  C   UNL     1       1.816   3.907  20.748  0.00  0.00    +0.000 A 
ENDBRANCH  19  20
BRANCH  19  26
ATOM     26  C   UNL     1       2.578   7.165  19.527  0.00  0.00    +0.000 A 
ATOM     27  C   UNL     1       1.758   7.863  20.429  0.00  0.00    +0.000 A 
ATOM     28  C   UNL     1       0.991   8.948  19.997  0.00  0.00    +0.000 A 
ATOM     29  C   UNL     1       1.022   9.346  18.665  0.00  0.00    +0.000 A 
ATOM     30  C   UNL     1       1.850   8.686  17.766  0.00  0.00    +0.000 A 
ATOM     31  C   UNL     1       2.630   7.614  18.196  0.00  0.00    +0.000 A 
ENDBRANCH  19  26
ENDBRANCH   4  19
TORSDOF 10
ENDMDL
MODEL 8
REMARK VINA RESULT:      -7.8      4.226      7.999
REMARK  Name = 
REMARK  10 active torsions:
REMARK  status: ('A' for Active; 'I' for Inactive)
REMARK    1  A    between atoms: C_4  and  O_5
REMARK    2  A    between atoms: O_5  and  C_6
REMARK    3  A    between atoms: C_6  and  C_7
REMARK    4  A    between atoms: C_7  and  N_8
REMARK    5  A    between atoms: N_8  and  C_9
REMARK    6  A    between atoms: C_9  and  C_10
REMARK    7  A    between atoms: C_10  and  C_11
REMARK    8  A    between atoms: C_14  and  C_15
REMARK    9  A    between atoms: C_15  and  C_16
REMARK   10  A    between atoms: C_15  and  C_22
REMARK                            x       y       z     vdW  Elec       q    Type
REMARK                         _______ _______ _______ _____ _____    ______ ____
ROOT
ATOM      1  C   UNL     1       1.127   8.817  18.510  0.00  0.00    +0.000 C 
ATOM      2  C   UNL     1       2.107   9.585  17.665  0.00  0.00    +0.000 C 
ATOM      3  O   UNL     1       3.098   8.596  17.346  0.00  0.00    +0.000 OA
ATOM      4  C   UNL     1       3.058   7.661  18.448  0.00  0.00    +0.000 C 
ATOM      5  O   UNL     1       1.975   8.017  19.321  0.00  0.00    +0.000 OA
ENDROOT
BRANCH   1   6
ATOM      6  C   UNL     1       0.150   9.593  19.365  0.00  0.00    +0.000 C 
BRANCH   6   7
ATOM      7  C   UNL     1       0.104   8.972  20.752  0.00  0.00    +0.000 C 
BRANCH   7   8
ATOM      8  N   UNL     1       1.104   9.585  21.612  0.00  0.00    +0.000 NA
ATOM      9  H   UNL     1       2.011   9.147  21.448  0.00  0.00    +0.000 HD
BRANCH   8  10
ATOM     10  C   UNL     1       0.717   9.410  23.015  0.00  0.00    +0.000 C 
BRANCH  10  11
ATOM     11  C   UNL     1      -0.683   9.965  23.254  0.00  0.00    +0.000 C 
BRANCH  11  12
ATOM     12  O   UNL     1      -0.624  11.387  23.152  0.00  0.00    +0.000 OA
BRANCH  12  16
ATOM     13  C   UNL     1      -3.955  13.112  21.357  0.00  0.00    +0.000 A 
ATOM     14  C   UNL     1      -3.960  12.743  22.702  0.00  0.00    +0.000 A 
ATOM     15  C   UNL     1      -2.823  12.175  23.276  0.00  0.00    +0.000 A 
ATOM     16  C   UNL     1      -1.686  11.947  22.496  0.00  0.00    +0.000 A 
ATOM     17  C   UNL     1      -1.677  12.334  21.154  0.00  0.00    +0.000 A 
ATOM     18  C   UNL     1      -2.812  12.913  20.585  0.00  0.00    +0.000 A 
ENDBRANCH  12  16
ENDBRANCH  11  12
ENDBRANCH  10  11
ENDBRANCH   8  10
ENDBRANCH   7   8
ENDBRANCH   6   7
ENDBRANCH   1   6
BRANCH   4  19
ATOM     19  C   UNL     1       2.992   6.176  17.944  0.00  0.00    +0.000 C 
BRANCH  19  20
ATOM     20  C   UNL     1       2.346   5.172  18.912  0.00  0.00    +0.000 A 
ATOM     21  C   UNL     1       2.670   5.156  20.282  0.00  0.00    +0.000 A 
ATOM     22  C   UNL     1       2.123   4.211  21.149  0.00  0.00    +0.000 A 
ATOM     23  C   UNL     1       1.268   3.234  20.654  0.00  0.00    +0.000 A 
ATOM     24  C   UNL     1       0.940   3.224  19.300  0.00  0.00    +0.000 A 
ATOM     25  C   UNL     1       1.464   4.191  18.435  0.00  0.00    +0.000 A 
ENDBRANCH  19  20
BRANCH  19  26
ATOM     26  C   UNL     1       4.335   5.622  17.446  0.00  0.00    +0.000 A 
ATOM     27  C   UNL     1       4.353   4.679  16.405  0.00  0.00    +0.000 A 
ATOM     28  C   UNL     1       5.541   4.032  16.055  0.00  0.00    +0.000 A 
ATOM     29  C   UNL     1       6.720   4.307  16.738  0.00  0.00    +0.000 A 
ATOM     30  C   UNL     1       6.726   5.259  17.750  0.00  0.00    +0.000 A 
ATOM     31  C   UNL     1       5.548   5.918  18.093  0.00  0.00    +0.000 A 
ENDBRANCH  19  26
ENDBRANCH   4  19
TORSDOF 10
ENDMDL
MODEL 9
REMARK VINA RESULT:      -7.8      0.863      3.613
REMARK  Name = 
REMARK  10 active torsions:
REMARK  status: ('A' for Active; 'I' for Inactive)
REMARK    1  A    between atoms: C_4  and  O_5
REMARK    2  A    between atoms: O_5  and  C_6
REMARK    3  A    between atoms: C_6  and  C_7
REMARK    4  A    between atoms: C_7  and  N_8
REMARK    5  A    between atoms: N_8  and  C_9
REMARK    6  A    between atoms: C_9  and  C_10
REMARK    7  A    between atoms: C_10  and  C_11
REMARK    8  A    between atoms: C_14  and  C_15
REMARK    9  A    between atoms: C_15  and  C_16
REMARK   10  A    between atoms: C_15  and  C_22
REMARK                            x       y       z     vdW  Elec       q    Type
REMARK                         _______ _______ _______ _____ _____    ______ ____
ROOT
ATOM      1  C   UNL     1       5.241   4.868  16.846  0.00  0.00    +0.000 C 
ATOM      2  C   UNL     1       5.788   4.491  18.197  0.00  0.00    +0.000 C 
ATOM      3  O   UNL     1       4.806   5.022  19.099  0.00  0.00    +0.000 OA
ATOM      4  C   UNL     1       4.224   6.144  18.398  0.00  0.00    +0.000 C 
ATOM      5  O   UNL     1       4.755   6.185  17.064  0.00  0.00    +0.000 OA
ENDROOT
BRANCH   1   6
ATOM      6  C   UNL     1       6.173   4.836  15.656  0.00  0.00    +0.000 C 
BRANCH   6   7
ATOM      7  C   UNL     1       7.552   5.298  16.094  0.00  0.00    +0.000 C 
BRANCH   7   8
ATOM      8  N   UNL     1       7.601   6.751  16.162  0.00  0.00    +0.000 NA
ATOM      9  H   UNL     1       8.324   7.098  15.531  0.00  0.00    +0.000 HD
BRANCH   8  10
ATOM     10  C   UNL     1       7.900   7.167  17.535  0.00  0.00    +0.000 C 
BRANCH  10  11
ATOM     11  C   UNL     1       7.781   8.682  17.669  0.00  0.00    +0.000 C 
BRANCH  11  12
ATOM     12  O   UNL     1       8.750   9.125  18.617  0.00  0.00    +0.000 OA
BRANCH  12  16
ATOM     13  C   UNL     1       9.911  13.114  18.417  0.00  0.00    +0.000 A 
ATOM     14  C   UNL     1      10.601  12.192  19.204  0.00  0.00    +0.000 A 
ATOM     15  C   UNL     1      10.190  10.859  19.242  0.00  0.00    +0.000 A 
ATOM     16  C   UNL     1       9.069  10.452  18.515  0.00  0.00    +0.000 A 
ATOM     17  C   UNL     1       8.391  11.373  17.713  0.00  0.00    +0.000 A 
ATOM     18  C   UNL     1       8.811  12.703  17.667  0.00  0.00    +0.000 A 
ENDBRANCH  12  16
ENDBRANCH  11  12
ENDBRANCH  10  11
ENDBRANCH   8  10
ENDBRANCH   7   8
ENDBRANCH   6   7
ENDBRANCH   1   6
BRANCH   4  19
ATOM     19  C   UNL     1       2.656   6.106  18.447  0.00  0.00    +0.000 C 
BRANCH  19  20
ATOM     20  C   UNL     1       1.977   7.366  19.007  0.00  0.00    +0.000 A 
ATOM     21  C   UNL     1       1.648   8.456  18.179  0.00  0.00    +0.000 A 
ATOM     22  C   UNL     1       1.080   9.620  18.696  0.00  0.00    +0.000 A 
ATOM     23  C   UNL     1       0.863   9.732  20.065  0.00  0.00    +0.000 A 
ATOM     24  C   UNL     1       1.189   8.670  20.906  0.00  0.00    +0.000 A 
ATOM     25  C   UNL     1       1.731   7.491  20.383  0.00  0.00    +0.000 A 
ENDBRANCH  19  20
BRANCH  19  26
ATOM     26  C   UNL     1       2.078   4.860  19.134  0.00  0.00    +0.000 A 
ATOM     27  C   UNL     1       1.404   3.895  18.367  0.00  0.00    +0.000 A 
ATOM     28  C   UNL     1       0.721   2.847  18.989  0.00  0.00    +0.000 A 
ATOM     29  C   UNL     1       0.693   2.749  20.376  0.00  0.00    +0.000 A 
ATOM     30  C   UNL     1       1.379   3.678  21.148  0.00  0.00    +0.000 A 
ATOM     31  C   UNL     1       2.075   4.716  20.532  0.00  0.00    +0.000 A 
ENDBRANCH  19  26
ENDBRANCH   4  19
TORSDOF 10
ENDMDL
