MODEL 1
REMARK VINA RESULT:      -7.9      0.000      0.000
REMARK  Name = 
REMARK  14 active torsions:
REMARK  status: ('A' for Active; 'I' for Inactive)
REMARK    1  A    between atoms: C_1  and  C_2
REMARK    2  A    between atoms: C_2  and  O_3
REMARK    3  A    between atoms: O_3  and  C_4
REMARK    4  A    between atoms: C_4  and  C_6
REMARK    5  A    between atoms: C_7  and  C_8
REMARK    6  A    between atoms: C_8  and  C_9
REMARK    7  A    between atoms: C_8  and  N_24
REMARK    8  A    between atoms: C_9  and  C_10
REMARK    9  A    between atoms: C_13  and  C_14
REMARK   10  A    between atoms: C_25  and  O_27
REMARK   11  A    between atoms: O_27  and  C_28
REMARK   12  A    between atoms: C_28  and  C_29
REMARK   13  A    between atoms: C_28  and  C_30
REMARK   14  A    between atoms: C_28  and  C_31
REMARK                            x       y       z     vdW  Elec       q    Type
REMARK                         _______ _______ _______ _____ _____    ______ ____
ROOT
ATOM      1  C   UNL     1       3.885   4.879  17.156  0.00  0.00    +0.000 C 
ENDROOT
BRANCH   1   2
ATOM      2  N   UNL     1       3.533   3.785  18.037  0.00  0.00    +0.000 N 
ATOM      3  C   UNL     1       2.212   3.436  18.171  0.00  0.00    +0.000 C 
ATOM      4  O   UNL     1       1.332   3.818  17.412  0.00  0.00    +0.000 OA
ATOM      5  H   UNL     1       4.160   3.469  18.763  0.00  0.00    +0.000 HD
BRANCH   3   6
ATOM      6  O   UNL     1       2.014   2.667  19.269  0.00  0.00    +0.000 OA
BRANCH   6   7
ATOM      7  C   UNL     1       1.827   3.325  20.557  0.00  0.00    +0.000 C 
ATOM      8  C   UNL     1       3.095   4.074  20.984  0.00  0.00    +0.000 C 
ATOM      9  C   UNL     1       0.702   4.354  20.350  0.00  0.00    +0.000 C 
ATOM     10  C   UNL     1       1.350   2.340  21.638  0.00  0.00    +0.000 C 
ENDBRANCH   6   7
ENDBRANCH   3   6
ENDBRANCH   1   2
BRANCH   1  12
ATOM     11  C   UNL     1       5.512   5.104  15.206  0.00  0.00    +0.000 C 
ATOM     12  C   UNL     1       4.764   4.368  16.047  0.00  0.00    +0.000 C 
BRANCH  11  13
ATOM     13  C   UNL     1       6.071   4.492  13.984  0.00  0.00    +0.000 C 
ATOM     14  O   UNL     1       7.224   4.607  13.606  0.00  0.00    +0.000 OA
BRANCH  13  15
ATOM     15  O   UNL     1       5.076   3.805  13.367  0.00  0.00    +0.000 OA
BRANCH  15  17
ATOM     16  C   UNL     1       4.233   3.085  11.248  0.00  0.00    +0.000 C 
ATOM     17  C   UNL     1       5.458   3.173  12.138  0.00  0.00    +0.000 C 
ENDBRANCH  15  17
ENDBRANCH  13  15
ENDBRANCH  11  13
ENDBRANCH   1  12
BRANCH   1  18
ATOM     18  C   UNL     1       4.382   6.113  17.958  0.00  0.00    +0.000 C 
BRANCH  18  19
ATOM     19  C   UNL     1       3.323   7.131  18.341  0.00  0.00    +0.000 A 
ATOM     20  C   UNL     1       2.896   8.111  17.442  0.00  0.00    +0.000 A 
ATOM     21  C   UNL     1       1.885   9.000  17.779  0.00  0.00    +0.000 A 
ATOM     22  C   UNL     1       1.218   8.934  19.013  0.00  0.00    +0.000 A 
ATOM     23  C   UNL     1       1.667   7.972  19.928  0.00  0.00    +0.000 A 
ATOM     24  C   UNL     1       2.706   7.081  19.599  0.00  0.00    +0.000 A 
BRANCH  22  25
ATOM     25  C   UNL     1       0.105   9.876  19.277  0.00  0.00    +0.000 A 
ATOM     26  C   UNL     1      -0.847  10.143  18.271  0.00  0.00    +0.000 A 
ATOM     27  C   UNL     1      -1.816  11.133  18.434  0.00  0.00    +0.000 A 
ATOM     28 CL   UNL     1      -2.885  11.492  17.141  0.00  0.00    +0.000 Cl
ATOM     29  C   UNL     1      -1.894  11.845  19.623  0.00  0.00    +0.000 A 
ATOM     30  C   UNL     1      -1.003  11.545  20.649  0.00  0.00    +0.000 A 
ATOM     31 CL   UNL     1      -1.100  12.422  22.131  0.00  0.00    +0.000 Cl
ATOM     32  C   UNL     1      -0.014  10.573  20.488  0.00  0.00    +0.000 A 
ENDBRANCH  22  25
ENDBRANCH  18  19
ENDBRANCH   1  18
TORSDOF 10
ENDMDL
MODEL 2
REMARK VINA RESULT:      -7.8      5.484      9.693
REMARK  Name = 
REMARK  14 active torsions:
REMARK  status: ('A' for Active; 'I' for Inactive)
REMARK    1  A    between atoms: C_1  and  C_2
REMARK    2  A    between atoms: C_2  and  O_3
REMARK    3  A    between atoms: O_3  and  C_4
REMARK    4  A    between atoms: C_4  and  C_6
REMARK    5  A    between atoms: C_7  and  C_8
REMARK    6  A    between atoms: C_8  and  C_9
REMARK    7  A    between atoms: C_8  and  N_24
REMARK    8  A    between atoms: C_9  and  C_10
REMARK    9  A    between atoms: C_13  and  C_14
REMARK   10  A    between atoms: C_25  and  O_27
REMARK   11  A    between atoms: O_27  and  C_28
REMARK   12  A    between atoms: C_28  and  C_29
REMARK   13  A    between atoms: C_28  and  C_30
REMARK   14  A    between atoms: C_28  and  C_31
REMARK                            x       y       z     vdW  Elec       q    Type
REMARK                         _______ _______ _______ _____ _____    ______ ____
ROOT
ATOM      1  C   UNL     1      -0.260  11.636  19.041  0.00  0.00    +0.000 C 
ENDROOT
BRANCH   1   2
ATOM      2  N   UNL     1       0.032  12.992  19.459  0.00  0.00    +0.000 N 
ATOM      3  C   UNL     1       1.178  13.596  19.003  0.00  0.00    +0.000 C 
ATOM      4  O   UNL     1       1.846  13.165  18.073  0.00  0.00    +0.000 OA
ATOM      5  H   UNL     1      -0.397  13.397  20.278  0.00  0.00    +0.000 HD
BRANCH   3   6
ATOM      6  O   UNL     1       1.488  14.687  19.746  0.00  0.00    +0.000 OA
BRANCH   6   7
ATOM      7  C   UNL     1       1.154  16.005  19.219  0.00  0.00    +0.000 C 
ATOM      8  C   UNL     1      -0.225  16.000  18.549  0.00  0.00    +0.000 C 
ATOM      9  C   UNL     1       1.099  16.948  20.434  0.00  0.00    +0.000 C 
ATOM     10  C   UNL     1       2.248  16.538  18.278  0.00  0.00    +0.000 C 
ENDBRANCH   6   7
ENDBRANCH   3   6
ENDBRANCH   1   2
BRANCH   1  12
ATOM     11  C   UNL     1      -2.174  11.189  17.416  0.00  0.00    +0.000 C 
ATOM     12  C   UNL     1      -1.704  11.539  18.627  0.00  0.00    +0.000 C 
BRANCH  11  13
ATOM     13  C   UNL     1      -3.588  11.438  17.072  0.00  0.00    +0.000 C 
ATOM     14  O   UNL     1      -4.480  11.644  17.876  0.00  0.00    +0.000 OA
BRANCH  13  15
ATOM     15  O   UNL     1      -3.706  11.379  15.721  0.00  0.00    +0.000 OA
BRANCH  15  17
ATOM     16  C   UNL     1      -3.669  10.011  13.759  0.00  0.00    +0.000 C 
ATOM     17  C   UNL     1      -3.028  10.274  15.109  0.00  0.00    +0.000 C 
ENDBRANCH  15  17
ENDBRANCH  13  15
ENDBRANCH  11  13
ENDBRANCH   1  12
BRANCH   1  18
ATOM     18  C   UNL     1       0.264  10.602  20.075  0.00  0.00    +0.000 C 
BRANCH  18  19
ATOM     19  C   UNL     1       1.113   9.473  19.519  0.00  0.00    +0.000 A 
ATOM     20  C   UNL     1       1.468   8.374  20.303  0.00  0.00    +0.000 A 
ATOM     21  C   UNL     1       2.194   7.318  19.770  0.00  0.00    +0.000 A 
ATOM     22  C   UNL     1       2.569   7.282  18.417  0.00  0.00    +0.000 A 
ATOM     23  C   UNL     1       2.240   8.399  17.636  0.00  0.00    +0.000 A 
ATOM     24  C   UNL     1       1.522   9.482  18.178  0.00  0.00    +0.000 A 
BRANCH  22  25
ATOM     25  C   UNL     1       3.286   6.092  17.903  0.00  0.00    +0.000 A 
ATOM     26  C   UNL     1       4.496   6.249  17.194  0.00  0.00    +0.000 A 
ATOM     27  C   UNL     1       5.117   5.166  16.571  0.00  0.00    +0.000 A 
ATOM     28 CL   UNL     1       6.530   5.426  15.634  0.00  0.00    +0.000 Cl
ATOM     29  C   UNL     1       4.575   3.893  16.681  0.00  0.00    +0.000 A 
ATOM     30  C   UNL     1       3.418   3.713  17.432  0.00  0.00    +0.000 A 
ATOM     31 CL   UNL     1       2.745   2.132  17.578  0.00  0.00    +0.000 Cl
ATOM     32  C   UNL     1       2.776   4.793  18.041  0.00  0.00    +0.000 A 
ENDBRANCH  22  25
ENDBRANCH  18  19
ENDBRANCH   1  18
TORSDOF 10
ENDMDL
MODEL 3
REMARK VINA RESULT:      -7.6      1.903      5.154
REMARK  Name = 
REMARK  14 active torsions:
REMARK  status: ('A' for Active; 'I' for Inactive)
REMARK    1  A    between atoms: C_1  and  C_2
REMARK    2  A    between atoms: C_2  and  O_3
REMARK    3  A    between atoms: O_3  and  C_4
REMARK    4  A    between atoms: C_4  and  C_6
REMARK    5  A    between atoms: C_7  and  C_8
REMARK    6  A    between atoms: C_8  and  C_9
REMARK    7  A    between atoms: C_8  and  N_24
REMARK    8  A    between atoms: C_9  and  C_10
REMARK    9  A    between atoms: C_13  and  C_14
REMARK   10  A    between atoms: C_25  and  O_27
REMARK   11  A    between atoms: O_27  and  C_28
REMARK   12  A    between atoms: C_28  and  C_29
REMARK   13  A    between atoms: C_28  and  C_30
REMARK   14  A    between atoms: C_28  and  C_31
REMARK                            x       y       z     vdW  Elec       q    Type
REMARK                         _______ _______ _______ _____ _____    ______ ____
ROOT
ATOM      1  C   UNL     1       4.876   5.636  18.494  0.00  0.00    +0.000 C 
ENDROOT
BRANCH   1   2
ATOM      2  N   UNL     1       5.965   5.279  17.609  0.00  0.00    +0.000 N 
ATOM      3  C   UNL     1       6.622   6.274  16.927  0.00  0.00    +0.000 C 
ATOM      4  O   UNL     1       6.519   7.462  17.200  0.00  0.00    +0.000 OA
ATOM      5  H   UNL     1       6.069   4.341  17.251  0.00  0.00    +0.000 HD
BRANCH   3   6
ATOM      6  O   UNL     1       7.346   5.770  15.898  0.00  0.00    +0.000 OA
BRANCH   6   7
ATOM      7  C   UNL     1       6.648   5.033  14.851  0.00  0.00    +0.000 C 
ATOM      8  C   UNL     1       6.272   3.624  15.323  0.00  0.00    +0.000 C 
ATOM      9  C   UNL     1       5.352   5.813  14.572  0.00  0.00    +0.000 C 
ATOM     10  C   UNL     1       7.453   5.004  13.540  0.00  0.00    +0.000 C 
ENDBRANCH   6   7
ENDBRANCH   3   6
ENDBRANCH   1   2
BRANCH   1  12
ATOM     11  C   UNL     1       4.898   3.246  19.384  0.00  0.00    +0.000 C 
ATOM     12  C   UNL     1       4.710   4.569  19.542  0.00  0.00    +0.000 C 
BRANCH  11  13
ATOM     13  C   UNL     1       4.401   2.301  20.404  0.00  0.00    +0.000 C 
ATOM     14  O   UNL     1       5.102   1.657  21.165  0.00  0.00    +0.000 OA
BRANCH  13  15
ATOM     15  O   UNL     1       3.046   2.274  20.324  0.00  0.00    +0.000 OA
BRANCH  15  17
ATOM     16  C   UNL     1       1.122   3.583  20.875  0.00  0.00    +0.000 C 
ATOM     17  C   UNL     1       2.370   2.912  21.415  0.00  0.00    +0.000 C 
ENDBRANCH  15  17
ENDBRANCH  13  15
ENDBRANCH  11  13
ENDBRANCH   1  12
BRANCH   1  18
ATOM     18  C   UNL     1       3.613   6.060  17.693  0.00  0.00    +0.000 C 
BRANCH  18  19
ATOM     19  C   UNL     1       2.831   7.235  18.252  0.00  0.00    +0.000 A 
ATOM     20  C   UNL     1       2.566   8.367  17.480  0.00  0.00    +0.000 A 
ATOM     21  C   UNL     1       1.800   9.411  17.979  0.00  0.00    +0.000 A 
ATOM     22  C   UNL     1       1.222   9.364  19.258  0.00  0.00    +0.000 A 
ATOM     23  C   UNL     1       1.514   8.242  20.046  0.00  0.00    +0.000 A 
ATOM     24  C   UNL     1       2.308   7.190  19.553  0.00  0.00    +0.000 A 
BRANCH  22  25
ATOM     25  C   UNL     1       0.363  10.488  19.698  0.00  0.00    +0.000 A 
ATOM     26  C   UNL     1      -0.965  10.585  19.232  0.00  0.00    +0.000 A 
ATOM     27  C   UNL     1      -1.750  11.705  19.506  0.00  0.00    +0.000 A 
ATOM     28 CL   UNL     1      -3.322  11.823  18.830  0.00  0.00    +0.000 Cl
ATOM     29  C   UNL     1      -1.249  12.732  20.294  0.00  0.00    +0.000 A 
ATOM     30  C   UNL     1       0.036  12.619  20.815  0.00  0.00    +0.000 A 
ATOM     31 CL   UNL     1       0.660  13.889  21.800  0.00  0.00    +0.000 Cl
ATOM     32  C   UNL     1       0.838  11.513  20.528  0.00  0.00    +0.000 A 
ENDBRANCH  22  25
ENDBRANCH  18  19
ENDBRANCH   1  18
TORSDOF 10
ENDMDL
MODEL 4
REMARK VINA RESULT:      -7.5      1.929      5.361
REMARK  Name = 
REMARK  14 active torsions:
REMARK  status: ('A' for Active; 'I' for Inactive)
REMARK    1  A    between atoms: C_1  and  C_2
REMARK    2  A    between atoms: C_2  and  O_3
REMARK    3  A    between atoms: O_3  and  C_4
REMARK    4  A    between atoms: C_4  and  C_6
REMARK    5  A    between atoms: C_7  and  C_8
REMARK    6  A    between atoms: C_8  and  C_9
REMARK    7  A    between atoms: C_8  and  N_24
REMARK    8  A    between atoms: C_9  and  C_10
REMARK    9  A    between atoms: C_13  and  C_14
REMARK   10  A    between atoms: C_25  and  O_27
REMARK   11  A    between atoms: O_27  and  C_28
REMARK   12  A    between atoms: C_28  and  C_29
REMARK   13  A    between atoms: C_28  and  C_30
REMARK   14  A    between atoms: C_28  and  C_31
REMARK                            x       y       z     vdW  Elec       q    Type
REMARK                         _______ _______ _______ _____ _____    ______ ____
ROOT
ATOM      1  C   UNL     1       4.858   5.669  18.549  0.00  0.00    +0.000 C 
ENDROOT
BRANCH   1   2
ATOM      2  N   UNL     1       5.973   5.332  17.688  0.00  0.00    +0.000 N 
ATOM      3  C   UNL     1       6.551   6.321  16.930  0.00  0.00    +0.000 C 
ATOM      4  O   UNL     1       6.355   7.515  17.114  0.00  0.00    +0.000 OA
ATOM      5  H   UNL     1       6.151   4.381  17.401  0.00  0.00    +0.000 HD
BRANCH   3   6
ATOM      6  O   UNL     1       7.313   5.799  15.939  0.00  0.00    +0.000 OA
BRANCH   6   7
ATOM      7  C   UNL     1       6.655   5.049  14.875  0.00  0.00    +0.000 C 
ATOM      8  C   UNL     1       6.299   3.632  15.338  0.00  0.00    +0.000 C 
ATOM      9  C   UNL     1       5.349   5.801  14.569  0.00  0.00    +0.000 C 
ATOM     10  C   UNL     1       7.490   5.039  13.583  0.00  0.00    +0.000 C 
ENDBRANCH   6   7
ENDBRANCH   3   6
ENDBRANCH   1   2
BRANCH   1  12
ATOM     11  C   UNL     1       4.747   3.266  19.397  0.00  0.00    +0.000 C 
ATOM     12  C   UNL     1       4.687   4.596  19.591  0.00  0.00    +0.000 C 
BRANCH  11  13
ATOM     13  C   UNL     1       4.254   2.344  20.440  0.00  0.00    +0.000 C 
ATOM     14  O   UNL     1       4.952   1.781  21.265  0.00  0.00    +0.000 OA
BRANCH  13  15
ATOM     15  O   UNL     1       2.909   2.233  20.298  0.00  0.00    +0.000 OA
BRANCH  15  17
ATOM     16  C   UNL     1       1.255   3.892  20.779  0.00  0.00    +0.000 C 
ATOM     17  C   UNL     1       2.146   2.813  21.364  0.00  0.00    +0.000 C 
ENDBRANCH  15  17
ENDBRANCH  13  15
ENDBRANCH  11  13
ENDBRANCH   1  12
BRANCH   1  18
ATOM     18  C   UNL     1       3.608   6.074  17.720  0.00  0.00    +0.000 C 
BRANCH  18  19
ATOM     19  C   UNL     1       2.850   7.295  18.210  0.00  0.00    +0.000 A 
ATOM     20  C   UNL     1       2.665   8.413  17.394  0.00  0.00    +0.000 A 
ATOM     21  C   UNL     1       1.920   9.500  17.827  0.00  0.00    +0.000 A 
ATOM     22  C   UNL     1       1.285   9.515  19.080  0.00  0.00    +0.000 A 
ATOM     23  C   UNL     1       1.496   8.407  19.912  0.00  0.00    +0.000 A 
ATOM     24  C   UNL     1       2.268   7.310  19.486  0.00  0.00    +0.000 A 
BRANCH  22  25
ATOM     25  C   UNL     1       0.452  10.684  19.448  0.00  0.00    +0.000 A 
ATOM     26  C   UNL     1       0.998  11.718  20.238  0.00  0.00    +0.000 A 
ATOM     27  C   UNL     1       0.202  12.755  20.725  0.00  0.00    +0.000 A 
ATOM     28 CL   UNL     1       0.890  13.931  21.767  0.00  0.00    +0.000 Cl
ATOM     29  C   UNL     1      -1.145  12.815  20.396  0.00  0.00    +0.000 A 
ATOM     30  C   UNL     1      -1.682  11.838  19.563  0.00  0.00    +0.000 A 
ATOM     31 CL   UNL     1      -3.353  11.911  19.146  0.00  0.00    +0.000 Cl
ATOM     32  C   UNL     1      -0.899  10.783  19.088  0.00  0.00    +0.000 A 
ENDBRANCH  22  25
ENDBRANCH  18  19
ENDBRANCH   1  18
TORSDOF 10
ENDMDL
MODEL 5
REMARK VINA RESULT:      -7.5      5.550      9.539
REMARK  Name = 
REMARK  14 active torsions:
REMARK  status: ('A' for Active; 'I' for Inactive)
REMARK    1  A    between atoms: C_1  and  C_2
REMARK    2  A    between atoms: C_2  and  O_3
REMARK    3  A    between atoms: O_3  and  C_4
REMARK    4  A    between atoms: C_4  and  C_6
REMARK    5  A    between atoms: C_7  and  C_8
REMARK    6  A    between atoms: C_8  and  C_9
REMARK    7  A    between atoms: C_8  and  N_24
REMARK    8  A    between atoms: C_9  and  C_10
REMARK    9  A    between atoms: C_13  and  C_14
REMARK   10  A    between atoms: C_25  and  O_27
REMARK   11  A    between atoms: O_27  and  C_28
REMARK   12  A    between atoms: C_28  and  C_29
REMARK   13  A    between atoms: C_28  and  C_30
REMARK   14  A    between atoms: C_28  and  C_31
REMARK                            x       y       z     vdW  Elec       q    Type
REMARK                         _______ _______ _______ _____ _____    ______ ____
ROOT
ATOM      1  C   UNL     1      -0.309  11.496  19.720  0.00  0.00    +0.000 C 
ENDROOT
BRANCH   1   2
ATOM      2  N   UNL     1      -0.087  12.805  20.297  0.00  0.00    +0.000 N 
ATOM      3  C   UNL     1       0.163  13.867  19.463  0.00  0.00    +0.000 C 
ATOM      4  O   UNL     1      -0.034  13.839  18.256  0.00  0.00    +0.000 OA
ATOM      5  H   UNL     1       0.181  12.918  21.264  0.00  0.00    +0.000 HD
BRANCH   3   6
ATOM      6  O   UNL     1       0.695  14.912  20.142  0.00  0.00    +0.000 OA
BRANCH   6   7
ATOM      7  C   UNL     1       2.124  15.173  20.011  0.00  0.00    +0.000 C 
ATOM      8  C   UNL     1       2.386  16.344  19.057  0.00  0.00    +0.000 C 
ATOM      9  C   UNL     1       2.614  15.572  21.414  0.00  0.00    +0.000 C 
ATOM     10  C   UNL     1       2.900  13.910  19.599  0.00  0.00    +0.000 C 
ENDBRANCH   6   7
ENDBRANCH   3   6
ENDBRANCH   1   2
BRANCH   1  12
ATOM     11  C   UNL     1      -2.224  10.836  18.172  0.00  0.00    +0.000 C 
ATOM     12  C   UNL     1      -1.752  11.364  19.315  0.00  0.00    +0.000 C 
BRANCH  11  13
ATOM     13  C   UNL     1      -3.631  11.057  17.780  0.00  0.00    +0.000 C 
ATOM     14  O   UNL     1      -4.447  11.693  18.425  0.00  0.00    +0.000 OA
BRANCH  13  15
ATOM     15  O   UNL     1      -3.842  10.419  16.601  0.00  0.00    +0.000 OA
BRANCH  15  17
ATOM     16  C   UNL     1      -2.891   9.963  14.455  0.00  0.00    +0.000 C 
ATOM     17  C   UNL     1      -3.229  11.042  15.465  0.00  0.00    +0.000 C 
ENDBRANCH  15  17
ENDBRANCH  13  15
ENDBRANCH  11  13
ENDBRANCH   1  12
BRANCH   1  18
ATOM     18  C   UNL     1       0.293  10.376  20.613  0.00  0.00    +0.000 C 
BRANCH  18  19
ATOM     19  C   UNL     1       1.101   9.311  19.894  0.00  0.00    +0.000 A 
ATOM     20  C   UNL     1       1.500   8.139  20.540  0.00  0.00    +0.000 A 
ATOM     21  C   UNL     1       2.187   7.143  19.858  0.00  0.00    +0.000 A 
ATOM     22  C   UNL     1       2.476   7.245  18.487  0.00  0.00    +0.000 A 
ATOM     23  C   UNL     1       2.104   8.435  17.846  0.00  0.00    +0.000 A 
ATOM     24  C   UNL     1       1.426   9.455  18.537  0.00  0.00    +0.000 A 
BRANCH  22  25
ATOM     25  C   UNL     1       3.155   6.114  17.813  0.00  0.00    +0.000 A 
ATOM     26  C   UNL     1       2.607   4.816  17.886  0.00  0.00    +0.000 A 
ATOM     27  C   UNL     1       3.296   3.709  17.392  0.00  0.00    +0.000 A 
ATOM     28 CL   UNL     1       2.636   2.139  17.598  0.00  0.00    +0.000 Cl
ATOM     29  C   UNL     1       4.525   3.873  16.766  0.00  0.00    +0.000 A 
ATOM     30  C   UNL     1       5.046   5.156  16.628  0.00  0.00    +0.000 A 
ATOM     31 CL   UNL     1       6.568   5.367  15.845  0.00  0.00    +0.000 Cl
ATOM     32  C   UNL     1       4.375   6.269  17.139  0.00  0.00    +0.000 A 
ENDBRANCH  22  25
ENDBRANCH  18  19
ENDBRANCH   1  18
TORSDOF 10
ENDMDL
MODEL 6
REMARK VINA RESULT:      -7.5      5.513      9.239
REMARK  Name = 
REMARK  14 active torsions:
REMARK  status: ('A' for Active; 'I' for Inactive)
REMARK    1  A    between atoms: C_1  and  C_2
REMARK    2  A    between atoms: C_2  and  O_3
REMARK    3  A    between atoms: O_3  and  C_4
REMARK    4  A    between atoms: C_4  and  C_6
REMARK    5  A    between atoms: C_7  and  C_8
REMARK    6  A    between atoms: C_8  and  C_9
REMARK    7  A    between atoms: C_8  and  N_24
REMARK    8  A    between atoms: C_9  and  C_10
REMARK    9  A    between atoms: C_13  and  C_14
REMARK   10  A    between atoms: C_25  and  O_27
REMARK   11  A    between atoms: O_27  and  C_28
REMARK   12  A    between atoms: C_28  and  C_29
REMARK   13  A    between atoms: C_28  and  C_30
REMARK   14  A    between atoms: C_28  and  C_31
REMARK                            x       y       z     vdW  Elec       q    Type
REMARK                         _______ _______ _______ _____ _____    ______ ____
ROOT
ATOM      1  C   UNL     1       0.107  11.775  19.780  0.00  0.00    +0.000 C 
ENDROOT
BRANCH   1   2
ATOM      2  N   UNL     1      -0.355  11.872  18.412  0.00  0.00    +0.000 N 
ATOM      3  C   UNL     1      -1.695  12.055  18.173  0.00  0.00    +0.000 C 
ATOM      4  O   UNL     1      -2.495  12.391  19.036  0.00  0.00    +0.000 OA
ATOM      5  H   UNL     1       0.197  11.525  17.641  0.00  0.00    +0.000 HD
BRANCH   3   6
ATOM      6  O   UNL     1      -2.010  11.769  16.886  0.00  0.00    +0.000 OA
BRANCH   6   7
ATOM      7  C   UNL     1      -3.048  10.777  16.628  0.00  0.00    +0.000 C 
ATOM      8  C   UNL     1      -2.867  10.137  15.247  0.00  0.00    +0.000 C 
ATOM      9  C   UNL     1      -2.870   9.685  17.696  0.00  0.00    +0.000 C 
ATOM     10  C   UNL     1      -4.458  11.366  16.808  0.00  0.00    +0.000 C 
ENDBRANCH   6   7
ENDBRANCH   3   6
ENDBRANCH   1   2
BRANCH   1  12
ATOM     11  C   UNL     1       1.963  13.012  21.016  0.00  0.00    +0.000 C 
ATOM     12  C   UNL     1       1.444  12.454  19.907  0.00  0.00    +0.000 C 
BRANCH  11  13
ATOM     13  C   UNL     1       3.135  13.906  20.914  0.00  0.00    +0.000 C 
ATOM     14  O   UNL     1       4.073  13.923  21.692  0.00  0.00    +0.000 OA
BRANCH  13  15
ATOM     15  O   UNL     1       2.963  14.699  19.826  0.00  0.00    +0.000 OA
BRANCH  15  17
ATOM     16  C   UNL     1       3.798  15.439  17.710  0.00  0.00    +0.000 C 
ATOM     17  C   UNL     1       4.170  15.009  19.116  0.00  0.00    +0.000 C 
ENDBRANCH  15  17
ENDBRANCH  13  15
ENDBRANCH  11  13
ENDBRANCH   1  12
BRANCH   1  18
ATOM     18  C   UNL     1      -0.016  10.321  20.316  0.00  0.00    +0.000 C 
BRANCH  18  19
ATOM     19  C   UNL     1       0.908   9.296  19.684  0.00  0.00    +0.000 A 
ATOM     20  C   UNL     1       1.424   8.228  20.421  0.00  0.00    +0.000 A 
ATOM     21  C   UNL     1       2.220   7.262  19.821  0.00  0.00    +0.000 A 
ATOM     22  C   UNL     1       2.510   7.286  18.447  0.00  0.00    +0.000 A 
ATOM     23  C   UNL     1       2.019   8.375  17.713  0.00  0.00    +0.000 A 
ATOM     24  C   UNL     1       1.229   9.368  18.321  0.00  0.00    +0.000 A 
BRANCH  22  25
ATOM     25  C   UNL     1       3.313   6.186  17.865  0.00  0.00    +0.000 A 
ATOM     26  C   UNL     1       2.825   4.862  17.899  0.00  0.00    +0.000 A 
ATOM     27  C   UNL     1       3.617   3.787  17.497  0.00  0.00    +0.000 A 
ATOM     28 CL   UNL     1       3.018   2.188  17.655  0.00  0.00    +0.000 Cl
ATOM     29  C   UNL     1       4.896   4.008  17.003  0.00  0.00    +0.000 A 
ATOM     30  C   UNL     1       5.365   5.314  16.902  0.00  0.00    +0.000 A 
ATOM     31 CL   UNL     1       6.949   5.595  16.282  0.00  0.00    +0.000 Cl
ATOM     32  C   UNL     1       4.589   6.396  17.323  0.00  0.00    +0.000 A 
ENDBRANCH  22  25
ENDBRANCH  18  19
ENDBRANCH   1  18
TORSDOF 10
ENDMDL
MODEL 7
REMARK VINA RESULT:      -7.4      1.185      1.686
REMARK  Name = 
REMARK  14 active torsions:
REMARK  status: ('A' for Active; 'I' for Inactive)
REMARK    1  A    between atoms: C_1  and  C_2
REMARK    2  A    between atoms: C_2  and  O_3
REMARK    3  A    between atoms: O_3  and  C_4
REMARK    4  A    between atoms: C_4  and  C_6
REMARK    5  A    between atoms: C_7  and  C_8
REMARK    6  A    between atoms: C_8  and  C_9
REMARK    7  A    between atoms: C_8  and  N_24
REMARK    8  A    between atoms: C_9  and  C_10
REMARK    9  A    between atoms: C_13  and  C_14
REMARK   10  A    between atoms: C_25  and  O_27
REMARK   11  A    between atoms: O_27  and  C_28
REMARK   12  A    between atoms: C_28  and  C_29
REMARK   13  A    between atoms: C_28  and  C_30
REMARK   14  A    between atoms: C_28  and  C_31
REMARK                            x       y       z     vdW  Elec       q    Type
REMARK                         _______ _______ _______ _____ _____    ______ ____
ROOT
ATOM      1  C   UNL     1       3.593   5.767  17.388  0.00  0.00    +0.000 C 
ENDROOT
BRANCH   1   2
ATOM      2  N   UNL     1       2.885   4.751  18.138  0.00  0.00    +0.000 N 
ATOM      3  C   UNL     1       3.450   4.256  19.287  0.00  0.00    +0.000 C 
ATOM      4  O   UNL     1       4.393   4.786  19.859  0.00  0.00    +0.000 OA
ATOM      5  H   UNL     1       2.159   4.192  17.715  0.00  0.00    +0.000 HD
BRANCH   3   6
ATOM      6  O   UNL     1       2.863   3.094  19.664  0.00  0.00    +0.000 OA
BRANCH   6   7
ATOM      7  C   UNL     1       1.571   3.152  20.336  0.00  0.00    +0.000 C 
ATOM      8  C   UNL     1       1.097   4.601  20.496  0.00  0.00    +0.000 C 
ATOM      9  C   UNL     1       0.579   2.416  19.418  0.00  0.00    +0.000 C 
ATOM     10  C   UNL     1       1.591   2.402  21.679  0.00  0.00    +0.000 C 
ENDBRANCH   6   7
ENDBRANCH   3   6
ENDBRANCH   1   2
BRANCH   1  12
ATOM     11  C   UNL     1       5.758   5.792  16.041  0.00  0.00    +0.000 C 
ATOM     12  C   UNL     1       4.777   5.146  16.696  0.00  0.00    +0.000 C 
BRANCH  11  13
ATOM     13  C   UNL     1       6.673   5.043  15.155  0.00  0.00    +0.000 C 
ATOM     14  O   UNL     1       7.808   4.705  15.443  0.00  0.00    +0.000 OA
BRANCH  13  15
ATOM     15  O   UNL     1       6.030   4.822  13.980  0.00  0.00    +0.000 OA
BRANCH  15  17
ATOM     16  C   UNL     1       5.395   3.371  12.188  0.00  0.00    +0.000 C 
ATOM     17  C   UNL     1       6.350   3.576  13.348  0.00  0.00    +0.000 C 
ENDBRANCH  15  17
ENDBRANCH  13  15
ENDBRANCH  11  13
ENDBRANCH   1  12
BRANCH   1  18
ATOM     18  C   UNL     1       3.848   7.033  18.253  0.00  0.00    +0.000 C 
BRANCH  18  19
ATOM     19  C   UNL     1       2.634   7.896  18.545  0.00  0.00    +0.000 A 
ATOM     20  C   UNL     1       2.064   7.944  19.819  0.00  0.00    +0.000 A 
ATOM     21  C   UNL     1       0.992   8.782  20.093  0.00  0.00    +0.000 A 
ATOM     22  C   UNL     1       0.457   9.646  19.124  0.00  0.00    +0.000 A 
ATOM     23  C   UNL     1       1.008   9.576  17.836  0.00  0.00    +0.000 A 
ATOM     24  C   UNL     1       2.082   8.713  17.548  0.00  0.00    +0.000 A 
BRANCH  22  25
ATOM     25  C   UNL     1      -0.645  10.559  19.507  0.00  0.00    +0.000 A 
ATOM     26  C   UNL     1      -1.786  10.671  18.684  0.00  0.00    +0.000 A 
ATOM     27  C   UNL     1      -2.770  11.627  18.936  0.00  0.00    +0.000 A 
ATOM     28 CL   UNL     1      -4.086  11.794  17.849  0.00  0.00    +0.000 Cl
ATOM     29  C   UNL     1      -2.668  12.460  20.043  0.00  0.00    +0.000 A 
ATOM     30  C   UNL     1      -1.581  12.315  20.899  0.00  0.00    +0.000 A 
ATOM     31 CL   UNL     1      -1.452  13.342  22.278  0.00  0.00    +0.000 Cl
ATOM     32  C   UNL     1      -0.578  11.377  20.643  0.00  0.00    +0.000 A 
ENDBRANCH  22  25
ENDBRANCH  18  19
ENDBRANCH   1  18
TORSDOF 10
ENDMDL
MODEL 8
REMARK VINA RESULT:      -7.4      5.126      6.611
REMARK  Name = 
REMARK  14 active torsions:
REMARK  status: ('A' for Active; 'I' for Inactive)
REMARK    1  A    between atoms: C_1  and  C_2
REMARK    2  A    between atoms: C_2  and  O_3
REMARK    3  A    between atoms: O_3  and  C_4
REMARK    4  A    between atoms: C_4  and  C_6
REMARK    5  A    between atoms: C_7  and  C_8
REMARK    6  A    between atoms: C_8  and  C_9
REMARK    7  A    between atoms: C_8  and  N_24
REMARK    8  A    between atoms: C_9  and  C_10
REMARK    9  A    between atoms: C_13  and  C_14
REMARK   10  A    between atoms: C_25  and  O_27
REMARK   11  A    between atoms: O_27  and  C_28
REMARK   12  A    between atoms: C_28  and  C_29
REMARK   13  A    between atoms: C_28  and  C_30
REMARK   14  A    between atoms: C_28  and  C_31
REMARK                            x       y       z     vdW  Elec       q    Type
REMARK                         _______ _______ _______ _____ _____    ______ ____
ROOT
ATOM      1  C   UNL     1       5.296   5.508  16.402  0.00  0.00    +0.000 C 
ENDROOT
BRANCH   1   2
ATOM      2  N   UNL     1       4.088   5.111  17.095  0.00  0.00    +0.000 N 
ATOM      3  C   UNL     1       4.152   4.094  18.016  0.00  0.00    +0.000 C 
ATOM      4  O   UNL     1       5.201   3.664  18.475  0.00  0.00    +0.000 OA
ATOM      5  H   UNL     1       3.173   5.335  16.733  0.00  0.00    +0.000 HD
BRANCH   3   6
ATOM      6  O   UNL     1       2.919   3.609  18.300  0.00  0.00    +0.000 OA
BRANCH   6   7
ATOM      7  C   UNL     1       2.427   3.717  19.669  0.00  0.00    +0.000 C 
ATOM      8  C   UNL     1       2.567   5.150  20.194  0.00  0.00    +0.000 C 
ATOM      9  C   UNL     1       0.930   3.367  19.612  0.00  0.00    +0.000 C 
ATOM     10  C   UNL     1       3.100   2.695  20.601  0.00  0.00    +0.000 C 
ENDBRANCH   6   7
ENDBRANCH   3   6
ENDBRANCH   1   2
BRANCH   1  12
ATOM     11  C   UNL     1       6.443   4.280  14.484  0.00  0.00    +0.000 C 
ATOM     12  C   UNL     1       5.356   4.819  15.065  0.00  0.00    +0.000 C 
BRANCH  11  13
ATOM     13  C   UNL     1       6.413   3.922  13.051  0.00  0.00    +0.000 C 
ATOM     14  O   UNL     1       7.235   4.275  12.223  0.00  0.00    +0.000 OA
BRANCH  13  15
ATOM     15  O   UNL     1       5.314   3.156  12.834  0.00  0.00    +0.000 OA
BRANCH  15  17
ATOM     16  C   UNL     1       3.635   3.205  11.132  0.00  0.00    +0.000 C 
ATOM     17  C   UNL     1       5.070   2.837  11.457  0.00  0.00    +0.000 C 
ENDBRANCH  15  17
ENDBRANCH  13  15
ENDBRANCH  11  13
ENDBRANCH   1  12
BRANCH   1  18
ATOM     18  C   UNL     1       6.540   5.396  17.326  0.00  0.00    +0.000 C 
BRANCH  18  19
ATOM     19  C   UNL     1       7.173   6.707  17.754  0.00  0.00    +0.000 A 
ATOM     20  C   UNL     1       8.140   6.754  18.761  0.00  0.00    +0.000 A 
ATOM     21  C   UNL     1       8.758   7.949  19.105  0.00  0.00    +0.000 A 
ATOM     22  C   UNL     1       8.475   9.151  18.437  0.00  0.00    +0.000 A 
ATOM     23  C   UNL     1       7.482   9.111  17.449  0.00  0.00    +0.000 A 
ATOM     24  C   UNL     1       6.838   7.906  17.110  0.00  0.00    +0.000 A 
BRANCH  22  25
ATOM     25  C   UNL     1       9.221  10.374  18.816  0.00  0.00    +0.000 A 
ATOM     26  C   UNL     1       9.218  10.816  20.156  0.00  0.00    +0.000 A 
ATOM     27  C   UNL     1       9.783  12.039  20.517  0.00  0.00    +0.000 A 
ATOM     28 CL   UNL     1       9.663  12.579  22.141  0.00  0.00    +0.000 Cl
ATOM     29  C   UNL     1      10.409  12.828  19.563  0.00  0.00    +0.000 A 
ATOM     30  C   UNL     1      10.477  12.374  18.249  0.00  0.00    +0.000 A 
ATOM     31 CL   UNL     1      11.259  13.347  17.061  0.00  0.00    +0.000 Cl
ATOM     32  C   UNL     1       9.895  11.162  17.872  0.00  0.00    +0.000 A 
ENDBRANCH  22  25
ENDBRANCH  18  19
ENDBRANCH   1  18
TORSDOF 10
ENDMDL
MODEL 9
REMARK VINA RESULT:      -7.4      5.520      9.802
REMARK  Name = 
REMARK  14 active torsions:
REMARK  status: ('A' for Active; 'I' for Inactive)
REMARK    1  A    between atoms: C_1  and  C_2
REMARK    2  A    between atoms: C_2  and  O_3
REMARK    3  A    between atoms: O_3  and  C_4
REMARK    4  A    between atoms: C_4  and  C_6
REMARK    5  A    between atoms: C_7  and  C_8
REMARK    6  A    between atoms: C_8  and  C_9
REMARK    7  A    between atoms: C_8  and  N_24
REMARK    8  A    between atoms: C_9  and  C_10
REMARK    9  A    between atoms: C_13  and  C_14
REMARK   10  A    between atoms: C_25  and  O_27
REMARK   11  A    between atoms: O_27  and  C_28
REMARK   12  A    between atoms: C_28  and  C_29
REMARK   13  A    between atoms: C_28  and  C_30
REMARK   14  A    between atoms: C_28  and  C_31
REMARK                            x       y       z     vdW  Elec       q    Type
REMARK                         _______ _______ _______ _____ _____    ______ ____
ROOT
ATOM      1  C   UNL     1      -0.272  11.429  19.536  0.00  0.00    +0.000 C 
ENDROOT
BRANCH   1   2
ATOM      2  N   UNL     1      -0.298  12.750  20.126  0.00  0.00    +0.000 N 
ATOM      3  C   UNL     1       0.745  13.610  19.879  0.00  0.00    +0.000 C 
ATOM      4  O   UNL     1       1.573  13.432  18.997  0.00  0.00    +0.000 OA
ATOM      5  H   UNL     1      -0.877  12.961  20.925  0.00  0.00    +0.000 HD
BRANCH   3   6
ATOM      6  O   UNL     1       0.757  14.636  20.764  0.00  0.00    +0.000 OA
BRANCH   6   7
ATOM      7  C   UNL     1       0.293  15.946  20.320  0.00  0.00    +0.000 C 
ATOM      8  C   UNL     1      -0.527  16.641  21.412  0.00  0.00    +0.000 C 
ATOM      9  C   UNL     1       1.559  16.780  20.059  0.00  0.00    +0.000 C 
ATOM     10  C   UNL     1      -0.477  15.857  18.991  0.00  0.00    +0.000 C 
ENDBRANCH   6   7
ENDBRANCH   3   6
ENDBRANCH   1   2
BRANCH   1  12
ATOM     11  C   UNL     1      -2.386  11.799  18.159  0.00  0.00    +0.000 C 
ATOM     12  C   UNL     1      -1.643  11.082  19.021  0.00  0.00    +0.000 C 
BRANCH  11  13
ATOM     13  C   UNL     1      -3.822  11.496  17.990  0.00  0.00    +0.000 C 
ATOM     14  O   UNL     1      -4.724  11.989  18.645  0.00  0.00    +0.000 OA
BRANCH  13  15
ATOM     15  O   UNL     1      -3.941  10.573  17.002  0.00  0.00    +0.000 OA
BRANCH  15  17
ATOM     16  C   UNL     1      -2.962   9.945  14.912  0.00  0.00    +0.000 C 
ATOM     17  C   UNL     1      -3.635  11.060  15.689  0.00  0.00    +0.000 C 
ENDBRANCH  15  17
ENDBRANCH  13  15
ENDBRANCH  11  13
ENDBRANCH   1  12
BRANCH   1  18
ATOM     18  C   UNL     1       0.425  10.405  20.474  0.00  0.00    +0.000 C 
BRANCH  18  19
ATOM     19  C   UNL     1       1.220   9.306  19.791  0.00  0.00    +0.000 A 
ATOM     20  C   UNL     1       1.559   8.129  20.460  0.00  0.00    +0.000 A 
ATOM     21  C   UNL     1       2.234   7.105  19.810  0.00  0.00    +0.000 A 
ATOM     22  C   UNL     1       2.569   7.182  18.449  0.00  0.00    +0.000 A 
ATOM     23  C   UNL     1       2.257   8.376  17.784  0.00  0.00    +0.000 A 
ATOM     24  C   UNL     1       1.591   9.426  18.444  0.00  0.00    +0.000 A 
BRANCH  22  25
ATOM     25  C   UNL     1       3.232   6.023  17.807  0.00  0.00    +0.000 A 
ATOM     26  C   UNL     1       2.646   4.742  17.886  0.00  0.00    +0.000 A 
ATOM     27  C   UNL     1       3.314   3.609  17.424  0.00  0.00    +0.000 A 
ATOM     28 CL   UNL     1       2.605   2.061  17.637  0.00  0.00    +0.000 Cl
ATOM     29  C   UNL     1       4.561   3.729  16.826  0.00  0.00    +0.000 A 
ATOM     30  C   UNL     1       5.122   4.994  16.681  0.00  0.00    +0.000 A 
ATOM     31 CL   UNL     1       6.667   5.150  15.932  0.00  0.00    +0.000 Cl
ATOM     32  C   UNL     1       4.471   6.133  17.161  0.00  0.00    +0.000 A 
ENDBRANCH  22  25
ENDBRANCH  18  19
ENDBRANCH   1  18
TORSDOF 10
ENDMDL
