MODEL 1
REMARK VINA RESULT:      -8.1      0.000      0.000
REMARK  Name = 
REMARK  8 active torsions:
REMARK  status: ('A' for Active; 'I' for Inactive)
REMARK    1  A    between atoms: N_1  and  C_2
REMARK    2  A    between atoms: C_2  and  C_3
REMARK    3  A    between atoms: C_3  and  C_4
REMARK    4  A    between atoms: C_4  and  C_5
REMARK    5  A    between atoms: C_5  and  C_6
REMARK    6  A    between atoms: C_6  and  C_7
REMARK    7  A    between atoms: C_7  and  C_8
REMARK    8  A    between atoms: C_22  and  C_23
REMARK                            x       y       z     vdW  Elec       q    Type
REMARK                         _______ _______ _______ _____ _____    ______ ____
ROOT
ATOM      1  C   UNL     1       7.936   7.831  17.599  0.00  0.00    +0.000 C 
ATOM      2  O   UNL     1       8.685   7.930  16.629  0.00  0.00    +0.000 OA
ATOM      3  N   UNL     1       6.901   6.917  17.736  0.00  0.00    +0.000 N 
ATOM      4  C   UNL     1       6.574   6.015  16.748  0.00  0.00    +0.000 A 
ATOM      5  N   UNL     1       7.178   5.934  15.607  0.00  0.00    +0.000 NA
ATOM      6  C   UNL     1       6.737   5.004  14.651  0.00  0.00    +0.000 A 
ATOM      7  C   UNL     1       7.387   4.997  13.418  0.00  0.00    +0.000 A 
ATOM      8  C   UNL     1       6.963   4.137  12.415  0.00  0.00    +0.000 A 
ATOM      9  C   UNL     1       5.888   3.274  12.649  0.00  0.00    +0.000 A 
ATOM     10 CL   UNL     1       5.356   2.237  11.385  0.00  0.00    +0.000 Cl
ATOM     11  C   UNL     1       5.235   3.255  13.888  0.00  0.00    +0.000 A 
ATOM     12  C   UNL     1       5.661   4.122  14.894  0.00  0.00    +0.000 A 
ATOM     13  C   UNL     1       5.041   4.216  16.209  0.00  0.00    +0.000 A 
ATOM     14  N   UNL     1       4.066   3.548  16.783  0.00  0.00    +0.000 NA
ATOM     15  C   UNL     1       3.942   4.169  18.017  0.00  0.00    +0.000 A 
ATOM     16  N   UNL     1       4.811   5.176  18.236  0.00  0.00    +0.000 NA
ATOM     17  N   UNL     1       5.505   5.172  17.078  0.00  0.00    +0.000 N 
ATOM     18  H   UNL     1       6.337   6.911  18.577  0.00  0.00    +0.000 HD
ENDROOT
BRANCH  15  19
ATOM     19  C   UNL     1       2.891   3.756  19.007  0.00  0.00    +0.000 A 
ATOM     20  C   UNL     1       1.611   4.274  19.097  0.00  0.00    +0.000 A 
ATOM     21  C   UNL     1       0.979   3.635  20.195  0.00  0.00    +0.000 A 
ATOM     22  C   UNL     1       1.907   2.758  20.705  0.00  0.00    +0.000 A 
ATOM     23  O   UNL     1       3.061   2.814  19.989  0.00  0.00    +0.000 OA
ENDBRANCH  15  19
BRANCH   1  24
ATOM     24  C   UNL     1       8.120   8.768  18.768  0.00  0.00    +0.000 C 
BRANCH  24  25
ATOM     25  C   UNL     1       8.941   9.988  18.381  0.00  0.00    +0.000 C 
BRANCH  25  26
ATOM     26  C   UNL     1       9.616  10.610  19.603  0.00  0.00    +0.000 C 
BRANCH  26  27
ATOM     27  C   UNL     1      10.718  11.577  19.175  0.00  0.00    +0.000 C 
BRANCH  27  28
ATOM     28  C   UNL     1      10.514  12.058  17.739  0.00  0.00    +0.000 C 
BRANCH  28  29
ATOM     29  C   UNL     1      11.693  12.912  17.276  0.00  0.00    +0.000 C 
BRANCH  29  30
ATOM     30  N   UNL     1      11.478  13.367  15.909  0.00  0.00    +0.000 NA
ATOM     31  H   UNL     1      10.479  13.365  15.704  0.00  0.00    +0.000 HD
ATOM     32  H   UNL     1      11.904  12.711  15.255  0.00  0.00    +0.000 HD
ENDBRANCH  29  30
ENDBRANCH  28  29
ENDBRANCH  27  28
ENDBRANCH  26  27
ENDBRANCH  25  26
ENDBRANCH  24  25
ENDBRANCH   1  24
TORSDOF 8
ENDMDL
MODEL 2
REMARK VINA RESULT:      -7.6      1.753      2.043
REMARK  Name = 
REMARK  8 active torsions:
REMARK  status: ('A' for Active; 'I' for Inactive)
REMARK    1  A    between atoms: N_1  and  C_2
REMARK    2  A    between atoms: C_2  and  C_3
REMARK    3  A    between atoms: C_3  and  C_4
REMARK    4  A    between atoms: C_4  and  C_5
REMARK    5  A    between atoms: C_5  and  C_6
REMARK    6  A    between atoms: C_6  and  C_7
REMARK    7  A    between atoms: C_7  and  C_8
REMARK    8  A    between atoms: C_22  and  C_23
REMARK                            x       y       z     vdW  Elec       q    Type
REMARK                         _______ _______ _______ _____ _____    ______ ____
ROOT
ATOM      1  C   UNL     1       7.955   7.887  17.595  0.00  0.00    +0.000 C 
ATOM      2  O   UNL     1       8.732   7.937  16.644  0.00  0.00    +0.000 OA
ATOM      3  N   UNL     1       6.880   7.019  17.721  0.00  0.00    +0.000 N 
ATOM      4  C   UNL     1       6.542   6.112  16.741  0.00  0.00    +0.000 A 
ATOM      5  N   UNL     1       7.172   5.984  15.618  0.00  0.00    +0.000 NA
ATOM      6  C   UNL     1       6.719   5.055  14.667  0.00  0.00    +0.000 A 
ATOM      7  C   UNL     1       7.400   4.998  13.453  0.00  0.00    +0.000 A 
ATOM      8  C   UNL     1       6.968   4.136  12.454  0.00  0.00    +0.000 A 
ATOM      9  C   UNL     1       5.853   3.322  12.675  0.00  0.00    +0.000 A 
ATOM     10 CL   UNL     1       5.313   2.284  11.416  0.00  0.00    +0.000 Cl
ATOM     11  C   UNL     1       5.168   3.354  13.896  0.00  0.00    +0.000 A 
ATOM     12  C   UNL     1       5.602   4.221  14.897  0.00  0.00    +0.000 A 
ATOM     13  C   UNL     1       4.951   4.366  16.193  0.00  0.00    +0.000 A 
ATOM     14  N   UNL     1       3.935   3.749  16.753  0.00  0.00    +0.000 NA
ATOM     15  C   UNL     1       3.804   4.399  17.971  0.00  0.00    +0.000 A 
ATOM     16  N   UNL     1       4.707   5.374  18.195  0.00  0.00    +0.000 NA
ATOM     17  N   UNL     1       5.431   5.319  17.056  0.00  0.00    +0.000 N 
ATOM     18  H   UNL     1       6.294   7.051  18.546  0.00  0.00    +0.000 HD
ENDROOT
BRANCH  15  19
ATOM     19  C   UNL     1       2.711   4.048  18.939  0.00  0.00    +0.000 A 
ATOM     20  C   UNL     1       2.138   4.904  19.863  0.00  0.00    +0.000 A 
ATOM     21  C   UNL     1       1.187   4.149  20.597  0.00  0.00    +0.000 A 
ATOM     22  C   UNL     1       1.229   2.879  20.072  0.00  0.00    +0.000 A 
ATOM     23  O   UNL     1       2.137   2.809  19.063  0.00  0.00    +0.000 OA
ENDBRANCH  15  19
BRANCH   1  24
ATOM     24  C   UNL     1       8.146   8.838  18.752  0.00  0.00    +0.000 C 
BRANCH  24  25
ATOM     25  C   UNL     1       8.754  10.156  18.296  0.00  0.00    +0.000 C 
BRANCH  25  26
ATOM     26  C   UNL     1       9.788  10.663  19.299  0.00  0.00    +0.000 C 
BRANCH  26  27
ATOM     27  C   UNL     1       9.343  11.994  19.903  0.00  0.00    +0.000 C 
BRANCH  27  28
ATOM     28  C   UNL     1       9.864  12.165  21.329  0.00  0.00    +0.000 C 
BRANCH  28  29
ATOM     29  C   UNL     1       8.711  12.349  22.314  0.00  0.00    +0.000 C 
BRANCH  29  30
ATOM     30  N   UNL     1       8.543  11.150  23.122  0.00  0.00    +0.000 NA
ATOM     31  H   UNL     1       7.674  10.684  22.861  0.00  0.00    +0.000 HD
ATOM     32  H   UNL     1       8.445  11.405  24.104  0.00  0.00    +0.000 HD
ENDBRANCH  29  30
ENDBRANCH  28  29
ENDBRANCH  27  28
ENDBRANCH  26  27
ENDBRANCH  25  26
ENDBRANCH  24  25
ENDBRANCH   1  24
TORSDOF 8
ENDMDL
MODEL 3
REMARK VINA RESULT:      -7.3      1.091      1.149
REMARK  Name = 
REMARK  8 active torsions:
REMARK  status: ('A' for Active; 'I' for Inactive)
REMARK    1  A    between atoms: N_1  and  C_2
REMARK    2  A    between atoms: C_2  and  C_3
REMARK    3  A    between atoms: C_3  and  C_4
REMARK    4  A    between atoms: C_4  and  C_5
REMARK    5  A    between atoms: C_5  and  C_6
REMARK    6  A    between atoms: C_6  and  C_7
REMARK    7  A    between atoms: C_7  and  C_8
REMARK    8  A    between atoms: C_22  and  C_23
REMARK                            x       y       z     vdW  Elec       q    Type
REMARK                         _______ _______ _______ _____ _____    ______ ____
ROOT
ATOM      1  C   UNL     1       7.980   7.840  17.557  0.00  0.00    +0.000 C 
ATOM      2  O   UNL     1       8.731   7.917  16.587  0.00  0.00    +0.000 OA
ATOM      3  N   UNL     1       6.928   6.947  17.701  0.00  0.00    +0.000 N 
ATOM      4  C   UNL     1       6.583   6.044  16.720  0.00  0.00    +0.000 A 
ATOM      5  N   UNL     1       7.186   5.942  15.580  0.00  0.00    +0.000 NA
ATOM      6  C   UNL     1       6.728   5.014  14.631  0.00  0.00    +0.000 A 
ATOM      7  C   UNL     1       7.378   4.985  13.398  0.00  0.00    +0.000 A 
ATOM      8  C   UNL     1       6.939   4.125  12.401  0.00  0.00    +0.000 A 
ATOM      9  C   UNL     1       5.847   3.285  12.642  0.00  0.00    +0.000 A 
ATOM     10 CL   UNL     1       5.296   2.249  11.386  0.00  0.00    +0.000 Cl
ATOM     11  C   UNL     1       5.193   3.288  13.880  0.00  0.00    +0.000 A 
ATOM     12  C   UNL     1       5.635   4.154  14.880  0.00  0.00    +0.000 A 
ATOM     13  C   UNL     1       5.016   4.270  16.194  0.00  0.00    +0.000 A 
ATOM     14  N   UNL     1       4.028   3.626  16.773  0.00  0.00    +0.000 NA
ATOM     15  C   UNL     1       3.916   4.259  18.002  0.00  0.00    +0.000 A 
ATOM     16  N   UNL     1       4.804   5.251  18.213  0.00  0.00    +0.000 NA
ATOM     17  N   UNL     1       5.498   5.224  17.055  0.00  0.00    +0.000 N 
ATOM     18  H   UNL     1       6.363   6.958  18.542  0.00  0.00    +0.000 HD
ENDROOT
BRANCH  15  19
ATOM     19  C   UNL     1       2.857   3.874  18.994  0.00  0.00    +0.000 A 
ATOM     20  C   UNL     1       1.842   4.693  19.459  0.00  0.00    +0.000 A 
ATOM     21  C   UNL     1       1.105   3.944  20.411  0.00  0.00    +0.000 A 
ATOM     22  C   UNL     1       1.707   2.708  20.465  0.00  0.00    +0.000 A 
ATOM     23  O   UNL     1       2.758   2.651  19.606  0.00  0.00    +0.000 OA
ENDBRANCH  15  19
BRANCH   1  24
ATOM     24  C   UNL     1       8.182   8.782  18.719  0.00  0.00    +0.000 C 
BRANCH  24  25
ATOM     25  C   UNL     1       8.468  10.199  18.246  0.00  0.00    +0.000 C 
BRANCH  25  26
ATOM     26  C   UNL     1       9.839  10.675  18.724  0.00  0.00    +0.000 C 
BRANCH  26  27
ATOM     27  C   UNL     1       9.887  12.200  18.785  0.00  0.00    +0.000 C 
BRANCH  27  28
ATOM     28  C   UNL     1       8.729  12.828  18.012  0.00  0.00    +0.000 C 
BRANCH  28  29
ATOM     29  C   UNL     1       8.543  14.294  18.401  0.00  0.00    +0.000 C 
BRANCH  29  30
ATOM     30  N   UNL     1       7.834  15.008  17.349  0.00  0.00    +0.000 NA
ATOM     31  H   UNL     1       6.837  14.803  17.412  0.00  0.00    +0.000 HD
ATOM     32  H   UNL     1       8.137  14.668  16.436  0.00  0.00    +0.000 HD
ENDBRANCH  29  30
ENDBRANCH  28  29
ENDBRANCH  27  28
ENDBRANCH  26  27
ENDBRANCH  25  26
ENDBRANCH  24  25
ENDBRANCH   1  24
TORSDOF 8
ENDMDL
MODEL 4
REMARK VINA RESULT:      -7.1      0.973      1.109
REMARK  Name = 
REMARK  8 active torsions:
REMARK  status: ('A' for Active; 'I' for Inactive)
REMARK    1  A    between atoms: N_1  and  C_2
REMARK    2  A    between atoms: C_2  and  C_3
REMARK    3  A    between atoms: C_3  and  C_4
REMARK    4  A    between atoms: C_4  and  C_5
REMARK    5  A    between atoms: C_5  and  C_6
REMARK    6  A    between atoms: C_6  and  C_7
REMARK    7  A    between atoms: C_7  and  C_8
REMARK    8  A    between atoms: C_22  and  C_23
REMARK                            x       y       z     vdW  Elec       q    Type
REMARK                         _______ _______ _______ _____ _____    ______ ____
ROOT
ATOM      1  C   UNL     1       7.985   7.881  17.489  0.00  0.00    +0.000 C 
ATOM      2  O   UNL     1       8.740   7.929  16.520  0.00  0.00    +0.000 OA
ATOM      3  N   UNL     1       6.918   7.006  17.645  0.00  0.00    +0.000 N 
ATOM      4  C   UNL     1       6.564   6.091  16.678  0.00  0.00    +0.000 A 
ATOM      5  N   UNL     1       7.169   5.960  15.542  0.00  0.00    +0.000 NA
ATOM      6  C   UNL     1       6.700   5.023  14.607  0.00  0.00    +0.000 A 
ATOM      7  C   UNL     1       7.354   4.963  13.378  0.00  0.00    +0.000 A 
ATOM      8  C   UNL     1       6.905   4.092  12.394  0.00  0.00    +0.000 A 
ATOM      9  C   UNL     1       5.800   3.273  12.646  0.00  0.00    +0.000 A 
ATOM     10 CL   UNL     1       5.238   2.223  11.406  0.00  0.00    +0.000 Cl
ATOM     11  C   UNL     1       5.143   3.307  13.882  0.00  0.00    +0.000 A 
ATOM     12  C   UNL     1       5.594   4.183  14.867  0.00  0.00    +0.000 A 
ATOM     13  C   UNL     1       4.973   4.331  16.177  0.00  0.00    +0.000 A 
ATOM     14  N   UNL     1       3.974   3.711  16.764  0.00  0.00    +0.000 NA
ATOM     15  C   UNL     1       3.867   4.368  17.981  0.00  0.00    +0.000 A 
ATOM     16  N   UNL     1       4.769   5.350  18.178  0.00  0.00    +0.000 NA
ATOM     17  N   UNL     1       5.466   5.293  17.024  0.00  0.00    +0.000 N 
ATOM     18  H   UNL     1       6.352   7.039  18.483  0.00  0.00    +0.000 HD
ENDROOT
BRANCH  15  19
ATOM     19  C   UNL     1       2.799   4.015  18.976  0.00  0.00    +0.000 A 
ATOM     20  C   UNL     1       2.393   2.736  19.314  0.00  0.00    +0.000 A 
ATOM     21  C   UNL     1       1.335   2.868  20.250  0.00  0.00    +0.000 A 
ATOM     22  C   UNL     1       1.164   4.219  20.437  0.00  0.00    +0.000 A 
ATOM     23  O   UNL     1       2.050   4.921  19.681  0.00  0.00    +0.000 OA
ENDBRANCH  15  19
BRANCH   1  24
ATOM     24  C   UNL     1       8.196   8.839  18.635  0.00  0.00    +0.000 C 
BRANCH  24  25
ATOM     25  C   UNL     1       8.157  10.286  18.167  0.00  0.00    +0.000 C 
BRANCH  25  26
ATOM     26  C   UNL     1       9.552  10.908  18.179  0.00  0.00    +0.000 C 
BRANCH  26  27
ATOM     27  C   UNL     1      10.057  11.068  19.612  0.00  0.00    +0.000 C 
BRANCH  27  28
ATOM     28  C   UNL     1      11.512  11.533  19.644  0.00  0.00    +0.000 C 
BRANCH  28  29
ATOM     29  C   UNL     1      11.600  13.037  19.896  0.00  0.00    +0.000 C 
BRANCH  29  30
ATOM     30  N   UNL     1      11.781  13.749  18.639  0.00  0.00    +0.000 NA
ATOM     31  H   UNL     1      11.199  13.319  17.920  0.00  0.00    +0.000 HD
ATOM     32  H   UNL     1      12.745  13.650  18.321  0.00  0.00    +0.000 HD
ENDBRANCH  29  30
ENDBRANCH  28  29
ENDBRANCH  27  28
ENDBRANCH  26  27
ENDBRANCH  25  26
ENDBRANCH  24  25
ENDBRANCH   1  24
TORSDOF 8
ENDMDL
MODEL 5
REMARK VINA RESULT:      -7.1      5.033      8.019
REMARK  Name = 
REMARK  8 active torsions:
REMARK  status: ('A' for Active; 'I' for Inactive)
REMARK    1  A    between atoms: N_1  and  C_2
REMARK    2  A    between atoms: C_2  and  C_3
REMARK    3  A    between atoms: C_3  and  C_4
REMARK    4  A    between atoms: C_4  and  C_5
REMARK    5  A    between atoms: C_5  and  C_6
REMARK    6  A    between atoms: C_6  and  C_7
REMARK    7  A    between atoms: C_7  and  C_8
REMARK    8  A    between atoms: C_22  and  C_23
REMARK                            x       y       z     vdW  Elec       q    Type
REMARK                         _______ _______ _______ _____ _____    ______ ____
ROOT
ATOM      1  C   UNL     1       5.565   4.906  15.614  0.00  0.00    +0.000 C 
ATOM      2  O   UNL     1       5.827   3.735  15.879  0.00  0.00    +0.000 OA
ATOM      3  N   UNL     1       4.736   5.740  16.352  0.00  0.00    +0.000 N 
ATOM      4  C   UNL     1       4.070   5.313  17.480  0.00  0.00    +0.000 A 
ATOM      5  N   UNL     1       4.138   4.111  17.954  0.00  0.00    +0.000 NA
ATOM      6  C   UNL     1       3.384   3.767  19.088  0.00  0.00    +0.000 A 
ATOM      7  C   UNL     1       3.451   2.445  19.524  0.00  0.00    +0.000 A 
ATOM      8  C   UNL     1       2.689   2.032  20.609  0.00  0.00    +0.000 A 
ATOM      9  C   UNL     1       1.862   2.950  21.264  0.00  0.00    +0.000 A 
ATOM     10 CL   UNL     1       0.902   2.414  22.586  0.00  0.00    +0.000 Cl
ATOM     11  C   UNL     1       1.797   4.286  20.851  0.00  0.00    +0.000 A 
ATOM     12  C   UNL     1       2.562   4.698  19.760  0.00  0.00    +0.000 A 
ATOM     13  C   UNL     1       2.552   6.051  19.220  0.00  0.00    +0.000 A 
ATOM     14  N   UNL     1       1.949   7.156  19.596  0.00  0.00    +0.000 NA
ATOM     15  C   UNL     1       2.326   8.069  18.622  0.00  0.00    +0.000 A 
ATOM     16  N   UNL     1       3.150   7.580  17.674  0.00  0.00    +0.000 NA
ATOM     17  N   UNL     1       3.288   6.302  18.089  0.00  0.00    +0.000 N 
ATOM     18  H   UNL     1       4.582   6.695  16.055  0.00  0.00    +0.000 HD
ENDROOT
BRANCH  15  19
ATOM     19  C   UNL     1       1.817   9.481  18.624  0.00  0.00    +0.000 A 
ATOM     20  C   UNL     1       0.666   9.929  19.249  0.00  0.00    +0.000 A 
ATOM     21  C   UNL     1       0.543  11.312  18.956  0.00  0.00    +0.000 A 
ATOM     22  C   UNL     1       1.631  11.629  18.177  0.00  0.00    +0.000 A 
ATOM     23  O   UNL     1       2.413  10.535  17.980  0.00  0.00    +0.000 OA
ENDBRANCH  15  19
BRANCH   1  24
ATOM     24  C   UNL     1       6.176   5.537  14.387  0.00  0.00    +0.000 C 
BRANCH  24  25
ATOM     25  C   UNL     1       7.333   4.708  13.851  0.00  0.00    +0.000 C 
BRANCH  25  26
ATOM     26  C   UNL     1       7.174   4.441  12.355  0.00  0.00    +0.000 C 
BRANCH  26  27
ATOM     27  C   UNL     1       6.177   3.308  12.114  0.00  0.00    +0.000 C 
BRANCH  27  28
ATOM     28  C   UNL     1       6.843   2.109  11.441  0.00  0.00    +0.000 C 
BRANCH  28  29
ATOM     29  C   UNL     1       5.811   1.046  11.072  0.00  0.00    +0.000 C 
BRANCH  29  30
ATOM     30  N   UNL     1       6.351  -0.285  11.311  0.00  0.00    +0.000 NA
ATOM     31  H   UNL     1       6.356  -0.811  10.438  0.00  0.00    +0.000 HD
ATOM     32  H   UNL     1       5.741  -0.797  11.949  0.00  0.00    +0.000 HD
ENDBRANCH  29  30
ENDBRANCH  28  29
ENDBRANCH  27  28
ENDBRANCH  26  27
ENDBRANCH  25  26
ENDBRANCH  24  25
ENDBRANCH   1  24
TORSDOF 8
ENDMDL
MODEL 6
REMARK VINA RESULT:      -7.1      5.044      7.913
REMARK  Name = 
REMARK  8 active torsions:
REMARK  status: ('A' for Active; 'I' for Inactive)
REMARK    1  A    between atoms: N_1  and  C_2
REMARK    2  A    between atoms: C_2  and  C_3
REMARK    3  A    between atoms: C_3  and  C_4
REMARK    4  A    between atoms: C_4  and  C_5
REMARK    5  A    between atoms: C_5  and  C_6
REMARK    6  A    between atoms: C_6  and  C_7
REMARK    7  A    between atoms: C_7  and  C_8
REMARK    8  A    between atoms: C_22  and  C_23
REMARK                            x       y       z     vdW  Elec       q    Type
REMARK                         _______ _______ _______ _____ _____    ______ ____
ROOT
ATOM      1  C   UNL     1       5.642   4.808  15.644  0.00  0.00    +0.000 C 
ATOM      2  O   UNL     1       5.910   3.644  15.935  0.00  0.00    +0.000 OA
ATOM      3  N   UNL     1       4.805   5.652  16.361  0.00  0.00    +0.000 N 
ATOM      4  C   UNL     1       4.137   5.245  17.495  0.00  0.00    +0.000 A 
ATOM      5  N   UNL     1       4.211   4.054  17.995  0.00  0.00    +0.000 NA
ATOM      6  C   UNL     1       3.455   3.730  19.134  0.00  0.00    +0.000 A 
ATOM      7  C   UNL     1       3.529   2.418  19.598  0.00  0.00    +0.000 A 
ATOM      8  C   UNL     1       2.765   2.024  20.689  0.00  0.00    +0.000 A 
ATOM      9  C   UNL     1       1.930   2.949  21.321  0.00  0.00    +0.000 A 
ATOM     10 CL   UNL     1       0.969   2.436  22.651  0.00  0.00    +0.000 Cl
ATOM     11  C   UNL     1       1.858   4.276  20.879  0.00  0.00    +0.000 A 
ATOM     12  C   UNL     1       2.624   4.670  19.783  0.00  0.00    +0.000 A 
ATOM     13  C   UNL     1       2.608   6.011  19.213  0.00  0.00    +0.000 A 
ATOM     14  N   UNL     1       1.996   7.120  19.564  0.00  0.00    +0.000 NA
ATOM     15  C   UNL     1       2.372   8.013  18.571  0.00  0.00    +0.000 A 
ATOM     16  N   UNL     1       3.202   7.510  17.638  0.00  0.00    +0.000 NA
ATOM     17  N   UNL     1       3.347   6.242  18.080  0.00  0.00    +0.000 N 
ATOM     18  H   UNL     1       4.646   6.600  16.043  0.00  0.00    +0.000 HD
ENDROOT
BRANCH  15  19
ATOM     19  C   UNL     1       1.853   9.422  18.542  0.00  0.00    +0.000 A 
ATOM     20  C   UNL     1       0.654   9.859  19.079  0.00  0.00    +0.000 A 
ATOM     21  C   UNL     1       0.544  11.242  18.784  0.00  0.00    +0.000 A 
ATOM     22  C   UNL     1       1.686  11.571  18.092  0.00  0.00    +0.000 A 
ATOM     23  O   UNL     1       2.489  10.484  17.950  0.00  0.00    +0.000 OA
ENDBRANCH  15  19
BRANCH   1  24
ATOM     24  C   UNL     1       6.254   5.417  14.406  0.00  0.00    +0.000 C 
BRANCH  24  25
ATOM     25  C   UNL     1       7.177   4.436  13.700  0.00  0.00    +0.000 C 
BRANCH  25  26
ATOM     26  C   UNL     1       6.804   4.289  12.226  0.00  0.00    +0.000 C 
BRANCH  26  27
ATOM     27  C   UNL     1       5.876   3.093  12.023  0.00  0.00    +0.000 C 
BRANCH  27  28
ATOM     28  C   UNL     1       4.407   3.513  12.048  0.00  0.00    +0.000 C 
BRANCH  28  29
ATOM     29  C   UNL     1       3.669   2.993  10.816  0.00  0.00    +0.000 C 
BRANCH  29  30
ATOM     30  N   UNL     1       3.264   4.104   9.965  0.00  0.00    +0.000 NA
ATOM     31  H   UNL     1       2.457   3.827   9.407  0.00  0.00    +0.000 HD
ATOM     32  H   UNL     1       4.008   4.320   9.302  0.00  0.00    +0.000 HD
ENDBRANCH  29  30
ENDBRANCH  28  29
ENDBRANCH  27  28
ENDBRANCH  26  27
ENDBRANCH  25  26
ENDBRANCH  24  25
ENDBRANCH   1  24
TORSDOF 8
ENDMDL
MODEL 7
REMARK VINA RESULT:      -6.8      8.889     11.473
REMARK  Name = 
REMARK  8 active torsions:
REMARK  status: ('A' for Active; 'I' for Inactive)
REMARK    1  A    between atoms: N_1  and  C_2
REMARK    2  A    between atoms: C_2  and  C_3
REMARK    3  A    between atoms: C_3  and  C_4
REMARK    4  A    between atoms: C_4  and  C_5
REMARK    5  A    between atoms: C_5  and  C_6
REMARK    6  A    between atoms: C_6  and  C_7
REMARK    7  A    between atoms: C_7  and  C_8
REMARK    8  A    between atoms: C_22  and  C_23
REMARK                            x       y       z     vdW  Elec       q    Type
REMARK                         _______ _______ _______ _____ _____    ______ ____
ROOT
ATOM      1  C   UNL     1       0.949   9.918  18.409  0.00  0.00    +0.000 C 
ATOM      2  O   UNL     1       1.045  10.393  19.539  0.00  0.00    +0.000 OA
ATOM      3  N   UNL     1      -0.161  10.011  17.581  0.00  0.00    +0.000 N 
ATOM      4  C   UNL     1      -1.324  10.641  17.968  0.00  0.00    +0.000 A 
ATOM      5  N   UNL     1      -1.503  11.191  19.125  0.00  0.00    +0.000 NA
ATOM      6  C   UNL     1      -2.744  11.770  19.435  0.00  0.00    +0.000 A 
ATOM      7  C   UNL     1      -2.902  12.299  20.715  0.00  0.00    +0.000 A 
ATOM      8  C   UNL     1      -4.122  12.840  21.098  0.00  0.00    +0.000 A 
ATOM      9  C   UNL     1      -5.187  12.857  20.192  0.00  0.00    +0.000 A 
ATOM     10 CL   UNL     1      -6.700  13.502  20.693  0.00  0.00    +0.000 Cl
ATOM     11  C   UNL     1      -5.041  12.347  18.897  0.00  0.00    +0.000 A 
ATOM     12  C   UNL     1      -3.815  11.803  18.515  0.00  0.00    +0.000 A 
ATOM     13  C   UNL     1      -3.553  11.214  17.208  0.00  0.00    +0.000 A 
ATOM     14  N   UNL     1      -4.282  11.099  16.121  0.00  0.00    +0.000 NA
ATOM     15  C   UNL     1      -3.453  10.396  15.258  0.00  0.00    +0.000 A 
ATOM     16  N   UNL     1      -2.240  10.091  15.759  0.00  0.00    +0.000 NA
ATOM     17  N   UNL     1      -2.327  10.636  16.991  0.00  0.00    +0.000 N 
ATOM     18  H   UNL     1      -0.146   9.587  16.662  0.00  0.00    +0.000 HD
ENDROOT
BRANCH  15  19
ATOM     19  C   UNL     1      -3.907   9.989  13.886  0.00  0.00    +0.000 A 
ATOM     20  C   UNL     1      -3.122   9.958  12.746  0.00  0.00    +0.000 A 
ATOM     21  C   UNL     1      -3.961   9.562  11.673  0.00  0.00    +0.000 A 
ATOM     22  C   UNL     1      -5.206   9.364  12.222  0.00  0.00    +0.000 A 
ATOM     23  O   UNL     1      -5.183   9.608  13.559  0.00  0.00    +0.000 OA
ENDBRANCH  15  19
BRANCH   1  24
ATOM     24  C   UNL     1       2.115   9.156  17.830  0.00  0.00    +0.000 C 
BRANCH  24  25
ATOM     25  C   UNL     1       2.214   7.756  18.417  0.00  0.00    +0.000 C 
BRANCH  25  26
ATOM     26  C   UNL     1       3.398   6.992  17.827  0.00  0.00    +0.000 C 
BRANCH  26  27
ATOM     27  C   UNL     1       3.240   5.491  18.062  0.00  0.00    +0.000 C 
BRANCH  27  28
ATOM     28  C   UNL     1       3.852   5.066  19.396  0.00  0.00    +0.000 C 
BRANCH  28  29
ATOM     29  C   UNL     1       4.616   3.751  19.253  0.00  0.00    +0.000 C 
BRANCH  29  30
ATOM     30  N   UNL     1       5.950   3.999  18.724  0.00  0.00    +0.000 NA
ATOM     31  H   UNL     1       6.337   3.128  18.360  0.00  0.00    +0.000 HD
ATOM     32  H   UNL     1       6.571   4.295  19.477  0.00  0.00    +0.000 HD
ENDBRANCH  29  30
ENDBRANCH  28  29
ENDBRANCH  27  28
ENDBRANCH  26  27
ENDBRANCH  25  26
ENDBRANCH  24  25
ENDBRANCH   1  24
TORSDOF 8
ENDMDL
MODEL 8
REMARK VINA RESULT:      -6.8      3.710      4.905
REMARK  Name = 
REMARK  8 active torsions:
REMARK  status: ('A' for Active; 'I' for Inactive)
REMARK    1  A    between atoms: N_1  and  C_2
REMARK    2  A    between atoms: C_2  and  C_3
REMARK    3  A    between atoms: C_3  and  C_4
REMARK    4  A    between atoms: C_4  and  C_5
REMARK    5  A    between atoms: C_5  and  C_6
REMARK    6  A    between atoms: C_6  and  C_7
REMARK    7  A    between atoms: C_7  and  C_8
REMARK    8  A    between atoms: C_22  and  C_23
REMARK                            x       y       z     vdW  Elec       q    Type
REMARK                         _______ _______ _______ _____ _____    ______ ____
ROOT
ATOM      1  C   UNL     1       7.155   7.047  17.414  0.00  0.00    +0.000 C 
ATOM      2  O   UNL     1       7.573   5.892  17.414  0.00  0.00    +0.000 OA
ATOM      3  N   UNL     1       5.839   7.435  17.625  0.00  0.00    +0.000 N 
ATOM      4  C   UNL     1       4.824   6.527  17.832  0.00  0.00    +0.000 A 
ATOM      5  N   UNL     1       4.985   5.243  17.839  0.00  0.00    +0.000 NA
ATOM      6  C   UNL     1       3.874   4.403  18.017  0.00  0.00    +0.000 A 
ATOM      7  C   UNL     1       4.095   3.028  17.961  0.00  0.00    +0.000 A 
ATOM      8  C   UNL     1       3.029   2.148  18.079  0.00  0.00    +0.000 A 
ATOM      9  C   UNL     1       1.735   2.646  18.261  0.00  0.00    +0.000 A 
ATOM     10 CL   UNL     1       0.422   1.542  18.374  0.00  0.00    +0.000 Cl
ATOM     11  C   UNL     1       1.497   4.024  18.338  0.00  0.00    +0.000 A 
ATOM     12  C   UNL     1       2.569   4.907  18.218  0.00  0.00    +0.000 A 
ATOM     13  C   UNL     1       2.441   6.358  18.249  0.00  0.00    +0.000 A 
ATOM     14  N   UNL     1       1.417   7.157  18.443  0.00  0.00    +0.000 NA
ATOM     15  C   UNL     1       1.971   8.421  18.298  0.00  0.00    +0.000 A 
ATOM     16  N   UNL     1       3.294   8.435  18.043  0.00  0.00    +0.000 NA
ATOM     17  N   UNL     1       3.567   7.113  18.033  0.00  0.00    +0.000 N 
ATOM     18  H   UNL     1       5.589   8.416  17.608  0.00  0.00    +0.000 HD
ENDROOT
BRANCH  15  19
ATOM     19  C   UNL     1       1.135   9.664  18.390  0.00  0.00    +0.000 A 
ATOM     20  C   UNL     1      -0.202   9.772  18.048  0.00  0.00    +0.000 A 
ATOM     21  C   UNL     1      -0.575  11.127  18.246  0.00  0.00    +0.000 A 
ATOM     22  C   UNL     1       0.553  11.764  18.706  0.00  0.00    +0.000 A 
ATOM     23  O   UNL     1       1.588  10.889  18.808  0.00  0.00    +0.000 OA
ENDBRANCH  15  19
BRANCH   1  24
ATOM     24  C   UNL     1       8.121   8.180  17.164  0.00  0.00    +0.000 C 
BRANCH  24  25
ATOM     25  C   UNL     1       8.557   8.837  18.464  0.00  0.00    +0.000 C 
BRANCH  25  26
ATOM     26  C   UNL     1       8.911  10.308  18.248  0.00  0.00    +0.000 C 
BRANCH  26  27
ATOM     27  C   UNL     1       9.719  10.845  19.428  0.00  0.00    +0.000 C 
BRANCH  27  28
ATOM     28  C   UNL     1      10.419  12.157  19.076  0.00  0.00    +0.000 C 
BRANCH  28  29
ATOM     29  C   UNL     1      10.737  12.224  17.583  0.00  0.00    +0.000 C 
BRANCH  29  30
ATOM     30  N   UNL     1      12.153  11.968  17.358  0.00  0.00    +0.000 NA
ATOM     31  H   UNL     1      12.535  12.693  16.751  0.00  0.00    +0.000 HD
ATOM     32  H   UNL     1      12.270  11.087  16.858  0.00  0.00    +0.000 HD
ENDBRANCH  29  30
ENDBRANCH  28  29
ENDBRANCH  27  28
ENDBRANCH  26  27
ENDBRANCH  25  26
ENDBRANCH  24  25
ENDBRANCH   1  24
TORSDOF 8
ENDMDL
MODEL 9
REMARK VINA RESULT:      -6.6      8.657     11.685
REMARK  Name = 
REMARK  8 active torsions:
REMARK  status: ('A' for Active; 'I' for Inactive)
REMARK    1  A    between atoms: N_1  and  C_2
REMARK    2  A    between atoms: C_2  and  C_3
REMARK    3  A    between atoms: C_3  and  C_4
REMARK    4  A    between atoms: C_4  and  C_5
REMARK    5  A    between atoms: C_5  and  C_6
REMARK    6  A    between atoms: C_6  and  C_7
REMARK    7  A    between atoms: C_7  and  C_8
REMARK    8  A    between atoms: C_22  and  C_23
REMARK                            x       y       z     vdW  Elec       q    Type
REMARK                         _______ _______ _______ _____ _____    ______ ____
ROOT
ATOM      1  C   UNL     1       1.144   8.997  21.715  0.00  0.00    +0.000 C 
ATOM      2  O   UNL     1       1.389   9.530  22.795  0.00  0.00    +0.000 OA
ATOM      3  N   UNL     1       0.279   9.486  20.746  0.00  0.00    +0.000 N 
ATOM      4  C   UNL     1      -0.445  10.646  20.917  0.00  0.00    +0.000 A 
ATOM      5  N   UNL     1      -0.403  11.380  21.981  0.00  0.00    +0.000 NA
ATOM      6  C   UNL     1      -1.215  12.523  22.070  0.00  0.00    +0.000 A 
ATOM      7  C   UNL     1      -1.172  13.247  23.260  0.00  0.00    +0.000 A 
ATOM      8  C   UNL     1      -1.990  14.356  23.428  0.00  0.00    +0.000 A 
ATOM      9  C   UNL     1      -2.848  14.747  22.395  0.00  0.00    +0.000 A 
ATOM     10 CL   UNL     1      -3.875  16.105  22.631  0.00  0.00    +0.000 Cl
ATOM     11  C   UNL     1      -2.889  14.043  21.186  0.00  0.00    +0.000 A 
ATOM     12  C   UNL     1      -2.069  12.928  21.021  0.00  0.00    +0.000 A 
ATOM     13  C   UNL     1      -2.049  12.098  19.823  0.00  0.00    +0.000 A 
ATOM     14  N   UNL     1      -2.669  12.187  18.668  0.00  0.00    +0.000 NA
ATOM     15  C   UNL     1      -2.241  11.053  17.993  0.00  0.00    +0.000 A 
ATOM     16  N   UNL     1      -1.370  10.282  18.673  0.00  0.00    +0.000 NA
ATOM     17  N   UNL     1      -1.255  10.978  19.824  0.00  0.00    +0.000 N 
ATOM     18  H   UNL     1       0.142   8.976  19.883  0.00  0.00    +0.000 HD
ENDROOT
BRANCH  15  19
ATOM     19  C   UNL     1      -2.748  10.713  16.621  0.00  0.00    +0.000 A 
ATOM     20  C   UNL     1      -3.948  11.131  16.071  0.00  0.00    +0.000 A 
ATOM     21  C   UNL     1      -4.044  10.542  14.784  0.00  0.00    +0.000 A 
ATOM     22  C   UNL     1      -2.893   9.807  14.619  0.00  0.00    +0.000 A 
ATOM     23  O   UNL     1      -2.098   9.912  15.717  0.00  0.00    +0.000 OA
ENDBRANCH  15  19
BRANCH   1  24
ATOM     24  C   UNL     1       1.818   7.692  21.368  0.00  0.00    +0.000 C 
BRANCH  24  25
ATOM     25  C   UNL     1       2.028   7.555  19.868  0.00  0.00    +0.000 C 
BRANCH  25  26
ATOM     26  C   UNL     1       2.721   6.237  19.526  0.00  0.00    +0.000 C 
BRANCH  26  27
ATOM     27  C   UNL     1       2.158   5.097  20.373  0.00  0.00    +0.000 C 
BRANCH  27  28
ATOM     28  C   UNL     1       2.816   3.763  20.027  0.00  0.00    +0.000 C 
BRANCH  28  29
ATOM     29  C   UNL     1       4.051   3.973  19.152  0.00  0.00    +0.000 C 
BRANCH  29  30
ATOM     30  N   UNL     1       5.078   2.998  19.490  0.00  0.00    +0.000 NA
ATOM     31  H   UNL     1       5.846   3.071  18.823  0.00  0.00    +0.000 HD
ATOM     32  H   UNL     1       4.705   2.054  19.392  0.00  0.00    +0.000 HD
ENDBRANCH  29  30
ENDBRANCH  28  29
ENDBRANCH  27  28
ENDBRANCH  26  27
ENDBRANCH  25  26
ENDBRANCH  24  25
ENDBRANCH   1  24
TORSDOF 8
ENDMDL
