MODEL 1
REMARK VINA RESULT:      -6.4      0.000      0.000
REMARK  Name = 
REMARK  9 active torsions:
REMARK  status: ('A' for Active; 'I' for Inactive)
REMARK    1  A    between atoms: C_1  and  C_2
REMARK    2  A    between atoms: C_2  and  S_3
REMARK    3  A    between atoms: S_3  and  C_4
REMARK    4  A    between atoms: C_4  and  S_6
REMARK    5  A    between atoms: S_6  and  C_7
REMARK    6  A    between atoms: C_7  and  C_8
REMARK    7  A    between atoms: C_8  and  C_10
REMARK    8  A    between atoms: C_14  and  N_15
REMARK    9  A    between atoms: C_16  and  C_18
REMARK                            x       y       z     vdW  Elec       q    Type
REMARK                         _______ _______ _______ _____ _____    ______ ____
ROOT
ATOM      1  C   UNL     1       4.431   5.803  18.635  0.00  0.00    +0.000 A 
ATOM      2  C   UNL     1       4.546   6.304  17.334  0.00  0.00    +0.000 A 
ATOM      3  C   UNL     1       3.739   7.357  16.917  0.00  0.00    +0.000 A 
ATOM      4  C   UNL     1       2.811   7.918  17.791  0.00  0.00    +0.000 A 
ATOM      5  C   UNL     1       2.664   7.436  19.092  0.00  0.00    +0.000 A 
ATOM      6  C   UNL     1       3.492   6.385  19.515  0.00  0.00    +0.000 A 
ENDROOT
BRANCH   5   7
ATOM      7  N   UNL     1       1.744   8.000  20.014  0.00  0.00    +0.000 N 
ATOM      8  C   UNL     1       1.001   9.154  19.802  0.00  0.00    +0.000 C 
ATOM      9  O   UNL     1       0.907   9.751  18.732  0.00  0.00    +0.000 OA
ATOM     10  H   UNL     1       1.641   7.511  20.894  0.00  0.00    +0.000 HD
BRANCH   8  11
ATOM     11  C   UNL     1       0.270   9.734  20.966  0.00  0.00    +0.000 A 
ATOM     12  C   UNL     1      -0.252  11.030  20.807  0.00  0.00    +0.000 A 
ATOM     13  C   UNL     1      -0.939  11.659  21.846  0.00  0.00    +0.000 A 
ATOM     14  C   UNL     1      -1.119  10.992  23.053  0.00  0.00    +0.000 A 
ATOM     15  C   UNL     1      -0.622   9.697  23.217  0.00  0.00    +0.000 A 
ATOM     16  C   UNL     1       0.070   9.063  22.176  0.00  0.00    +0.000 A 
ENDBRANCH   8  11
ENDBRANCH   5   7
BRANCH   1  17
ATOM     17  C   UNL     1       5.280   4.662  19.122  0.00  0.00    +0.000 C 
ATOM     18  O   UNL     1       6.276   4.928  19.794  0.00  0.00    +0.000 OA
BRANCH  17  19
ATOM     19  C   UNL     1       4.911   3.241  18.700  0.00  0.00    +0.000 C 
BRANCH  19  20
ATOM     20  S   UNL     1       4.456   2.196  20.112  0.00  0.00    +0.000 S 
BRANCH  20  21
ATOM     21  C   UNL     1       2.744   2.558  20.348  0.00  0.00    +0.000 C 
ATOM     22  S   UNL     1       2.058   3.212  21.733  0.00  0.00    +0.000 S 
BRANCH  21  23
ATOM     23  S   UNL     1       1.762   1.996  18.991  0.00  0.00    +0.000 S 
BRANCH  23  25
ATOM     24  C   UNL     1       1.441   4.202  17.411  0.00  0.00    +0.000 C 
ATOM     25  C   UNL     1       0.820   3.501  18.608  0.00  0.00    +0.000 C 
ENDBRANCH  23  25
ENDBRANCH  21  23
ENDBRANCH  20  21
ENDBRANCH  19  20
ENDBRANCH  17  19
ENDBRANCH   1  17
TORSDOF 8
ENDMDL
MODEL 2
REMARK VINA RESULT:      -6.3      4.718      8.784
REMARK  Name = 
REMARK  9 active torsions:
REMARK  status: ('A' for Active; 'I' for Inactive)
REMARK    1  A    between atoms: C_1  and  C_2
REMARK    2  A    between atoms: C_2  and  S_3
REMARK    3  A    between atoms: S_3  and  C_4
REMARK    4  A    between atoms: C_4  and  S_6
REMARK    5  A    between atoms: S_6  and  C_7
REMARK    6  A    between atoms: C_7  and  C_8
REMARK    7  A    between atoms: C_8  and  C_10
REMARK    8  A    between atoms: C_14  and  N_15
REMARK    9  A    between atoms: C_16  and  C_18
REMARK                            x       y       z     vdW  Elec       q    Type
REMARK                         _______ _______ _______ _____ _____    ______ ____
ROOT
ATOM      1  C   UNL     1       5.053   5.244  18.708  0.00  0.00    +0.000 A 
ATOM      2  C   UNL     1       6.290   5.564  19.277  0.00  0.00    +0.000 A 
ATOM      3  C   UNL     1       7.468   5.256  18.606  0.00  0.00    +0.000 A 
ATOM      4  C   UNL     1       7.424   4.625  17.365  0.00  0.00    +0.000 A 
ATOM      5  C   UNL     1       6.208   4.285  16.773  0.00  0.00    +0.000 A 
ATOM      6  C   UNL     1       5.021   4.612  17.444  0.00  0.00    +0.000 A 
ENDROOT
BRANCH   5   7
ATOM      7  N   UNL     1       6.128   3.662  15.499  0.00  0.00    +0.000 N 
ATOM      8  C   UNL     1       6.422   4.275  14.288  0.00  0.00    +0.000 C 
ATOM      9  O   UNL     1       6.949   5.377  14.159  0.00  0.00    +0.000 OA
ATOM     10  H   UNL     1       5.824   2.697  15.495  0.00  0.00    +0.000 HD
BRANCH   8  11
ATOM     11  C   UNL     1       6.053   3.551  13.036  0.00  0.00    +0.000 A 
ATOM     12  C   UNL     1       4.732   3.708  12.579  0.00  0.00    +0.000 A 
ATOM     13  C   UNL     1       4.292   3.060  11.424  0.00  0.00    +0.000 A 
ATOM     14  C   UNL     1       5.173   2.254  10.710  0.00  0.00    +0.000 A 
ATOM     15  C   UNL     1       6.492   2.106  11.145  0.00  0.00    +0.000 A 
ATOM     16  C   UNL     1       6.937   2.755  12.304  0.00  0.00    +0.000 A 
ENDBRANCH   8  11
ENDBRANCH   5   7
BRANCH   1  17
ATOM     17  C   UNL     1       3.757   5.555  19.403  0.00  0.00    +0.000 C 
ATOM     18  O   UNL     1       3.387   4.800  20.302  0.00  0.00    +0.000 OA
BRANCH  17  19
ATOM     19  C   UNL     1       2.929   6.742  18.913  0.00  0.00    +0.000 C 
BRANCH  19  20
ATOM     20  S   UNL     1       1.910   7.464  20.229  0.00  0.00    +0.000 S 
BRANCH  20  21
ATOM     21  C   UNL     1       1.370   8.993  19.530  0.00  0.00    +0.000 C 
ATOM     22  S   UNL     1       1.539   9.456  17.926  0.00  0.00    +0.000 S 
BRANCH  21  23
ATOM     23  S   UNL     1       0.752  10.096  20.764  0.00  0.00    +0.000 S 
BRANCH  23  25
ATOM     24  C   UNL     1      -0.394   9.602  23.195  0.00  0.00    +0.000 C 
ATOM     25  C   UNL     1      -0.106   8.931  21.862  0.00  0.00    +0.000 C 
ENDBRANCH  23  25
ENDBRANCH  21  23
ENDBRANCH  20  21
ENDBRANCH  19  20
ENDBRANCH  17  19
ENDBRANCH   1  17
TORSDOF 8
ENDMDL
MODEL 3
REMARK VINA RESULT:      -6.3      4.428      6.944
REMARK  Name = 
REMARK  9 active torsions:
REMARK  status: ('A' for Active; 'I' for Inactive)
REMARK    1  A    between atoms: C_1  and  C_2
REMARK    2  A    between atoms: C_2  and  S_3
REMARK    3  A    between atoms: S_3  and  C_4
REMARK    4  A    between atoms: C_4  and  S_6
REMARK    5  A    between atoms: S_6  and  C_7
REMARK    6  A    between atoms: C_7  and  C_8
REMARK    7  A    between atoms: C_8  and  C_10
REMARK    8  A    between atoms: C_14  and  N_15
REMARK    9  A    between atoms: C_16  and  C_18
REMARK                            x       y       z     vdW  Elec       q    Type
REMARK                         _______ _______ _______ _____ _____    ______ ____
ROOT
ATOM      1  C   UNL     1       4.306   5.379  17.263  0.00  0.00    +0.000 A 
ATOM      2  C   UNL     1       4.873   4.311  16.560  0.00  0.00    +0.000 A 
ATOM      3  C   UNL     1       6.155   4.423  16.033  0.00  0.00    +0.000 A 
ATOM      4  C   UNL     1       6.882   5.599  16.202  0.00  0.00    +0.000 A 
ATOM      5  C   UNL     1       6.343   6.686  16.891  0.00  0.00    +0.000 A 
ATOM      6  C   UNL     1       5.056   6.564  17.435  0.00  0.00    +0.000 A 
ENDROOT
BRANCH   5   7
ATOM      7  N   UNL     1       7.067   7.890  17.100  0.00  0.00    +0.000 N 
ATOM      8  C   UNL     1       7.999   8.101  18.108  0.00  0.00    +0.000 C 
ATOM      9  O   UNL     1       8.450   7.232  18.849  0.00  0.00    +0.000 OA
ATOM     10  H   UNL     1       6.867   8.645  16.457  0.00  0.00    +0.000 HD
BRANCH   8  11
ATOM     11  C   UNL     1       8.481   9.495  18.327  0.00  0.00    +0.000 A 
ATOM     12  C   UNL     1       9.314   9.712  19.440  0.00  0.00    +0.000 A 
ATOM     13  C   UNL     1       9.802  10.986  19.732  0.00  0.00    +0.000 A 
ATOM     14  C   UNL     1       9.468  12.056  18.908  0.00  0.00    +0.000 A 
ATOM     15  C   UNL     1       8.657  11.850  17.791  0.00  0.00    +0.000 A 
ATOM     16  C   UNL     1       8.164  10.572  17.494  0.00  0.00    +0.000 A 
ENDBRANCH   8  11
ENDBRANCH   5   7
BRANCH   1  17
ATOM     17  C   UNL     1       2.921   5.300  17.842  0.00  0.00    +0.000 C 
ATOM     18  O   UNL     1       2.369   4.200  17.874  0.00  0.00    +0.000 OA
BRANCH  17  19
ATOM     19  C   UNL     1       2.239   6.592  18.291  0.00  0.00    +0.000 C 
BRANCH  19  20
ATOM     20  S   UNL     1       2.218   6.771  20.096  0.00  0.00    +0.000 S 
BRANCH  20  21
ATOM     21  C   UNL     1       1.548   8.387  20.335  0.00  0.00    +0.000 C 
ATOM     22  S   UNL     1       1.018   9.028  21.792  0.00  0.00    +0.000 S 
BRANCH  21  23
ATOM     23  S   UNL     1       1.333   9.239  18.802  0.00  0.00    +0.000 S 
BRANCH  23  25
ATOM     24  C   UNL     1       0.204  11.713  19.075  0.00  0.00    +0.000 C 
ATOM     25  C   UNL     1      -0.140  10.236  19.171  0.00  0.00    +0.000 C 
ENDBRANCH  23  25
ENDBRANCH  21  23
ENDBRANCH  20  21
ENDBRANCH  19  20
ENDBRANCH  17  19
ENDBRANCH   1  17
TORSDOF 8
ENDMDL
MODEL 4
REMARK VINA RESULT:      -6.3      4.658      8.923
REMARK  Name = 
REMARK  9 active torsions:
REMARK  status: ('A' for Active; 'I' for Inactive)
REMARK    1  A    between atoms: C_1  and  C_2
REMARK    2  A    between atoms: C_2  and  S_3
REMARK    3  A    between atoms: S_3  and  C_4
REMARK    4  A    between atoms: C_4  and  S_6
REMARK    5  A    between atoms: S_6  and  C_7
REMARK    6  A    between atoms: C_7  and  C_8
REMARK    7  A    between atoms: C_8  and  C_10
REMARK    8  A    between atoms: C_14  and  N_15
REMARK    9  A    between atoms: C_16  and  C_18
REMARK                            x       y       z     vdW  Elec       q    Type
REMARK                         _______ _______ _______ _____ _____    ______ ____
ROOT
ATOM      1  C   UNL     1       2.662   7.124  18.607  0.00  0.00    +0.000 A 
ATOM      2  C   UNL     1       2.572   6.383  19.790  0.00  0.00    +0.000 A 
ATOM      3  C   UNL     1       3.161   5.126  19.874  0.00  0.00    +0.000 A 
ATOM      4  C   UNL     1       3.844   4.597  18.781  0.00  0.00    +0.000 A 
ATOM      5  C   UNL     1       3.945   5.305  17.584  0.00  0.00    +0.000 A 
ATOM      6  C   UNL     1       3.364   6.580  17.508  0.00  0.00    +0.000 A 
ENDROOT
BRANCH   5   7
ATOM      7  N   UNL     1       4.653   4.804  16.460  0.00  0.00    +0.000 N 
ATOM      8  C   UNL     1       5.656   5.481  15.777  0.00  0.00    +0.000 C 
ATOM      9  O   UNL     1       6.185   6.526  16.146  0.00  0.00    +0.000 OA
ATOM     10  H   UNL     1       4.386   3.882  16.142  0.00  0.00    +0.000 HD
BRANCH   8  11
ATOM     11  C   UNL     1       6.119   4.909  14.479  0.00  0.00    +0.000 A 
ATOM     12  C   UNL     1       7.339   5.392  13.972  0.00  0.00    +0.000 A 
ATOM     13  C   UNL     1       7.846   4.925  12.758  0.00  0.00    +0.000 A 
ATOM     14  C   UNL     1       7.139   3.963  12.043  0.00  0.00    +0.000 A 
ATOM     15  C   UNL     1       5.937   3.463  12.546  0.00  0.00    +0.000 A 
ATOM     16  C   UNL     1       5.425   3.930  13.764  0.00  0.00    +0.000 A 
ENDBRANCH   8  11
ENDBRANCH   5   7
BRANCH   1  17
ATOM     17  C   UNL     1       2.034   8.482  18.473  0.00  0.00    +0.000 C 
ATOM     18  O   UNL     1       2.150   9.070  17.398  0.00  0.00    +0.000 OA
BRANCH  17  19
ATOM     19  C   UNL     1       1.350   9.097  19.693  0.00  0.00    +0.000 C 
BRANCH  19  20
ATOM     20  S   UNL     1       0.086  10.316  19.237  0.00  0.00    +0.000 S 
BRANCH  20  21
ATOM     21  C   UNL     1       0.768  11.840  19.812  0.00  0.00    +0.000 C 
ATOM     22  S   UNL     1       0.241  12.714  21.143  0.00  0.00    +0.000 S 
BRANCH  21  23
ATOM     23  S   UNL     1       2.006  12.459  18.714  0.00  0.00    +0.000 S 
BRANCH  23  25
ATOM     24  C   UNL     1       2.550  15.133  18.854  0.00  0.00    +0.000 C 
ATOM     25  C   UNL     1       2.645  13.860  19.678  0.00  0.00    +0.000 C 
ENDBRANCH  23  25
ENDBRANCH  21  23
ENDBRANCH  20  21
ENDBRANCH  19  20
ENDBRANCH  17  19
ENDBRANCH   1  17
TORSDOF 8
ENDMDL
MODEL 5
REMARK VINA RESULT:      -6.3      2.158      3.597
REMARK  Name = 
REMARK  9 active torsions:
REMARK  status: ('A' for Active; 'I' for Inactive)
REMARK    1  A    between atoms: C_1  and  C_2
REMARK    2  A    between atoms: C_2  and  S_3
REMARK    3  A    between atoms: S_3  and  C_4
REMARK    4  A    between atoms: C_4  and  S_6
REMARK    5  A    between atoms: S_6  and  C_7
REMARK    6  A    between atoms: C_7  and  C_8
REMARK    7  A    between atoms: C_8  and  C_10
REMARK    8  A    between atoms: C_14  and  N_15
REMARK    9  A    between atoms: C_16  and  C_18
REMARK                            x       y       z     vdW  Elec       q    Type
REMARK                         _______ _______ _______ _____ _____    ______ ____
ROOT
ATOM      1  C   UNL     1       2.289   6.517  19.434  0.00  0.00    +0.000 A 
ATOM      2  C   UNL     1       2.862   6.862  18.205  0.00  0.00    +0.000 A 
ATOM      3  C   UNL     1       2.710   8.149  17.700  0.00  0.00    +0.000 A 
ATOM      4  C   UNL     1       1.986   9.101  18.414  0.00  0.00    +0.000 A 
ATOM      5  C   UNL     1       1.395   8.788  19.638  0.00  0.00    +0.000 A 
ATOM      6  C   UNL     1       1.564   7.494  20.153  0.00  0.00    +0.000 A 
ENDROOT
BRANCH   5   7
ATOM      7  N   UNL     1       0.670   9.741  20.401  0.00  0.00    +0.000 N 
ATOM      8  C   UNL     1      -0.508  10.358  20.002  0.00  0.00    +0.000 C 
ATOM      9  O   UNL     1      -1.175  10.046  19.019  0.00  0.00    +0.000 OA
ATOM     10  H   UNL     1       1.065   9.983  21.301  0.00  0.00    +0.000 HD
BRANCH   8  11
ATOM     11  C   UNL     1      -1.001  11.507  20.817  0.00  0.00    +0.000 A 
ATOM     12  C   UNL     1      -0.803  11.430  22.208  0.00  0.00    +0.000 A 
ATOM     13  C   UNL     1      -1.242  12.452  23.051  0.00  0.00    +0.000 A 
ATOM     14  C   UNL     1      -1.877  13.565  22.509  0.00  0.00    +0.000 A 
ATOM     15  C   UNL     1      -2.062  13.660  21.129  0.00  0.00    +0.000 A 
ATOM     16  C   UNL     1      -1.623  12.636  20.279  0.00  0.00    +0.000 A 
ENDBRANCH   8  11
ENDBRANCH   5   7
BRANCH   1  17
ATOM     17  C   UNL     1       2.426   5.136  20.011  0.00  0.00    +0.000 C 
ATOM     18  O   UNL     1       2.417   5.017  21.237  0.00  0.00    +0.000 OA
BRANCH  17  19
ATOM     19  C   UNL     1       2.642   3.961  19.059  0.00  0.00    +0.000 C 
BRANCH  19  20
ATOM     20  S   UNL     1       4.300   3.242  19.212  0.00  0.00    +0.000 S 
BRANCH  20  21
ATOM     21  C   UNL     1       5.281   4.258  18.153  0.00  0.00    +0.000 C 
ATOM     22  S   UNL     1       5.349   4.158  16.479  0.00  0.00    +0.000 S 
BRANCH  21  23
ATOM     23  S   UNL     1       6.347   5.327  19.072  0.00  0.00    +0.000 S 
BRANCH  23  25
ATOM     24  C   UNL     1       7.432   7.332  17.567  0.00  0.00    +0.000 C 
ATOM     25  C   UNL     1       7.520   5.830  17.780  0.00  0.00    +0.000 C 
ENDBRANCH  23  25
ENDBRANCH  21  23
ENDBRANCH  20  21
ENDBRANCH  19  20
ENDBRANCH  17  19
ENDBRANCH   1  17
TORSDOF 8
ENDMDL
MODEL 6
REMARK VINA RESULT:      -6.2      5.209      7.156
REMARK  Name = 
REMARK  9 active torsions:
REMARK  status: ('A' for Active; 'I' for Inactive)
REMARK    1  A    between atoms: C_1  and  C_2
REMARK    2  A    between atoms: C_2  and  S_3
REMARK    3  A    between atoms: S_3  and  C_4
REMARK    4  A    between atoms: C_4  and  S_6
REMARK    5  A    between atoms: S_6  and  C_7
REMARK    6  A    between atoms: C_7  and  C_8
REMARK    7  A    between atoms: C_8  and  C_10
REMARK    8  A    between atoms: C_14  and  N_15
REMARK    9  A    between atoms: C_16  and  C_18
REMARK                            x       y       z     vdW  Elec       q    Type
REMARK                         _______ _______ _______ _____ _____    ______ ____
ROOT
ATOM      1  C   UNL     1       6.102   6.484  17.541  0.00  0.00    +0.000 A 
ATOM      2  C   UNL     1       6.633   5.606  18.492  0.00  0.00    +0.000 A 
ATOM      3  C   UNL     1       7.797   5.938  19.176  0.00  0.00    +0.000 A 
ATOM      4  C   UNL     1       8.443   7.145  18.918  0.00  0.00    +0.000 A 
ATOM      5  C   UNL     1       7.944   8.039  17.971  0.00  0.00    +0.000 A 
ATOM      6  C   UNL     1       6.760   7.710  17.295  0.00  0.00    +0.000 A 
ENDROOT
BRANCH   5   7
ATOM      7  N   UNL     1       8.564   9.288  17.701  0.00  0.00    +0.000 N 
ATOM      8  C   UNL     1       9.079  10.151  18.659  0.00  0.00    +0.000 C 
ATOM      9  O   UNL     1       9.221   9.886  19.850  0.00  0.00    +0.000 OA
ATOM     10  H   UNL     1       8.620   9.554  16.726  0.00  0.00    +0.000 HD
BRANCH   8  11
ATOM     11  C   UNL     1       9.473  11.522  18.219  0.00  0.00    +0.000 A 
ATOM     12  C   UNL     1      10.775  11.675  17.710  0.00  0.00    +0.000 A 
ATOM     13  C   UNL     1      11.237  12.922  17.286  0.00  0.00    +0.000 A 
ATOM     14  C   UNL     1      10.396  14.027  17.360  0.00  0.00    +0.000 A 
ATOM     15  C   UNL     1       9.095  13.884  17.846  0.00  0.00    +0.000 A 
ATOM     16  C   UNL     1       8.628  12.633  18.273  0.00  0.00    +0.000 A 
ENDBRANCH   8  11
ENDBRANCH   5   7
BRANCH   1  17
ATOM     17  C   UNL     1       4.849   6.160  16.777  0.00  0.00    +0.000 C 
ATOM     18  O   UNL     1       4.967   5.682  15.648  0.00  0.00    +0.000 OA
BRANCH  17  19
ATOM     19  C   UNL     1       3.498   6.505  17.402  0.00  0.00    +0.000 C 
BRANCH  19  20
ATOM     20  S   UNL     1       3.324   5.843  19.082  0.00  0.00    +0.000 S 
BRANCH  20  21
ATOM     21  C   UNL     1       2.897   4.152  18.809  0.00  0.00    +0.000 C 
ATOM     22  S   UNL     1       3.855   3.007  18.043  0.00  0.00    +0.000 S 
BRANCH  21  23
ATOM     23  S   UNL     1       1.234   3.809  19.297  0.00  0.00    +0.000 S 
BRANCH  23  25
ATOM     24  C   UNL     1       2.037   3.049  21.796  0.00  0.00    +0.000 C 
ATOM     25  C   UNL     1       1.502   2.471  20.496  0.00  0.00    +0.000 C 
ENDBRANCH  23  25
ENDBRANCH  21  23
ENDBRANCH  20  21
ENDBRANCH  19  20
ENDBRANCH  17  19
ENDBRANCH   1  17
TORSDOF 8
ENDMDL
MODEL 7
REMARK VINA RESULT:      -6.2      4.380      8.555
REMARK  Name = 
REMARK  9 active torsions:
REMARK  status: ('A' for Active; 'I' for Inactive)
REMARK    1  A    between atoms: C_1  and  C_2
REMARK    2  A    between atoms: C_2  and  S_3
REMARK    3  A    between atoms: S_3  and  C_4
REMARK    4  A    between atoms: C_4  and  S_6
REMARK    5  A    between atoms: S_6  and  C_7
REMARK    6  A    between atoms: C_7  and  C_8
REMARK    7  A    between atoms: C_8  and  C_10
REMARK    8  A    between atoms: C_14  and  N_15
REMARK    9  A    between atoms: C_16  and  C_18
REMARK                            x       y       z     vdW  Elec       q    Type
REMARK                         _______ _______ _______ _____ _____    ______ ____
ROOT
ATOM      1  C   UNL     1       2.839   5.609  19.103  0.00  0.00    +0.000 A 
ATOM      2  C   UNL     1       2.615   4.501  19.928  0.00  0.00    +0.000 A 
ATOM      3  C   UNL     1       3.055   3.240  19.539  0.00  0.00    +0.000 A 
ATOM      4  C   UNL     1       3.719   3.072  18.326  0.00  0.00    +0.000 A 
ATOM      5  C   UNL     1       3.951   4.153  17.477  0.00  0.00    +0.000 A 
ATOM      6  C   UNL     1       3.522   5.427  17.879  0.00  0.00    +0.000 A 
ENDROOT
BRANCH   5   7
ATOM      7  N   UNL     1       4.645   4.020  16.245  0.00  0.00    +0.000 N 
ATOM      8  C   UNL     1       5.945   4.445  16.007  0.00  0.00    +0.000 C 
ATOM      9  O   UNL     1       6.731   4.841  16.865  0.00  0.00    +0.000 OA
ATOM     10  H   UNL     1       4.131   3.583  15.491  0.00  0.00    +0.000 HD
BRANCH   8  11
ATOM     11  C   UNL     1       6.429   4.445  14.595  0.00  0.00    +0.000 A 
ATOM     12  C   UNL     1       5.813   3.539  13.713  0.00  0.00    +0.000 A 
ATOM     13  C   UNL     1       6.208   3.460  12.377  0.00  0.00    +0.000 A 
ATOM     14  C   UNL     1       7.219   4.292  11.909  0.00  0.00    +0.000 A 
ATOM     15  C   UNL     1       7.825   5.209  12.770  0.00  0.00    +0.000 A 
ATOM     16  C   UNL     1       7.431   5.291  14.113  0.00  0.00    +0.000 A 
ENDBRANCH   8  11
ENDBRANCH   5   7
BRANCH   1  17
ATOM     17  C   UNL     1       2.375   6.987  19.483  0.00  0.00    +0.000 C 
ATOM     18  O   UNL     1       1.702   7.109  20.507  0.00  0.00    +0.000 OA
BRANCH  17  19
ATOM     19  C   UNL     1       2.694   8.152  18.548  0.00  0.00    +0.000 C 
BRANCH  19  20
ATOM     20  S   UNL     1       1.207   8.847  17.776  0.00  0.00    +0.000 S 
BRANCH  20  21
ATOM     21  C   UNL     1       1.042  10.421  18.558  0.00  0.00    +0.000 C 
ATOM     22  S   UNL     1       2.105  11.711  18.409  0.00  0.00    +0.000 S 
BRANCH  21  23
ATOM     23  S   UNL     1      -0.320  10.454  19.684  0.00  0.00    +0.000 S 
BRANCH  23  25
ATOM     24  C   UNL     1      -2.119  11.773  18.106  0.00  0.00    +0.000 C 
ATOM     25  C   UNL     1      -1.718  10.369  18.528  0.00  0.00    +0.000 C 
ENDBRANCH  23  25
ENDBRANCH  21  23
ENDBRANCH  20  21
ENDBRANCH  19  20
ENDBRANCH  17  19
ENDBRANCH   1  17
TORSDOF 8
ENDMDL
MODEL 8
REMARK VINA RESULT:      -6.2      4.487      8.739
REMARK  Name = 
REMARK  9 active torsions:
REMARK  status: ('A' for Active; 'I' for Inactive)
REMARK    1  A    between atoms: C_1  and  C_2
REMARK    2  A    between atoms: C_2  and  S_3
REMARK    3  A    between atoms: S_3  and  C_4
REMARK    4  A    between atoms: C_4  and  S_6
REMARK    5  A    between atoms: S_6  and  C_7
REMARK    6  A    between atoms: C_7  and  C_8
REMARK    7  A    between atoms: C_8  and  C_10
REMARK    8  A    between atoms: C_14  and  N_15
REMARK    9  A    between atoms: C_16  and  C_18
REMARK                            x       y       z     vdW  Elec       q    Type
REMARK                         _______ _______ _______ _____ _____    ______ ____
ROOT
ATOM      1  C   UNL     1       2.454   6.501  19.276  0.00  0.00    +0.000 A 
ATOM      2  C   UNL     1       2.258   5.531  20.265  0.00  0.00    +0.000 A 
ATOM      3  C   UNL     1       2.674   4.222  20.051  0.00  0.00    +0.000 A 
ATOM      4  C   UNL     1       3.287   3.868  18.851  0.00  0.00    +0.000 A 
ATOM      5  C   UNL     1       3.491   4.808  17.842  0.00  0.00    +0.000 A 
ATOM      6  C   UNL     1       3.085   6.132  18.067  0.00  0.00    +0.000 A 
ENDROOT
BRANCH   5   7
ATOM      7  N   UNL     1       4.133   4.485  16.617  0.00  0.00    +0.000 N 
ATOM      8  C   UNL     1       5.500   4.558  16.386  0.00  0.00    +0.000 C 
ATOM      9  O   UNL     1       6.357   4.746  17.246  0.00  0.00    +0.000 OA
ATOM     10  H   UNL     1       3.527   4.187  15.863  0.00  0.00    +0.000 HD
BRANCH   8  11
ATOM     11  C   UNL     1       5.975   4.416  14.978  0.00  0.00    +0.000 A 
ATOM     12  C   UNL     1       7.148   5.110  14.631  0.00  0.00    +0.000 A 
ATOM     13  C   UNL     1       7.660   5.047  13.334  0.00  0.00    +0.000 A 
ATOM     14  C   UNL     1       7.007   4.282  12.373  0.00  0.00    +0.000 A 
ATOM     15  C   UNL     1       5.852   3.574  12.711  0.00  0.00    +0.000 A 
ATOM     16  C   UNL     1       5.334   3.635  14.012  0.00  0.00    +0.000 A 
ENDBRANCH   8  11
ENDBRANCH   5   7
BRANCH   1  17
ATOM     17  C   UNL     1       2.013   7.926  19.465  0.00  0.00    +0.000 C 
ATOM     18  O   UNL     1       1.557   8.249  20.561  0.00  0.00    +0.000 OA
BRANCH  17  19
ATOM     19  C   UNL     1       2.081   8.879  18.273  0.00  0.00    +0.000 C 
BRANCH  19  20
ATOM     20  S   UNL     1       0.646   9.985  18.188  0.00  0.00    +0.000 S 
BRANCH  20  21
ATOM     21  C   UNL     1       1.159  11.387  19.130  0.00  0.00    +0.000 C 
ATOM     22  S   UNL     1       0.545  11.850  20.621  0.00  0.00    +0.000 S 
BRANCH  21  23
ATOM     23  S   UNL     1       2.318  12.384  18.244  0.00  0.00    +0.000 S 
BRANCH  23  25
ATOM     24  C   UNL     1       1.974  15.004  18.938  0.00  0.00    +0.000 C 
ATOM     25  C   UNL     1       2.606  13.717  19.442  0.00  0.00    +0.000 C 
ENDBRANCH  23  25
ENDBRANCH  21  23
ENDBRANCH  20  21
ENDBRANCH  19  20
ENDBRANCH  17  19
ENDBRANCH   1  17
TORSDOF 8
ENDMDL
MODEL 9
REMARK VINA RESULT:      -6.2      3.986      8.414
REMARK  Name = 
REMARK  9 active torsions:
REMARK  status: ('A' for Active; 'I' for Inactive)
REMARK    1  A    between atoms: C_1  and  C_2
REMARK    2  A    between atoms: C_2  and  S_3
REMARK    3  A    between atoms: S_3  and  C_4
REMARK    4  A    between atoms: C_4  and  S_6
REMARK    5  A    between atoms: S_6  and  C_7
REMARK    6  A    between atoms: C_7  and  C_8
REMARK    7  A    between atoms: C_8  and  C_10
REMARK    8  A    between atoms: C_14  and  N_15
REMARK    9  A    between atoms: C_16  and  C_18
REMARK                            x       y       z     vdW  Elec       q    Type
REMARK                         _______ _______ _______ _____ _____    ______ ____
ROOT
ATOM      1  C   UNL     1       2.490   6.298  19.349  0.00  0.00    +0.000 A 
ATOM      2  C   UNL     1       2.326   5.313  20.329  0.00  0.00    +0.000 A 
ATOM      3  C   UNL     1       2.773   4.016  20.098  0.00  0.00    +0.000 A 
ATOM      4  C   UNL     1       3.384   3.690  18.890  0.00  0.00    +0.000 A 
ATOM      5  C   UNL     1       3.556   4.646  17.889  0.00  0.00    +0.000 A 
ATOM      6  C   UNL     1       3.120   5.957  18.131  0.00  0.00    +0.000 A 
ENDROOT
BRANCH   5   7
ATOM      7  N   UNL     1       4.196   4.351  16.656  0.00  0.00    +0.000 N 
ATOM      8  C   UNL     1       5.553   4.496  16.402  0.00  0.00    +0.000 C 
ATOM      9  O   UNL     1       6.411   4.736  17.247  0.00  0.00    +0.000 OA
ATOM     10  H   UNL     1       3.595   4.017  15.913  0.00  0.00    +0.000 HD
BRANCH   8  11
ATOM     11  C   UNL     1       6.013   4.373  14.988  0.00  0.00    +0.000 A 
ATOM     12  C   UNL     1       7.188   5.063  14.639  0.00  0.00    +0.000 A 
ATOM     13  C   UNL     1       7.687   5.016  13.337  0.00  0.00    +0.000 A 
ATOM     14  C   UNL     1       7.017   4.272  12.371  0.00  0.00    +0.000 A 
ATOM     15  C   UNL     1       5.860   3.569  12.709  0.00  0.00    +0.000 A 
ATOM     16  C   UNL     1       5.356   3.613  14.016  0.00  0.00    +0.000 A 
ENDBRANCH   8  11
ENDBRANCH   5   7
BRANCH   1  17
ATOM     17  C   UNL     1       2.016   7.708  19.557  0.00  0.00    +0.000 C 
ATOM     18  O   UNL     1       2.001   8.463  18.585  0.00  0.00    +0.000 OA
BRANCH  17  19
ATOM     19  C   UNL     1       1.648   8.157  20.971  0.00  0.00    +0.000 C 
BRANCH  19  20
ATOM     20  S   UNL     1      -0.139   8.388  21.180  0.00  0.00    +0.000 S 
BRANCH  20  21
ATOM     21  C   UNL     1      -0.284  10.108  21.552  0.00  0.00    +0.000 C 
ATOM     22  S   UNL     1      -0.902  10.761  22.968  0.00  0.00    +0.000 S 
BRANCH  21  23
ATOM     23  S   UNL     1       0.156  11.116  20.169  0.00  0.00    +0.000 S 
BRANCH  23  25
ATOM     24  C   UNL     1      -1.956  11.826  18.587  0.00  0.00    +0.000 C 
ATOM     25  C   UNL     1      -1.364  12.090  19.961  0.00  0.00    +0.000 C 
ENDBRANCH  23  25
ENDBRANCH  21  23
ENDBRANCH  20  21
ENDBRANCH  19  20
ENDBRANCH  17  19
ENDBRANCH   1  17
TORSDOF 8
ENDMDL
