MODEL 1
REMARK VINA RESULT:      -7.9      0.000      0.000
REMARK  Name = 
REMARK  5 active torsions:
REMARK  status: ('A' for Active; 'I' for Inactive)
REMARK    1  A    between atoms: C_8  and  C_9
REMARK    2  A    between atoms: C_9  and  S_10
REMARK    3  A    between atoms: S_10  and  C_11
REMARK    4  A    between atoms: C_11  and  N_13
REMARK    5  A    between atoms: N_16  and  C_17
REMARK                            x       y       z     vdW  Elec       q    Type
REMARK                         _______ _______ _______ _____ _____    ______ ____
ROOT
ATOM      1  C   UNL     1       4.535   3.018  17.045  0.00  0.00    +0.000 C 
ENDROOT
BRANCH   1   9
ATOM      2  N   UNL     1       8.761   9.514  17.938  0.00  0.00    +0.000 N 
ATOM      3  C   UNL     1       8.099   8.305  18.012  0.00  0.00    +0.000 A 
ATOM      4  N   UNL     1       8.482   7.450  18.961  0.00  0.00    +0.000 NA
ATOM      5  C   UNL     1       7.859   6.265  18.992  0.00  0.00    +0.000 A 
ATOM      6  N   UNL     1       8.278   5.404  20.015  0.00  0.00    +0.000 N 
ATOM      7  C   UNL     1       6.839   5.910  18.103  0.00  0.00    +0.000 A 
ATOM      8  C   UNL     1       6.173   4.656  18.070  0.00  0.00    +0.000 A 
ATOM      9  C   UNL     1       5.178   4.385  17.120  0.00  0.00    +0.000 A 
ATOM     10  C   UNL     1       4.811   5.408  16.242  0.00  0.00    +0.000 A 
ATOM     11  C   UNL     1       5.469   6.643  16.285  0.00  0.00    +0.000 A 
ATOM     12  C   UNL     1       6.495   6.907  17.186  0.00  0.00    +0.000 A 
ATOM     13  N   UNL     1       7.112   8.092  17.142  0.00  0.00    +0.000 NA
ATOM     14  H   UNL     1       9.165   9.739  18.835  0.00  0.00    +0.000 HD
ATOM     15  H   UNL     1       8.159  10.204  17.508  0.00  0.00    +0.000 HD
ATOM     16  H   UNL     1       9.053   5.862  20.489  0.00  0.00    +0.000 HD
ATOM     17  H   UNL     1       8.544   4.495  19.657  0.00  0.00    +0.000 HD
ENDBRANCH   1   9
BRANCH   1  18
ATOM     18  S   UNL     1       2.783   3.067  17.494  0.00  0.00    +0.000 S 
BRANCH  18  19
ATOM     19  C   UNL     1       2.788   3.668  19.165  0.00  0.00    +0.000 C 
ATOM     20  S   UNL     1       3.358   2.727  20.443  0.00  0.00    +0.000 S 
BRANCH  19  21
ATOM     21  N   UNL     1       2.301   4.978  19.317  0.00  0.00    +0.000 N 
ATOM     22  C   UNL     1       1.490   5.417  20.476  0.00  0.00    +0.000 C 
ATOM     23  C   UNL     1       1.853   6.839  20.935  0.00  0.00    +0.000 C 
ATOM     24  N   UNL     1       1.716   7.757  19.797  0.00  0.00    +0.000 N 
ATOM     25  C   UNL     1       2.531   7.390  18.626  0.00  0.00    +0.000 C 
ATOM     26  C   UNL     1       2.222   5.941  18.188  0.00  0.00    +0.000 C 
BRANCH  24  27
ATOM     27  C   UNL     1       1.134   9.002  19.927  0.00  0.00    +0.000 A 
ATOM     28  C   UNL     1       0.787   9.788  18.816  0.00  0.00    +0.000 A 
ATOM     29  C   UNL     1       0.269  11.082  18.955  0.00  0.00    +0.000 A 
ATOM     30  C   UNL     1       0.084  11.617  20.224  0.00  0.00    +0.000 A 
ATOM     31 CL   UNL     1      -0.533  13.212  20.403  0.00  0.00    +0.000 Cl
ATOM     32  C   UNL     1       0.404  10.865  21.346  0.00  0.00    +0.000 A 
ATOM     33  C   UNL     1       0.921   9.572  21.193  0.00  0.00    +0.000 A 
ENDBRANCH  24  27
ENDBRANCH  19  21
ENDBRANCH  18  19
ENDBRANCH   1  18
TORSDOF 5
ENDMDL
MODEL 2
REMARK VINA RESULT:      -7.6      4.477      6.495
REMARK  Name = 
REMARK  5 active torsions:
REMARK  status: ('A' for Active; 'I' for Inactive)
REMARK    1  A    between atoms: C_8  and  C_9
REMARK    2  A    between atoms: C_9  and  S_10
REMARK    3  A    between atoms: S_10  and  C_11
REMARK    4  A    between atoms: C_11  and  N_13
REMARK    5  A    between atoms: N_16  and  C_17
REMARK                            x       y       z     vdW  Elec       q    Type
REMARK                         _______ _______ _______ _____ _____    ______ ____
ROOT
ATOM      1  C   UNL     1       2.224   9.324  17.846  0.00  0.00    +0.000 C 
ENDROOT
BRANCH   1   9
ATOM      2  N   UNL     1       4.998   2.247  19.598  0.00  0.00    +0.000 N 
ATOM      3  C   UNL     1       4.585   3.445  19.052  0.00  0.00    +0.000 A 
ATOM      4  N   UNL     1       5.053   3.766  17.846  0.00  0.00    +0.000 NA
ATOM      5  C   UNL     1       4.677   4.951  17.348  0.00  0.00    +0.000 A 
ATOM      6  N   UNL     1       5.175   5.241  16.072  0.00  0.00    +0.000 N 
ATOM      7  C   UNL     1       3.820   5.829  18.022  0.00  0.00    +0.000 A 
ATOM      8  C   UNL     1       3.420   7.110  17.556  0.00  0.00    +0.000 A 
ATOM      9  C   UNL     1       2.576   7.931  18.317  0.00  0.00    +0.000 A 
ATOM     10  C   UNL     1       2.085   7.428  19.524  0.00  0.00    +0.000 A 
ATOM     11  C   UNL     1       2.481   6.162  19.974  0.00  0.00    +0.000 A 
ATOM     12  C   UNL     1       3.359   5.360  19.254  0.00  0.00    +0.000 A 
ATOM     13  N   UNL     1       3.731   4.181  19.764  0.00  0.00    +0.000 NA
ATOM     14  H   UNL     1       5.278   1.613  18.864  0.00  0.00    +0.000 HD
ATOM     15  H   UNL     1       4.308   1.920  20.262  0.00  0.00    +0.000 HD
ATOM     16  H   UNL     1       5.804   4.482  15.820  0.00  0.00    +0.000 HD
ATOM     17  H   UNL     1       5.643   6.139  16.045  0.00  0.00    +0.000 HD
ENDBRANCH   1   9
BRANCH   1  18
ATOM     18  S   UNL     1       0.480   9.714  18.126  0.00  0.00    +0.000 S 
BRANCH  18  19
ATOM     19  C   UNL     1       0.523  11.260  18.997  0.00  0.00    +0.000 C 
ATOM     20  S   UNL     1       1.848  12.298  18.893  0.00  0.00    +0.000 S 
BRANCH  19  21
ATOM     21  N   UNL     1      -0.632  11.541  19.748  0.00  0.00    +0.000 N 
ATOM     22  C   UNL     1      -0.687  11.441  21.225  0.00  0.00    +0.000 C 
ATOM     23  C   UNL     1      -1.526  12.566  21.852  0.00  0.00    +0.000 C 
ATOM     24  N   UNL     1      -2.868  12.552  21.256  0.00  0.00    +0.000 N 
ATOM     25  C   UNL     1      -2.876  12.685  19.789  0.00  0.00    +0.000 C 
ATOM     26  C   UNL     1      -1.988  11.597  19.144  0.00  0.00    +0.000 C 
BRANCH  24  27
ATOM     27  C   UNL     1      -4.009  12.715  22.016  0.00  0.00    +0.000 A 
ATOM     28  C   UNL     1      -5.272  12.920  21.438  0.00  0.00    +0.000 A 
ATOM     29  C   UNL     1      -6.412  13.164  22.215  0.00  0.00    +0.000 A 
ATOM     30  C   UNL     1      -6.307  13.204  23.599  0.00  0.00    +0.000 A 
ATOM     31 CL   UNL     1      -7.698  13.523  24.559  0.00  0.00    +0.000 Cl
ATOM     32  C   UNL     1      -5.076  12.996  24.207  0.00  0.00    +0.000 A 
ATOM     33  C   UNL     1      -3.944  12.753  23.419  0.00  0.00    +0.000 A 
ENDBRANCH  24  27
ENDBRANCH  19  21
ENDBRANCH  18  19
ENDBRANCH   1  18
TORSDOF 5
ENDMDL
MODEL 3
REMARK VINA RESULT:      -7.6      2.485      4.759
REMARK  Name = 
REMARK  5 active torsions:
REMARK  status: ('A' for Active; 'I' for Inactive)
REMARK    1  A    between atoms: C_8  and  C_9
REMARK    2  A    between atoms: C_9  and  S_10
REMARK    3  A    between atoms: S_10  and  C_11
REMARK    4  A    between atoms: C_11  and  N_13
REMARK    5  A    between atoms: N_16  and  C_17
REMARK                            x       y       z     vdW  Elec       q    Type
REMARK                         _______ _______ _______ _____ _____    ______ ____
ROOT
ATOM      1  C   UNL     1       4.814   3.569  15.917  0.00  0.00    +0.000 C 
ENDROOT
BRANCH   1   9
ATOM      2  N   UNL     1       0.896   2.469  22.571  0.00  0.00    +0.000 N 
ATOM      3  C   UNL     1       1.769   2.520  21.504  0.00  0.00    +0.000 A 
ATOM      4  N   UNL     1       3.029   2.142  21.719  0.00  0.00    +0.000 NA
ATOM      5  C   UNL     1       3.873   2.238  20.684  0.00  0.00    +0.000 A 
ATOM      6  N   UNL     1       5.181   1.813  20.947  0.00  0.00    +0.000 N 
ATOM      7  C   UNL     1       3.487   2.690  19.418  0.00  0.00    +0.000 A 
ATOM      8  C   UNL     1       4.347   2.845  18.299  0.00  0.00    +0.000 A 
ATOM      9  C   UNL     1       3.870   3.333  17.074  0.00  0.00    +0.000 A 
ATOM     10  C   UNL     1       2.504   3.604  16.963  0.00  0.00    +0.000 A 
ATOM     11  C   UNL     1       1.661   3.443  18.069  0.00  0.00    +0.000 A 
ATOM     12  C   UNL     1       2.131   3.012  19.304  0.00  0.00    +0.000 A 
ATOM     13  N   UNL     1       1.280   2.924  20.331  0.00  0.00    +0.000 NA
ATOM     14  H   UNL     1       1.224   1.798  23.251  0.00  0.00    +0.000 HD
ATOM     15  H   UNL     1      -0.051   2.368  22.231  0.00  0.00    +0.000 HD
ATOM     16  H   UNL     1       5.224   1.580  21.937  0.00  0.00    +0.000 HD
ATOM     17  H   UNL     1       5.864   2.518  20.699  0.00  0.00    +0.000 HD
ENDBRANCH   1   9
BRANCH   1  18
ATOM     18  S   UNL     1       5.139   5.330  15.656  0.00  0.00    +0.000 S 
BRANCH  18  19
ATOM     19  C   UNL     1       5.640   5.912  17.257  0.00  0.00    +0.000 C 
ATOM     20  S   UNL     1       7.197   5.649  17.848  0.00  0.00    +0.000 S 
BRANCH  19  21
ATOM     21  N   UNL     1       4.645   6.613  17.961  0.00  0.00    +0.000 N 
ATOM     22  C   UNL     1       4.161   7.957  17.568  0.00  0.00    +0.000 C 
ATOM     23  C   UNL     1       2.645   8.110  17.767  0.00  0.00    +0.000 C 
ATOM     24  N   UNL     1       2.312   7.800  19.163  0.00  0.00    +0.000 N 
ATOM     25  C   UNL     1       2.737   6.458  19.600  0.00  0.00    +0.000 C 
ATOM     26  C   UNL     1       4.250   6.265  19.351  0.00  0.00    +0.000 C 
BRANCH  24  27
ATOM     27  C   UNL     1       1.417   8.560  19.889  0.00  0.00    +0.000 A 
ATOM     28  C   UNL     1       0.729   9.648  19.328  0.00  0.00    +0.000 A 
ATOM     29  C   UNL     1      -0.117  10.464  20.090  0.00  0.00    +0.000 A 
ATOM     30  C   UNL     1      -0.295  10.199  21.442  0.00  0.00    +0.000 A 
ATOM     31 CL   UNL     1      -1.316  11.207  22.389  0.00  0.00    +0.000 Cl
ATOM     32  C   UNL     1       0.360   9.124  22.029  0.00  0.00    +0.000 A 
ATOM     33  C   UNL     1       1.203   8.317  21.255  0.00  0.00    +0.000 A 
ENDBRANCH  24  27
ENDBRANCH  19  21
ENDBRANCH  18  19
ENDBRANCH   1  18
TORSDOF 5
ENDMDL
MODEL 4
REMARK VINA RESULT:      -7.6      4.123      6.548
REMARK  Name = 
REMARK  5 active torsions:
REMARK  status: ('A' for Active; 'I' for Inactive)
REMARK    1  A    between atoms: C_8  and  C_9
REMARK    2  A    between atoms: C_9  and  S_10
REMARK    3  A    between atoms: S_10  and  C_11
REMARK    4  A    between atoms: C_11  and  N_13
REMARK    5  A    between atoms: N_16  and  C_17
REMARK                            x       y       z     vdW  Elec       q    Type
REMARK                         _______ _______ _______ _____ _____    ______ ____
ROOT
ATOM      1  C   UNL     1       1.639   8.658  20.025  0.00  0.00    +0.000 C 
ENDROOT
BRANCH   1   9
ATOM      2  N   UNL     1       4.292   1.449  18.666  0.00  0.00    +0.000 N 
ATOM      3  C   UNL     1       3.899   2.773  18.669  0.00  0.00    +0.000 A 
ATOM      4  N   UNL     1       4.374   3.558  17.702  0.00  0.00    +0.000 NA
ATOM      5  C   UNL     1       4.018   4.848  17.743  0.00  0.00    +0.000 A 
ATOM      6  N   UNL     1       4.523   5.634  16.699  0.00  0.00    +0.000 N 
ATOM      7  C   UNL     1       3.176   5.381  18.725  0.00  0.00    +0.000 A 
ATOM      8  C   UNL     1       2.798   6.745  18.835  0.00  0.00    +0.000 A 
ATOM      9  C   UNL     1       1.967   7.190  19.874  0.00  0.00    +0.000 A 
ATOM     10  C   UNL     1       1.467   6.239  20.766  0.00  0.00    +0.000 A 
ATOM     11  C   UNL     1       1.840   4.895  20.647  0.00  0.00    +0.000 A 
ATOM     12  C   UNL     1       2.706   4.450  19.654  0.00  0.00    +0.000 A 
ATOM     13  N   UNL     1       3.058   3.160  19.626  0.00  0.00    +0.000 NA
ATOM     14  H   UNL     1       4.562   1.173  17.733  0.00  0.00    +0.000 HD
ATOM     15  H   UNL     1       3.596   0.888  19.139  0.00  0.00    +0.000 HD
ATOM     16  H   UNL     1       5.139   5.038  16.150  0.00  0.00    +0.000 HD
ATOM     17  H   UNL     1       5.005   6.455  17.044  0.00  0.00    +0.000 HD
ENDBRANCH   1   9
BRANCH   1  18
ATOM     18  S   UNL     1       1.392   9.466  18.425  0.00  0.00    +0.000 S 
BRANCH  18  19
ATOM     19  C   UNL     1       1.200  11.182  18.839  0.00  0.00    +0.000 C 
ATOM     20  S   UNL     1       2.317  12.343  18.343  0.00  0.00    +0.000 S 
BRANCH  19  21
ATOM     21  N   UNL     1       0.046  11.477  19.586  0.00  0.00    +0.000 N 
ATOM     22  C   UNL     1       0.079  11.873  21.014  0.00  0.00    +0.000 C 
ATOM     23  C   UNL     1      -0.953  12.965  21.338  0.00  0.00    +0.000 C 
ATOM     24  N   UNL     1      -2.286  12.500  20.934  0.00  0.00    +0.000 N 
ATOM     25  C   UNL     1      -2.387  12.127  19.512  0.00  0.00    +0.000 C 
ATOM     26  C   UNL     1      -1.317  11.072  19.153  0.00  0.00    +0.000 C 
BRANCH  24  27
ATOM     27  C   UNL     1      -3.400  12.693  21.725  0.00  0.00    +0.000 A 
ATOM     28  C   UNL     1      -3.337  12.675  23.128  0.00  0.00    +0.000 A 
ATOM     29  C   UNL     1      -4.483  12.793  23.923  0.00  0.00    +0.000 A 
ATOM     30  C   UNL     1      -5.727  12.937  23.323  0.00  0.00    +0.000 A 
ATOM     31 CL   UNL     1      -7.141  13.063  24.292  0.00  0.00    +0.000 Cl
ATOM     32  C   UNL     1      -5.828  12.971  21.938  0.00  0.00    +0.000 A 
ATOM     33  C   UNL     1      -4.673  12.852  21.154  0.00  0.00    +0.000 A 
ENDBRANCH  24  27
ENDBRANCH  19  21
ENDBRANCH  18  19
ENDBRANCH   1  18
TORSDOF 5
ENDMDL
MODEL 5
REMARK VINA RESULT:      -7.5      1.559      2.485
REMARK  Name = 
REMARK  5 active torsions:
REMARK  status: ('A' for Active; 'I' for Inactive)
REMARK    1  A    between atoms: C_8  and  C_9
REMARK    2  A    between atoms: C_9  and  S_10
REMARK    3  A    between atoms: S_10  and  C_11
REMARK    4  A    between atoms: C_11  and  N_13
REMARK    5  A    between atoms: N_16  and  C_17
REMARK                            x       y       z     vdW  Elec       q    Type
REMARK                         _______ _______ _______ _____ _____    ______ ____
ROOT
ATOM      1  C   UNL     1       3.290   1.730  18.204  0.00  0.00    +0.000 C 
ENDROOT
BRANCH   1   9
ATOM      2  N   UNL     1       7.840   7.998  17.279  0.00  0.00    +0.000 N 
ATOM      3  C   UNL     1       7.069   6.857  17.192  0.00  0.00    +0.000 A 
ATOM      4  N   UNL     1       6.688   6.462  15.977  0.00  0.00    +0.000 NA
ATOM      5  C   UNL     1       5.904   5.377  15.913  0.00  0.00    +0.000 A 
ATOM      6  N   UNL     1       5.543   4.985  14.618  0.00  0.00    +0.000 N 
ATOM      7  C   UNL     1       5.498   4.656  17.042  0.00  0.00    +0.000 A 
ATOM      8  C   UNL     1       4.641   3.525  17.033  0.00  0.00    +0.000 A 
ATOM      9  C   UNL     1       4.269   2.883  18.222  0.00  0.00    +0.000 A 
ATOM     10  C   UNL     1       4.817   3.349  19.419  0.00  0.00    +0.000 A 
ATOM     11  C   UNL     1       5.667   4.463  19.419  0.00  0.00    +0.000 A 
ATOM     12  C   UNL     1       6.001   5.141  18.252  0.00  0.00    +0.000 A 
ATOM     13  N   UNL     1       6.780   6.225  18.329  0.00  0.00    +0.000 NA
ATOM     14  H   UNL     1       8.327   8.151  16.407  0.00  0.00    +0.000 HD
ATOM     15  H   UNL     1       8.393   7.971  18.125  0.00  0.00    +0.000 HD
ATOM     16  H   UNL     1       5.914   5.687  13.982  0.00  0.00    +0.000 HD
ATOM     17  H   UNL     1       4.540   4.884  14.521  0.00  0.00    +0.000 HD
ENDBRANCH   1   9
BRANCH   1  18
ATOM     18  S   UNL     1       1.583   2.286  18.419  0.00  0.00    +0.000 S 
BRANCH  18  19
ATOM     19  C   UNL     1       1.633   3.252  19.908  0.00  0.00    +0.000 C 
ATOM     20  S   UNL     1       1.761   2.532  21.427  0.00  0.00    +0.000 S 
BRANCH  19  21
ATOM     21  N   UNL     1       1.577   4.642  19.705  0.00  0.00    +0.000 N 
ATOM     22  C   UNL     1       0.972   5.584  20.676  0.00  0.00    +0.000 C 
ATOM     23  C   UNL     1       1.768   6.895  20.786  0.00  0.00    +0.000 C 
ATOM     24  N   UNL     1       1.887   7.495  19.451  0.00  0.00    +0.000 N 
ATOM     25  C   UNL     1       2.516   6.615  18.450  0.00  0.00    +0.000 C 
ATOM     26  C   UNL     1       1.765   5.267  18.370  0.00  0.00    +0.000 C 
BRANCH  24  27
ATOM     27  C   UNL     1       1.719   8.848  19.238  0.00  0.00    +0.000 A 
ATOM     28  C   UNL     1       0.946   9.652  20.093  0.00  0.00    +0.000 A 
ATOM     29  C   UNL     1       0.714  11.007  19.828  0.00  0.00    +0.000 A 
ATOM     30  C   UNL     1       1.261  11.590  18.692  0.00  0.00    +0.000 A 
ATOM     31 CL   UNL     1       0.965  13.249  18.349  0.00  0.00    +0.000 Cl
ATOM     32  C   UNL     1       2.040  10.830  17.830  0.00  0.00    +0.000 A 
ATOM     33  C   UNL     1       2.264   9.476  18.106  0.00  0.00    +0.000 A 
ENDBRANCH  24  27
ENDBRANCH  19  21
ENDBRANCH  18  19
ENDBRANCH   1  18
TORSDOF 5
ENDMDL
MODEL 6
REMARK VINA RESULT:      -7.5      4.078      6.385
REMARK  Name = 
REMARK  5 active torsions:
REMARK  status: ('A' for Active; 'I' for Inactive)
REMARK    1  A    between atoms: C_8  and  C_9
REMARK    2  A    between atoms: C_9  and  S_10
REMARK    3  A    between atoms: S_10  and  C_11
REMARK    4  A    between atoms: C_11  and  N_13
REMARK    5  A    between atoms: N_16  and  C_17
REMARK                            x       y       z     vdW  Elec       q    Type
REMARK                         _______ _______ _______ _____ _____    ______ ____
ROOT
ATOM      1  C   UNL     1       2.802   8.933  17.812  0.00  0.00    +0.000 C 
ENDROOT
BRANCH   1   9
ATOM      2  N   UNL     1       3.648   1.194  18.294  0.00  0.00    +0.000 N 
ATOM      3  C   UNL     1       3.368   2.539  18.426  0.00  0.00    +0.000 A 
ATOM      4  N   UNL     1       2.421   2.888  19.296  0.00  0.00    +0.000 NA
ATOM      5  C   UNL     1       2.131   4.193  19.381  0.00  0.00    +0.000 A 
ATOM      6  N   UNL     1       1.144   4.519  20.320  0.00  0.00    +0.000 N 
ATOM      7  C   UNL     1       2.781   5.174  18.625  0.00  0.00    +0.000 A 
ATOM      8  C   UNL     1       2.489   6.564  18.651  0.00  0.00    +0.000 A 
ATOM      9  C   UNL     1       3.180   7.469  17.834  0.00  0.00    +0.000 A 
ATOM     10  C   UNL     1       4.215   6.976  17.036  0.00  0.00    +0.000 A 
ATOM     11  C   UNL     1       4.501   5.605  17.021  0.00  0.00    +0.000 A 
ATOM     12  C   UNL     1       3.787   4.689  17.785  0.00  0.00    +0.000 A 
ATOM     13  N   UNL     1       4.082   3.388  17.688  0.00  0.00    +0.000 NA
ATOM     14  H   UNL     1       3.382   0.703  19.135  0.00  0.00    +0.000 HD
ATOM     15  H   UNL     1       4.596   1.075  17.962  0.00  0.00    +0.000 HD
ATOM     16  H   UNL     1       0.794   3.642  20.700  0.00  0.00    +0.000 HD
ATOM     17  H   UNL     1       0.401   5.072  19.910  0.00  0.00    +0.000 HD
ENDBRANCH   1   9
BRANCH   1  18
ATOM     18  S   UNL     1       1.059   9.189  18.224  0.00  0.00    +0.000 S 
BRANCH  18  19
ATOM     19  C   UNL     1       0.993  10.878  18.767  0.00  0.00    +0.000 C 
ATOM     20  S   UNL     1       2.209  11.980  18.384  0.00  0.00    +0.000 S 
BRANCH  19  21
ATOM     21  N   UNL     1      -0.152  11.207  19.515  0.00  0.00    +0.000 N 
ATOM     22  C   UNL     1      -0.132  11.433  20.979  0.00  0.00    +0.000 C 
ATOM     23  C   UNL     1      -1.059  12.585  21.401  0.00  0.00    +0.000 C 
ATOM     24  N   UNL     1      -2.416  12.310  20.912  0.00  0.00    +0.000 N 
ATOM     25  C   UNL     1      -2.503  12.112  19.455  0.00  0.00    +0.000 C 
ATOM     26  C   UNL     1      -1.532  10.998  19.004  0.00  0.00    +0.000 C 
BRANCH  24  27
ATOM     27  C   UNL     1      -3.534  12.528  21.692  0.00  0.00    +0.000 A 
ATOM     28  C   UNL     1      -4.792  12.814  21.137  0.00  0.00    +0.000 A 
ATOM     29  C   UNL     1      -5.904  13.113  21.935  0.00  0.00    +0.000 A 
ATOM     30  C   UNL     1      -5.775  13.128  23.318  0.00  0.00    +0.000 A 
ATOM     31 CL   UNL     1      -7.130  13.513  24.304  0.00  0.00    +0.000 Cl
ATOM     32  C   UNL     1      -4.550  12.839  23.903  0.00  0.00    +0.000 A 
ATOM     33  C   UNL     1      -3.446  12.541  23.094  0.00  0.00    +0.000 A 
ENDBRANCH  24  27
ENDBRANCH  19  21
ENDBRANCH  18  19
ENDBRANCH   1  18
TORSDOF 5
ENDMDL
MODEL 7
REMARK VINA RESULT:      -7.4      4.102      6.537
REMARK  Name = 
REMARK  5 active torsions:
REMARK  status: ('A' for Active; 'I' for Inactive)
REMARK    1  A    between atoms: C_8  and  C_9
REMARK    2  A    between atoms: C_9  and  S_10
REMARK    3  A    between atoms: S_10  and  C_11
REMARK    4  A    between atoms: C_11  and  N_13
REMARK    5  A    between atoms: N_16  and  C_17
REMARK                            x       y       z     vdW  Elec       q    Type
REMARK                         _______ _______ _______ _____ _____    ______ ____
ROOT
ATOM      1  C   UNL     1       1.635   8.891  19.485  0.00  0.00    +0.000 C 
ENDROOT
BRANCH   1   9
ATOM      2  N   UNL     1       4.211   1.632  18.250  0.00  0.00    +0.000 N 
ATOM      3  C   UNL     1       3.728   2.840  18.710  0.00  0.00    +0.000 A 
ATOM      4  N   UNL     1       3.143   2.854  19.908  0.00  0.00    +0.000 NA
ATOM      5  C   UNL     1       2.642   4.025  20.321  0.00  0.00    +0.000 A 
ATOM      6  N   UNL     1       2.053   4.001  21.592  0.00  0.00    +0.000 N 
ATOM      7  C   UNL     1       2.724   5.203  19.571  0.00  0.00    +0.000 A 
ATOM      8  C   UNL     1       2.179   6.460  19.945  0.00  0.00    +0.000 A 
ATOM      9  C   UNL     1       2.291   7.581  19.110  0.00  0.00    +0.000 A 
ATOM     10  C   UNL     1       3.013   7.445  17.922  0.00  0.00    +0.000 A 
ATOM     11  C   UNL     1       3.552   6.203  17.563  0.00  0.00    +0.000 A 
ATOM     12  C   UNL     1       3.402   5.071  18.356  0.00  0.00    +0.000 A 
ATOM     13  N   UNL     1       3.903   3.907  17.930  0.00  0.00    +0.000 NA
ATOM     14  H   UNL     1       4.403   1.020  19.030  0.00  0.00    +0.000 HD
ATOM     15  H   UNL     1       4.958   1.795  17.588  0.00  0.00    +0.000 HD
ATOM     16  H   UNL     1       2.072   3.034  21.908  0.00  0.00    +0.000 HD
ATOM     17  H   UNL     1       1.111   4.372  21.578  0.00  0.00    +0.000 HD
ENDBRANCH   1   9
BRANCH   1  18
ATOM     18  S   UNL     1       1.341   9.939  18.041  0.00  0.00    +0.000 S 
BRANCH  18  19
ATOM     19  C   UNL     1       1.329  11.586  18.704  0.00  0.00    +0.000 C 
ATOM     20  S   UNL     1       2.567  12.682  18.375  0.00  0.00    +0.000 S 
BRANCH  19  21
ATOM     21  N   UNL     1       0.208  11.889  19.496  0.00  0.00    +0.000 N 
ATOM     22  C   UNL     1      -1.032  12.495  18.957  0.00  0.00    +0.000 C 
ATOM     23  C   UNL     1      -2.295  11.909  19.608  0.00  0.00    +0.000 C 
ATOM     24  N   UNL     1      -2.201  12.071  21.065  0.00  0.00    +0.000 N 
ATOM     25  C   UNL     1      -1.004  11.455  21.662  0.00  0.00    +0.000 C 
ATOM     26  C   UNL     1       0.275  11.987  20.978  0.00  0.00    +0.000 C 
BRANCH  24  27
ATOM     27  C   UNL     1      -3.277  12.478  21.827  0.00  0.00    +0.000 A 
ATOM     28  C   UNL     1      -3.249  12.468  23.231  0.00  0.00    +0.000 A 
ATOM     29  C   UNL     1      -4.370  12.808  23.998  0.00  0.00    +0.000 A 
ATOM     30  C   UNL     1      -5.553  13.171  23.366  0.00  0.00    +0.000 A 
ATOM     31 CL   UNL     1      -6.940  13.571  24.300  0.00  0.00    +0.000 Cl
ATOM     32  C   UNL     1      -5.615  13.204  21.980  0.00  0.00    +0.000 A 
ATOM     33  C   UNL     1      -4.487  12.862  21.225  0.00  0.00    +0.000 A 
ENDBRANCH  24  27
ENDBRANCH  19  21
ENDBRANCH  18  19
ENDBRANCH   1  18
TORSDOF 5
ENDMDL
MODEL 8
REMARK VINA RESULT:      -7.4      4.072      6.244
REMARK  Name = 
REMARK  5 active torsions:
REMARK  status: ('A' for Active; 'I' for Inactive)
REMARK    1  A    between atoms: C_8  and  C_9
REMARK    2  A    between atoms: C_9  and  S_10
REMARK    3  A    between atoms: S_10  and  C_11
REMARK    4  A    between atoms: C_11  and  N_13
REMARK    5  A    between atoms: N_16  and  C_17
REMARK                            x       y       z     vdW  Elec       q    Type
REMARK                         _______ _______ _______ _____ _____    ______ ____
ROOT
ATOM      1  C   UNL     1       2.679   8.989  17.590  0.00  0.00    +0.000 C 
ENDROOT
BRANCH   1   9
ATOM      2  N   UNL     1       4.853   1.769  19.589  0.00  0.00    +0.000 N 
ATOM      3  C   UNL     1       4.330   3.039  19.449  0.00  0.00    +0.000 A 
ATOM      4  N   UNL     1       3.279   3.358  20.203  0.00  0.00    +0.000 NA
ATOM      5  C   UNL     1       2.757   4.579  20.025  0.00  0.00    +0.000 A 
ATOM      6  N   UNL     1       1.666   4.882  20.850  0.00  0.00    +0.000 N 
ATOM      7  C   UNL     1       3.272   5.508  19.114  0.00  0.00    +0.000 A 
ATOM      8  C   UNL     1       2.736   6.799  18.861  0.00  0.00    +0.000 A 
ATOM      9  C   UNL     1       3.309   7.651  17.907  0.00  0.00    +0.000 A 
ATOM     10  C   UNL     1       4.467   7.222  17.254  0.00  0.00    +0.000 A 
ATOM     11  C   UNL     1       4.992   5.950  17.514  0.00  0.00    +0.000 A 
ATOM     12  C   UNL     1       4.402   5.074  18.418  0.00  0.00    +0.000 A 
ATOM     13  N   UNL     1       4.930   3.856  18.584  0.00  0.00    +0.000 NA
ATOM     14  H   UNL     1       4.622   1.401  20.500  0.00  0.00    +0.000 HD
ATOM     15  H   UNL     1       5.828   1.772  19.318  0.00  0.00    +0.000 HD
ATOM     16  H   UNL     1       1.453   4.040  21.380  0.00  0.00    +0.000 HD
ATOM     17  H   UNL     1       0.866   5.200  20.316  0.00  0.00    +0.000 HD
ENDBRANCH   1   9
BRANCH   1  18
ATOM     18  S   UNL     1       1.078   9.194  18.406  0.00  0.00    +0.000 S 
BRANCH  18  19
ATOM     19  C   UNL     1       1.017  10.925  18.797  0.00  0.00    +0.000 C 
ATOM     20  S   UNL     1       2.207  11.995  18.266  0.00  0.00    +0.000 S 
BRANCH  19  21
ATOM     21  N   UNL     1      -0.099  11.314  19.557  0.00  0.00    +0.000 N 
ATOM     22  C   UNL     1      -0.701  10.467  20.613  0.00  0.00    +0.000 C 
ATOM     23  C   UNL     1      -1.159  11.291  21.828  0.00  0.00    +0.000 C 
ATOM     24  N   UNL     1      -2.087  12.336  21.375  0.00  0.00    +0.000 N 
ATOM     25  C   UNL     1      -1.528  13.233  20.348  0.00  0.00    +0.000 C 
ATOM     26  C   UNL     1      -1.007  12.416  19.145  0.00  0.00    +0.000 C 
BRANCH  24  27
ATOM     27  C   UNL     1      -3.243  12.638  22.065  0.00  0.00    +0.000 A 
ATOM     28  C   UNL     1      -3.271  12.762  23.464  0.00  0.00    +0.000 A 
ATOM     29  C   UNL     1      -4.461  12.991  24.165  0.00  0.00    +0.000 A 
ATOM     30  C   UNL     1      -5.659  13.104  23.470  0.00  0.00    +0.000 A 
ATOM     31 CL   UNL     1      -7.128  13.365  24.325  0.00  0.00    +0.000 Cl
ATOM     32  C   UNL     1      -5.669  12.998  22.086  0.00  0.00    +0.000 A 
ATOM     33  C   UNL     1      -4.471  12.769  21.397  0.00  0.00    +0.000 A 
ENDBRANCH  24  27
ENDBRANCH  19  21
ENDBRANCH  18  19
ENDBRANCH   1  18
TORSDOF 5
ENDMDL
MODEL 9
REMARK VINA RESULT:      -7.3      2.677      3.702
REMARK  Name = 
REMARK  5 active torsions:
REMARK  status: ('A' for Active; 'I' for Inactive)
REMARK    1  A    between atoms: C_8  and  C_9
REMARK    2  A    between atoms: C_9  and  S_10
REMARK    3  A    between atoms: S_10  and  C_11
REMARK    4  A    between atoms: C_11  and  N_13
REMARK    5  A    between atoms: N_16  and  C_17
REMARK                            x       y       z     vdW  Elec       q    Type
REMARK                         _______ _______ _______ _____ _____    ______ ____
ROOT
ATOM      1  C   UNL     1       3.738   3.642  18.232  0.00  0.00    +0.000 C 
ENDROOT
BRANCH   1   9
ATOM      2  N   UNL     1       8.841   5.952  12.803  0.00  0.00    +0.000 N 
ATOM      3  C   UNL     1       7.851   5.388  13.582  0.00  0.00    +0.000 A 
ATOM      4  N   UNL     1       6.896   4.697  12.959  0.00  0.00    +0.000 NA
ATOM      5  C   UNL     1       5.919   4.193  13.724  0.00  0.00    +0.000 A 
ATOM      6  N   UNL     1       4.948   3.458  13.033  0.00  0.00    +0.000 N 
ATOM      7  C   UNL     1       5.877   4.346  15.114  0.00  0.00    +0.000 A 
ATOM      8  C   UNL     1       4.848   3.863  15.965  0.00  0.00    +0.000 A 
ATOM      9  C   UNL     1       4.881   4.090  17.349  0.00  0.00    +0.000 A 
ATOM     10  C   UNL     1       5.990   4.752  17.879  0.00  0.00    +0.000 A 
ATOM     11  C   UNL     1       7.004   5.219  17.033  0.00  0.00    +0.000 A 
ATOM     12  C   UNL     1       6.957   5.048  15.654  0.00  0.00    +0.000 A 
ATOM     13  N   UNL     1       7.936   5.560  14.901  0.00  0.00    +0.000 NA
ATOM     14  H   UNL     1       8.923   5.447  11.933  0.00  0.00    +0.000 HD
ATOM     15  H   UNL     1       9.679   6.073  13.356  0.00  0.00    +0.000 HD
ATOM     16  H   UNL     1       5.168   3.533  12.042  0.00  0.00    +0.000 HD
ATOM     17  H   UNL     1       4.012   3.788  13.234  0.00  0.00    +0.000 HD
ENDBRANCH   1   9
BRANCH   1  18
ATOM     18  S   UNL     1       2.271   4.679  18.020  0.00  0.00    +0.000 S 
BRANCH  18  19
ATOM     19  C   UNL     1       2.102   5.504  19.582  0.00  0.00    +0.000 C 
ATOM     20  S   UNL     1       2.077   4.651  21.036  0.00  0.00    +0.000 S 
BRANCH  19  21
ATOM     21  N   UNL     1       2.012   6.905  19.497  0.00  0.00    +0.000 N 
ATOM     22  C   UNL     1       2.608   7.694  18.394  0.00  0.00    +0.000 C 
ATOM     23  C   UNL     1       1.707   8.863  17.965  0.00  0.00    +0.000 C 
ATOM     24  N   UNL     1       1.417   9.700  19.136  0.00  0.00    +0.000 N 
ATOM     25  C   UNL     1       0.789   8.973  20.254  0.00  0.00    +0.000 C 
ATOM     26  C   UNL     1       1.652   7.758  20.660  0.00  0.00    +0.000 C 
BRANCH  24  27
ATOM     27  C   UNL     1       1.440  11.078  19.076  0.00  0.00    +0.000 A 
ATOM     28  C   UNL     1       0.582  11.878  19.848  0.00  0.00    +0.000 A 
ATOM     29  C   UNL     1       0.555  13.273  19.724  0.00  0.00    +0.000 A 
ATOM     30  C   UNL     1       1.400  13.900  18.817  0.00  0.00    +0.000 A 
ATOM     31 CL   UNL     1       1.360  15.610  18.644  0.00  0.00    +0.000 Cl
ATOM     32  C   UNL     1       2.270  13.143  18.044  0.00  0.00    +0.000 A 
ATOM     33  C   UNL     1       2.287  11.749  18.178  0.00  0.00    +0.000 A 
ENDBRANCH  24  27
ENDBRANCH  19  21
ENDBRANCH  18  19
ENDBRANCH   1  18
TORSDOF 5
ENDMDL
