MODEL 1
REMARK VINA RESULT:      -8.9      0.000      0.000
REMARK  Name = 
REMARK  7 active torsions:
REMARK  status: ('A' for Active; 'I' for Inactive)
REMARK    1  A    between atoms: C_2  and  C_3
REMARK    2  A    between atoms: C_6  and  C_7
REMARK    3  A    between atoms: C_7  and  N_8
REMARK    4  A    between atoms: N_8  and  C_9
REMARK    5  A    between atoms: N_8  and  C_18
REMARK    6  A    between atoms: C_9  and  C_10
REMARK    7  A    between atoms: C_13  and  C_14
REMARK                            x       y       z     vdW  Elec       q    Type
REMARK                         _______ _______ _______ _____ _____    ______ ____
ROOT
ATOM      1  N   UNL     1       0.919   9.705  19.725  0.00  0.00    +0.000 N 
ENDROOT
BRANCH   1   2
ATOM      2  C   UNL     1       1.463   8.411  19.781  0.00  0.00    +0.000 A 
ATOM      3  C   UNL     1       1.150   7.518  20.815  0.00  0.00    +0.000 A 
ATOM      4  C   UNL     1       1.688   6.223  20.862  0.00  0.00    +0.000 A 
ATOM      5  C   UNL     1       2.568   5.798  19.867  0.00  0.00    +0.000 A 
ATOM      6  N   UNL     1       3.117   4.512  19.933  0.00  0.00    +0.000 N 
ATOM      7  C   UNL     1       4.026   4.014  19.028  0.00  0.00    +0.000 A 
ATOM      8  O   UNL     1       4.485   2.884  19.153  0.00  0.00    +0.000 OA
ATOM      9  C   UNL     1       4.430   4.896  17.899  0.00  0.00    +0.000 A 
ATOM     10  C   UNL     1       5.366   4.425  16.967  0.00  0.00    +0.000 A 
ATOM     11  C   UNL     1       5.747   5.226  15.890  0.00  0.00    +0.000 A 
ATOM     12  C   UNL     1       5.190   6.488  15.741  0.00  0.00    +0.000 A 
ATOM     13  C   UNL     1       4.261   6.958  16.676  0.00  0.00    +0.000 A 
ATOM     14  C   UNL     1       3.866   6.179  17.783  0.00  0.00    +0.000 A 
ATOM     15  C   UNL     1       2.914   6.645  18.810  0.00  0.00    +0.000 A 
ATOM     16  C   UNL     1       2.343   7.929  18.798  0.00  0.00    +0.000 A 
ATOM     17  H   UNL     1       2.869   3.888  20.689  0.00  0.00    +0.000 HD
ENDBRANCH   1   2
BRANCH   1  18
ATOM     18  C   UNL     1       0.508  10.266  18.412  0.00  0.00    +0.000 C 
BRANCH  18  22
ATOM     19  C   UNL     1      -3.784  10.928  17.967  0.00  0.00    +0.000 A 
ATOM     20  C   UNL     1      -2.988  11.834  18.666  0.00  0.00    +0.000 A 
ATOM     21  C   UNL     1      -1.603  11.628  18.751  0.00  0.00    +0.000 A 
ATOM     22  C   UNL     1      -0.986  10.503  18.163  0.00  0.00    +0.000 A 
ATOM     23  C   UNL     1      -1.795   9.661  17.388  0.00  0.00    +0.000 A 
ATOM     24  C   UNL     1      -3.181   9.865  17.300  0.00  0.00    +0.000 A 
BRANCH  19  26
ATOM     25  N   UNL     1      -6.371  11.167  17.945  0.00  0.00    +0.000 NA
ATOM     26  C   UNL     1      -5.215  11.063  17.975  0.00  0.00    +0.000 C 
ENDBRANCH  19  26
ENDBRANCH  18  22
ENDBRANCH   1  18
BRANCH   1  27
ATOM     27  C   UNL     1       1.351  10.654  20.769  0.00  0.00    +0.000 C 
BRANCH  27  28
ATOM     28  C   UNL     1       0.254  11.260  21.629  0.00  0.00    +0.000 A 
ATOM     29  C   UNL     1      -0.471  10.403  22.478  0.00  0.00    +0.000 A 
ATOM     30  C   UNL     1      -1.579  10.864  23.193  0.00  0.00    +0.000 A 
ATOM     31  C   UNL     1      -1.971  12.199  23.088  0.00  0.00    +0.000 A 
ATOM     32  C   UNL     1      -1.183  13.088  22.348  0.00  0.00    +0.000 A 
ATOM     33  C   UNL     1      -0.066  12.624  21.633  0.00  0.00    +0.000 A 
BRANCH  31  34
ATOM     34  C   UNL     1      -3.218  12.621  23.669  0.00  0.00    +0.000 C 
ATOM     35  N   UNL     1      -4.197  12.959  24.183  0.00  0.00    +0.000 NA
ENDBRANCH  31  34
ENDBRANCH  27  28
ENDBRANCH   1  27
TORSDOF 7
ENDMDL
MODEL 2
REMARK VINA RESULT:      -8.8      1.140      2.463
REMARK  Name = 
REMARK  7 active torsions:
REMARK  status: ('A' for Active; 'I' for Inactive)
REMARK    1  A    between atoms: C_2  and  C_3
REMARK    2  A    between atoms: C_6  and  C_7
REMARK    3  A    between atoms: C_7  and  N_8
REMARK    4  A    between atoms: N_8  and  C_9
REMARK    5  A    between atoms: N_8  and  C_18
REMARK    6  A    between atoms: C_9  and  C_10
REMARK    7  A    between atoms: C_13  and  C_14
REMARK                            x       y       z     vdW  Elec       q    Type
REMARK                         _______ _______ _______ _____ _____    ______ ____
ROOT
ATOM      1  N   UNL     1       1.066   9.867  19.479  0.00  0.00    +0.000 N 
ENDROOT
BRANCH   1   2
ATOM      2  C   UNL     1       1.777   8.777  18.950  0.00  0.00    +0.000 A 
ATOM      3  C   UNL     1       2.456   8.856  17.726  0.00  0.00    +0.000 A 
ATOM      4  C   UNL     1       3.172   7.766  17.206  0.00  0.00    +0.000 A 
ATOM      5  C   UNL     1       3.213   6.561  17.907  0.00  0.00    +0.000 A 
ATOM      6  N   UNL     1       3.911   5.473  17.370  0.00  0.00    +0.000 N 
ATOM      7  C   UNL     1       3.975   4.231  17.959  0.00  0.00    +0.000 A 
ATOM      8  O   UNL     1       4.589   3.313  17.428  0.00  0.00    +0.000 OA
ATOM      9  C   UNL     1       3.272   4.047  19.258  0.00  0.00    +0.000 A 
ATOM     10  C   UNL     1       3.304   2.789  19.879  0.00  0.00    +0.000 A 
ATOM     11  C   UNL     1       2.669   2.596  21.105  0.00  0.00    +0.000 A 
ATOM     12  C   UNL     1       2.010   3.656  21.713  0.00  0.00    +0.000 A 
ATOM     13  C   UNL     1       1.974   4.908  21.089  0.00  0.00    +0.000 A 
ATOM     14  C   UNL     1       2.594   5.132  19.843  0.00  0.00    +0.000 A 
ATOM     15  C   UNL     1       2.556   6.425  19.133  0.00  0.00    +0.000 A 
ATOM     16  C   UNL     1       1.860   7.546  19.620  0.00  0.00    +0.000 A 
ATOM     17  H   UNL     1       4.396   5.562  16.487  0.00  0.00    +0.000 HD
ENDBRANCH   1   2
BRANCH   1  18
ATOM     18  C   UNL     1       0.500  10.884  18.556  0.00  0.00    +0.000 C 
BRANCH  18  22
ATOM     19  C   UNL     1      -3.847  10.878  18.155  0.00  0.00    +0.000 A 
ATOM     20  C   UNL     1      -3.189  11.920  18.806  0.00  0.00    +0.000 A 
ATOM     21  C   UNL     1      -1.789  11.927  18.876  0.00  0.00    +0.000 A 
ATOM     22  C   UNL     1      -1.016  10.884  18.322  0.00  0.00    +0.000 A 
ATOM     23  C   UNL     1      -1.697   9.900  17.593  0.00  0.00    +0.000 A 
ATOM     24  C   UNL     1      -3.098   9.891  17.520  0.00  0.00    +0.000 A 
BRANCH  19  26
ATOM     25  N   UNL     1      -6.440  10.721  18.237  0.00  0.00    +0.000 NA
ATOM     26  C   UNL     1      -5.282  10.797  18.181  0.00  0.00    +0.000 C 
ENDBRANCH  19  26
ENDBRANCH  18  22
ENDBRANCH   1  18
BRANCH   1  27
ATOM     27  C   UNL     1       1.437  10.308  20.837  0.00  0.00    +0.000 C 
BRANCH  27  28
ATOM     28  C   UNL     1       0.320  10.880  21.692  0.00  0.00    +0.000 A 
ATOM     29  C   UNL     1      -0.419   9.993  22.497  0.00  0.00    +0.000 A 
ATOM     30  C   UNL     1      -1.545  10.426  23.203  0.00  0.00    +0.000 A 
ATOM     31  C   UNL     1      -1.941  11.762  23.133  0.00  0.00    +0.000 A 
ATOM     32  C   UNL     1      -1.141  12.678  22.440  0.00  0.00    +0.000 A 
ATOM     33  C   UNL     1      -0.007  12.242  21.735  0.00  0.00    +0.000 A 
BRANCH  31  34
ATOM     34  C   UNL     1      -3.202  12.159  23.700  0.00  0.00    +0.000 C 
ATOM     35  N   UNL     1      -4.226  12.427  24.166  0.00  0.00    +0.000 NA
ENDBRANCH  31  34
ENDBRANCH  27  28
ENDBRANCH   1  27
TORSDOF 7
ENDMDL
MODEL 3
REMARK VINA RESULT:      -8.6      1.295      2.630
REMARK  Name = 
REMARK  7 active torsions:
REMARK  status: ('A' for Active; 'I' for Inactive)
REMARK    1  A    between atoms: C_2  and  C_3
REMARK    2  A    between atoms: C_6  and  C_7
REMARK    3  A    between atoms: C_7  and  N_8
REMARK    4  A    between atoms: N_8  and  C_9
REMARK    5  A    between atoms: N_8  and  C_18
REMARK    6  A    between atoms: C_9  and  C_10
REMARK    7  A    between atoms: C_13  and  C_14
REMARK                            x       y       z     vdW  Elec       q    Type
REMARK                         _______ _______ _______ _____ _____    ______ ____
ROOT
ATOM      1  N   UNL     1       0.784   9.814  19.674  0.00  0.00    +0.000 N 
ENDROOT
BRANCH   1   2
ATOM      2  C   UNL     1       1.577   8.796  19.119  0.00  0.00    +0.000 A 
ATOM      3  C   UNL     1       2.279   8.973  17.920  0.00  0.00    +0.000 A 
ATOM      4  C   UNL     1       3.078   7.956  17.374  0.00  0.00    +0.000 A 
ATOM      5  C   UNL     1       3.180   6.726  18.023  0.00  0.00    +0.000 A 
ATOM      6  N   UNL     1       3.961   5.710  17.460  0.00  0.00    +0.000 N 
ATOM      7  C   UNL     1       4.091   4.450  17.997  0.00  0.00    +0.000 A 
ATOM      8  O   UNL     1       4.777   3.597  17.445  0.00  0.00    +0.000 OA
ATOM      9  C   UNL     1       3.370   4.164  19.267  0.00  0.00    +0.000 A 
ATOM     10  C   UNL     1       3.469   2.884  19.835  0.00  0.00    +0.000 A 
ATOM     11  C   UNL     1       2.817   2.597  21.034  0.00  0.00    +0.000 A 
ATOM     12  C   UNL     1       2.076   3.584  21.667  0.00  0.00    +0.000 A 
ATOM     13  C   UNL     1       1.973   4.857  21.097  0.00  0.00    +0.000 A 
ATOM     14  C   UNL     1       2.609   5.175  19.879  0.00  0.00    +0.000 A 
ATOM     15  C   UNL     1       2.503   6.494  19.224  0.00  0.00    +0.000 A 
ATOM     16  C   UNL     1       1.724   7.545  19.739  0.00  0.00    +0.000 A 
ATOM     17  H   UNL     1       4.461   5.868  16.596  0.00  0.00    +0.000 HD
ENDBRANCH   1   2
BRANCH   1  18
ATOM     18  C   UNL     1       0.256  10.889  18.794  0.00  0.00    +0.000 C 
BRANCH  18  22
ATOM     19  C   UNL     1      -4.071  10.936  18.222  0.00  0.00    +0.000 A 
ATOM     20  C   UNL     1      -3.430  11.956  18.922  0.00  0.00    +0.000 A 
ATOM     21  C   UNL     1      -2.033  11.948  19.047  0.00  0.00    +0.000 A 
ATOM     22  C   UNL     1      -1.249  10.910  18.500  0.00  0.00    +0.000 A 
ATOM     23  C   UNL     1      -1.909   9.949  17.724  0.00  0.00    +0.000 A 
ATOM     24  C   UNL     1      -3.307   9.956  17.594  0.00  0.00    +0.000 A 
BRANCH  19  26
ATOM     25  N   UNL     1      -6.668  10.846  18.184  0.00  0.00    +0.000 NA
ATOM     26  C   UNL     1      -5.507  10.869  18.189  0.00  0.00    +0.000 C 
ENDBRANCH  19  26
ENDBRANCH  18  22
ENDBRANCH   1  18
BRANCH   1  27
ATOM     27  C   UNL     1       1.024  10.149  21.091  0.00  0.00    +0.000 C 
BRANCH  27  28
ATOM     28  C   UNL     1       0.078  11.158  21.719  0.00  0.00    +0.000 A 
ATOM     29  C   UNL     1       0.367  12.526  21.558  0.00  0.00    +0.000 A 
ATOM     30  C   UNL     1      -0.379  13.504  22.220  0.00  0.00    +0.000 A 
ATOM     31  C   UNL     1      -1.444  13.133  23.041  0.00  0.00    +0.000 A 
ATOM     32  C   UNL     1      -1.820  11.786  23.108  0.00  0.00    +0.000 A 
ATOM     33  C   UNL     1      -1.071  10.804  22.437  0.00  0.00    +0.000 A 
BRANCH  31  34
ATOM     34  C   UNL     1      -2.082  14.122  23.867  0.00  0.00    +0.000 C 
ATOM     35  N   UNL     1      -2.634  14.920  24.497  0.00  0.00    +0.000 NA
ENDBRANCH  31  34
ENDBRANCH  27  28
ENDBRANCH   1  27
TORSDOF 7
ENDMDL
MODEL 4
REMARK VINA RESULT:      -8.4      0.683      1.072
REMARK  Name = 
REMARK  7 active torsions:
REMARK  status: ('A' for Active; 'I' for Inactive)
REMARK    1  A    between atoms: C_2  and  C_3
REMARK    2  A    between atoms: C_6  and  C_7
REMARK    3  A    between atoms: C_7  and  N_8
REMARK    4  A    between atoms: N_8  and  C_9
REMARK    5  A    between atoms: N_8  and  C_18
REMARK    6  A    between atoms: C_9  and  C_10
REMARK    7  A    between atoms: C_13  and  C_14
REMARK                            x       y       z     vdW  Elec       q    Type
REMARK                         _______ _______ _______ _____ _____    ______ ____
ROOT
ATOM      1  N   UNL     1       0.591  10.114  19.712  0.00  0.00    +0.000 N 
ENDROOT
BRANCH   1   2
ATOM      2  C   UNL     1       1.158   8.839  19.872  0.00  0.00    +0.000 A 
ATOM      3  C   UNL     1       0.859   8.026  20.973  0.00  0.00    +0.000 A 
ATOM      4  C   UNL     1       1.421   6.749  21.123  0.00  0.00    +0.000 A 
ATOM      5  C   UNL     1       2.312   6.263  20.167  0.00  0.00    +0.000 A 
ATOM      6  N   UNL     1       2.885   4.997  20.337  0.00  0.00    +0.000 N 
ATOM      7  C   UNL     1       3.807   4.446  19.476  0.00  0.00    +0.000 A 
ATOM      8  O   UNL     1       4.286   3.338  19.691  0.00  0.00    +0.000 OA
ATOM      9  C   UNL     1       4.197   5.243  18.281  0.00  0.00    +0.000 A 
ATOM     10  C   UNL     1       5.146   4.718  17.391  0.00  0.00    +0.000 A 
ATOM     11  C   UNL     1       5.515   5.437  16.255  0.00  0.00    +0.000 A 
ATOM     12  C   UNL     1       4.936   6.673  16.005  0.00  0.00    +0.000 A 
ATOM     13  C   UNL     1       3.994   7.198  16.897  0.00  0.00    +0.000 A 
ATOM     14  C   UNL     1       3.610   6.502  18.062  0.00  0.00    +0.000 A 
ATOM     15  C   UNL     1       2.646   7.029  19.047  0.00  0.00    +0.000 A 
ATOM     16  C   UNL     1       2.051   8.298  18.932  0.00  0.00    +0.000 A 
ATOM     17  H   UNL     1       2.646   4.431  21.139  0.00  0.00    +0.000 HD
ENDBRANCH   1   2
BRANCH   1  18
ATOM     18  C   UNL     1      -0.039  10.474  18.415  0.00  0.00    +0.000 C 
BRANCH  18  22
ATOM     19  C   UNL     1      -4.324  11.241  18.084  0.00  0.00    +0.000 A 
ATOM     20  C   UNL     1      -3.731  10.181  17.400  0.00  0.00    +0.000 A 
ATOM     21  C   UNL     1      -2.363   9.922  17.564  0.00  0.00    +0.000 A 
ATOM     22  C   UNL     1      -1.551  10.728  18.391  0.00  0.00    +0.000 A 
ATOM     23  C   UNL     1      -2.191  11.726  19.138  0.00  0.00    +0.000 A 
ATOM     24  C   UNL     1      -3.561  11.987  18.978  0.00  0.00    +0.000 A 
BRANCH  19  26
ATOM     25  N   UNL     1      -6.814  11.843  17.650  0.00  0.00    +0.000 NA
ATOM     26  C   UNL     1      -5.696  11.590  17.833  0.00  0.00    +0.000 C 
ENDBRANCH  19  26
ENDBRANCH  18  22
ENDBRANCH   1  18
BRANCH   1  27
ATOM     27  C   UNL     1       1.170  11.207  20.516  0.00  0.00    +0.000 C 
BRANCH  27  28
ATOM     28  C   UNL     1       0.233  11.905  21.486  0.00  0.00    +0.000 A 
ATOM     29  C   UNL     1      -0.607  11.107  22.285  0.00  0.00    +0.000 A 
ATOM     30  C   UNL     1      -1.588  11.681  23.099  0.00  0.00    +0.000 A 
ATOM     31  C   UNL     1      -1.732  13.068  23.144  0.00  0.00    +0.000 A 
ATOM     32  C   UNL     1      -0.821  13.875  22.453  0.00  0.00    +0.000 A 
ATOM     33  C   UNL     1       0.168  13.296  21.639  0.00  0.00    +0.000 A 
BRANCH  31  34
ATOM     34  C   UNL     1      -2.861  13.642  23.827  0.00  0.00    +0.000 C 
ATOM     35  N   UNL     1      -3.777  14.057  24.399  0.00  0.00    +0.000 NA
ENDBRANCH  31  34
ENDBRANCH  27  28
ENDBRANCH   1  27
TORSDOF 7
ENDMDL
MODEL 5
REMARK VINA RESULT:      -8.4      1.323      4.657
REMARK  Name = 
REMARK  7 active torsions:
REMARK  status: ('A' for Active; 'I' for Inactive)
REMARK    1  A    between atoms: C_2  and  C_3
REMARK    2  A    between atoms: C_6  and  C_7
REMARK    3  A    between atoms: C_7  and  N_8
REMARK    4  A    between atoms: N_8  and  C_9
REMARK    5  A    between atoms: N_8  and  C_18
REMARK    6  A    between atoms: C_9  and  C_10
REMARK    7  A    between atoms: C_13  and  C_14
REMARK                            x       y       z     vdW  Elec       q    Type
REMARK                         _______ _______ _______ _____ _____    ______ ____
ROOT
ATOM      1  N   UNL     1       0.886   9.871  19.488  0.00  0.00    +0.000 N 
ENDROOT
BRANCH   1   2
ATOM      2  C   UNL     1       1.676   8.827  18.978  0.00  0.00    +0.000 A 
ATOM      3  C   UNL     1       2.412   8.962  17.794  0.00  0.00    +0.000 A 
ATOM      4  C   UNL     1       3.207   7.919  17.293  0.00  0.00    +0.000 A 
ATOM      5  C   UNL     1       3.270   6.704  17.973  0.00  0.00    +0.000 A 
ATOM      6  N   UNL     1       4.047   5.661  17.455  0.00  0.00    +0.000 N 
ATOM      7  C   UNL     1       4.140   4.412  18.025  0.00  0.00    +0.000 A 
ATOM      8  O   UNL     1       4.825   3.535  17.511  0.00  0.00    +0.000 OA
ATOM      9  C   UNL     1       3.381   4.168  19.281  0.00  0.00    +0.000 A 
ATOM     10  C   UNL     1       3.441   2.901  19.881  0.00  0.00    +0.000 A 
ATOM     11  C   UNL     1       2.753   2.653  21.068  0.00  0.00    +0.000 A 
ATOM     12  C   UNL     1       2.013   3.668  21.658  0.00  0.00    +0.000 A 
ATOM     13  C   UNL     1       1.948   4.929  21.056  0.00  0.00    +0.000 A 
ATOM     14  C   UNL     1       2.621   5.207  19.848  0.00  0.00    +0.000 A 
ATOM     15  C   UNL     1       2.557   6.512  19.160  0.00  0.00    +0.000 A 
ATOM     16  C   UNL     1       1.783   7.588  19.630  0.00  0.00    +0.000 A 
ATOM     17  H   UNL     1       4.572   5.790  16.601  0.00  0.00    +0.000 HD
ENDBRANCH   1   2
BRANCH   1  18
ATOM     18  C   UNL     1       0.096   9.649  20.726  0.00  0.00    +0.000 C 
BRANCH  18  22
ATOM     19  C   UNL     1      -1.183  13.094  23.084  0.00  0.00    +0.000 A 
ATOM     20  C   UNL     1      -1.689  11.821  23.342  0.00  0.00    +0.000 A 
ATOM     21  C   UNL     1      -1.224  10.721  22.607  0.00  0.00    +0.000 A 
ATOM     22  C   UNL     1      -0.264  10.870  21.582  0.00  0.00    +0.000 A 
ATOM     23  C   UNL     1       0.295  12.143  21.408  0.00  0.00    +0.000 A 
ATOM     24  C   UNL     1      -0.167  13.245  22.144  0.00  0.00    +0.000 A 
BRANCH  19  26
ATOM     25  N   UNL     1      -2.162  15.167  24.307  0.00  0.00    +0.000 NA
ATOM     26  C   UNL     1      -1.738  14.243  23.745  0.00  0.00    +0.000 C 
ENDBRANCH  19  26
ENDBRANCH  18  22
ENDBRANCH   1  18
BRANCH   1  27
ATOM     27  C   UNL     1       0.370  10.852  18.514  0.00  0.00    +0.000 C 
BRANCH  27  28
ATOM     28  C   UNL     1      -1.129  10.835  18.266  0.00  0.00    +0.000 A 
ATOM     29  C   UNL     1      -1.883  11.944  18.693  0.00  0.00    +0.000 A 
ATOM     30  C   UNL     1      -3.279  11.939  18.621  0.00  0.00    +0.000 A 
ATOM     31  C   UNL     1      -3.946  10.830  18.101  0.00  0.00    +0.000 A 
ATOM     32  C   UNL     1      -3.203   9.776  17.557  0.00  0.00    +0.000 A 
ATOM     33  C   UNL     1      -1.800   9.785  17.626  0.00  0.00    +0.000 A 
BRANCH  31  34
ATOM     34  C   UNL     1      -5.379  10.748  18.208  0.00  0.00    +0.000 C 
ATOM     35  N   UNL     1      -6.533  10.730  18.270  0.00  0.00    +0.000 NA
ENDBRANCH  31  34
ENDBRANCH  27  28
ENDBRANCH   1  27
TORSDOF 7
ENDMDL
MODEL 6
REMARK VINA RESULT:      -8.2      1.466      2.648
REMARK  Name = 
REMARK  7 active torsions:
REMARK  status: ('A' for Active; 'I' for Inactive)
REMARK    1  A    between atoms: C_2  and  C_3
REMARK    2  A    between atoms: C_6  and  C_7
REMARK    3  A    between atoms: C_7  and  N_8
REMARK    4  A    between atoms: N_8  and  C_9
REMARK    5  A    between atoms: N_8  and  C_18
REMARK    6  A    between atoms: C_9  and  C_10
REMARK    7  A    between atoms: C_13  and  C_14
REMARK                            x       y       z     vdW  Elec       q    Type
REMARK                         _______ _______ _______ _____ _____    ______ ____
ROOT
ATOM      1  N   UNL     1       0.514   9.736  19.717  0.00  0.00    +0.000 N 
ENDROOT
BRANCH   1   2
ATOM      2  C   UNL     1       1.415   8.801  19.179  0.00  0.00    +0.000 A 
ATOM      3  C   UNL     1       2.175   9.076  18.035  0.00  0.00    +0.000 A 
ATOM      4  C   UNL     1       3.081   8.143  17.507  0.00  0.00    +0.000 A 
ATOM      5  C   UNL     1       3.235   6.899  18.118  0.00  0.00    +0.000 A 
ATOM      6  N   UNL     1       4.125   5.966  17.572  0.00  0.00    +0.000 N 
ATOM      7  C   UNL     1       4.316   4.699  18.073  0.00  0.00    +0.000 A 
ATOM      8  O   UNL     1       5.098   3.921  17.537  0.00  0.00    +0.000 OA
ATOM      9  C   UNL     1       3.542   4.311  19.283  0.00  0.00    +0.000 A 
ATOM     10  C   UNL     1       3.701   3.020  19.811  0.00  0.00    +0.000 A 
ATOM     11  C   UNL     1       3.000   2.639  20.954  0.00  0.00    +0.000 A 
ATOM     12  C   UNL     1       2.148   3.543  21.572  0.00  0.00    +0.000 A 
ATOM     13  C   UNL     1       1.985   4.827  21.041  0.00  0.00    +0.000 A 
ATOM     14  C   UNL     1       2.669   5.239  19.878  0.00  0.00    +0.000 A 
ATOM     15  C   UNL     1       2.505   6.571  19.264  0.00  0.00    +0.000 A 
ATOM     16  C   UNL     1       1.617   7.540  19.763  0.00  0.00    +0.000 A 
ATOM     17  H   UNL     1       4.663   6.195  16.748  0.00  0.00    +0.000 HD
ENDBRANCH   1   2
BRANCH   1  18
ATOM     18  C   UNL     1       0.031  10.854  18.867  0.00  0.00    +0.000 C 
BRANCH  18  22
ATOM     19  C   UNL     1      -4.284  11.064  18.240  0.00  0.00    +0.000 A 
ATOM     20  C   UNL     1      -3.610  12.071  18.928  0.00  0.00    +0.000 A 
ATOM     21  C   UNL     1      -2.217  12.009  19.071  0.00  0.00    +0.000 A 
ATOM     22  C   UNL     1      -1.469  10.929  18.554  0.00  0.00    +0.000 A 
ATOM     23  C   UNL     1      -2.159   9.981  17.788  0.00  0.00    +0.000 A 
ATOM     24  C   UNL     1      -3.553  10.041  17.641  0.00  0.00    +0.000 A 
BRANCH  19  26
ATOM     25  N   UNL     1      -6.880  11.057  18.117  0.00  0.00    +0.000 NA
ATOM     26  C   UNL     1      -5.721  11.054  18.191  0.00  0.00    +0.000 C 
ENDBRANCH  19  26
ENDBRANCH  18  22
ENDBRANCH   1  18
BRANCH   1  27
ATOM     27  C   UNL     1       0.581   9.964  21.173  0.00  0.00    +0.000 C 
BRANCH  27  28
ATOM     28  C   UNL     1       0.184  11.347  21.661  0.00  0.00    +0.000 A 
ATOM     29  C   UNL     1      -0.865  11.444  22.595  0.00  0.00    +0.000 A 
ATOM     30  C   UNL     1      -1.372  12.687  22.983  0.00  0.00    +0.000 A 
ATOM     31  C   UNL     1      -0.825  13.858  22.460  0.00  0.00    +0.000 A 
ATOM     32  C   UNL     1       0.299  13.778  21.630  0.00  0.00    +0.000 A 
ATOM     33  C   UNL     1       0.811  12.528  21.244  0.00  0.00    +0.000 A 
BRANCH  31  34
ATOM     34  C   UNL     1      -1.473  15.118  22.710  0.00  0.00    +0.000 C 
ATOM     35  N   UNL     1      -1.999  16.137  22.860  0.00  0.00    +0.000 NA
ENDBRANCH  31  34
ENDBRANCH  27  28
ENDBRANCH   1  27
TORSDOF 7
ENDMDL
MODEL 7
REMARK VINA RESULT:      -8.1      0.870      1.160
REMARK  Name = 
REMARK  7 active torsions:
REMARK  status: ('A' for Active; 'I' for Inactive)
REMARK    1  A    between atoms: C_2  and  C_3
REMARK    2  A    between atoms: C_6  and  C_7
REMARK    3  A    between atoms: C_7  and  N_8
REMARK    4  A    between atoms: N_8  and  C_9
REMARK    5  A    between atoms: N_8  and  C_18
REMARK    6  A    between atoms: C_9  and  C_10
REMARK    7  A    between atoms: C_13  and  C_14
REMARK                            x       y       z     vdW  Elec       q    Type
REMARK                         _______ _______ _______ _____ _____    ______ ____
ROOT
ATOM      1  N   UNL     1       1.263   9.007  20.062  0.00  0.00    +0.000 N 
ENDROOT
BRANCH   1   2
ATOM      2  C   UNL     1       1.704   7.682  19.905  0.00  0.00    +0.000 A 
ATOM      3  C   UNL     1       1.313   6.661  20.781  0.00  0.00    +0.000 A 
ATOM      4  C   UNL     1       1.749   5.337  20.615  0.00  0.00    +0.000 A 
ATOM      5  C   UNL     1       2.602   5.012  19.561  0.00  0.00    +0.000 A 
ATOM      6  N   UNL     1       3.049   3.693  19.416  0.00  0.00    +0.000 N 
ATOM      7  C   UNL     1       3.926   3.279  18.439  0.00  0.00    +0.000 A 
ATOM      8  O   UNL     1       4.294   2.112  18.377  0.00  0.00    +0.000 OA
ATOM      9  C   UNL     1       4.407   4.298  17.467  0.00  0.00    +0.000 A 
ATOM     10  C   UNL     1       5.313   3.914  16.467  0.00  0.00    +0.000 A 
ATOM     11  C   UNL     1       5.765   4.846  15.535  0.00  0.00    +0.000 A 
ATOM     12  C   UNL     1       5.310   6.155  15.594  0.00  0.00    +0.000 A 
ATOM     13  C   UNL     1       4.411   6.539  16.596  0.00  0.00    +0.000 A 
ATOM     14  C   UNL     1       3.946   5.624  17.562  0.00  0.00    +0.000 A 
ATOM     15  C   UNL     1       3.023   5.989  18.655  0.00  0.00    +0.000 A 
ATOM     16  C   UNL     1       2.553   7.299  18.854  0.00  0.00    +0.000 A 
ATOM     17  H   UNL     1       2.746   2.976  20.061  0.00  0.00    +0.000 HD
ENDBRANCH   1   2
BRANCH   1  18
ATOM     18  C   UNL     1       1.109   9.870  18.862  0.00  0.00    +0.000 C 
BRANCH  18  22
ATOM     19  C   UNL     1      -2.871  11.229  17.691  0.00  0.00    +0.000 A 
ATOM     20  C   UNL     1      -2.625   9.885  17.965  0.00  0.00    +0.000 A 
ATOM     21  C   UNL     1      -1.352   9.480  18.392  0.00  0.00    +0.000 A 
ATOM     22  C   UNL     1      -0.291  10.401  18.528  0.00  0.00    +0.000 A 
ATOM     23  C   UNL     1      -0.590  11.756  18.337  0.00  0.00    +0.000 A 
ATOM     24  C   UNL     1      -1.864  12.165  17.912  0.00  0.00    +0.000 A 
BRANCH  19  26
ATOM     25  N   UNL     1      -5.142  12.002  16.691  0.00  0.00    +0.000 NA
ATOM     26  C   UNL     1      -4.134  11.638  17.140  0.00  0.00    +0.000 C 
ENDBRANCH  19  26
ENDBRANCH  18  22
ENDBRANCH   1  18
BRANCH   1  27
ATOM     27  C   UNL     1       1.580   9.667  21.342  0.00  0.00    +0.000 C 
BRANCH  27  28
ATOM     28  C   UNL     1       0.485  10.527  21.951  0.00  0.00    +0.000 A 
ATOM     29  C   UNL     1      -0.405   9.921  22.858  0.00  0.00    +0.000 A 
ATOM     30  C   UNL     1      -1.515  10.613  23.350  0.00  0.00    +0.000 A 
ATOM     31  C   UNL     1      -1.744  11.933  22.960  0.00  0.00    +0.000 A 
ATOM     32  C   UNL     1      -0.799  12.584  22.160  0.00  0.00    +0.000 A 
ATOM     33  C   UNL     1       0.319  11.889  21.670  0.00  0.00    +0.000 A 
BRANCH  31  34
ATOM     34  C   UNL     1      -2.984  12.572  23.313  0.00  0.00    +0.000 C 
ATOM     35  N   UNL     1      -4.006  13.051  23.566  0.00  0.00    +0.000 NA
ENDBRANCH  31  34
ENDBRANCH  27  28
ENDBRANCH   1  27
TORSDOF 7
ENDMDL
MODEL 8
REMARK VINA RESULT:      -8.1      2.214      3.189
REMARK  Name = 
REMARK  7 active torsions:
REMARK  status: ('A' for Active; 'I' for Inactive)
REMARK    1  A    between atoms: C_2  and  C_3
REMARK    2  A    between atoms: C_6  and  C_7
REMARK    3  A    between atoms: C_7  and  N_8
REMARK    4  A    between atoms: N_8  and  C_9
REMARK    5  A    between atoms: N_8  and  C_18
REMARK    6  A    between atoms: C_9  and  C_10
REMARK    7  A    between atoms: C_13  and  C_14
REMARK                            x       y       z     vdW  Elec       q    Type
REMARK                         _______ _______ _______ _____ _____    ______ ____
ROOT
ATOM      1  N   UNL     1       0.632  10.036  19.535  0.00  0.00    +0.000 N 
ENDROOT
BRANCH   1   2
ATOM      2  C   UNL     1       1.203   8.765  19.720  0.00  0.00    +0.000 A 
ATOM      3  C   UNL     1       0.889   7.964  20.826  0.00  0.00    +0.000 A 
ATOM      4  C   UNL     1       1.455   6.692  21.001  0.00  0.00    +0.000 A 
ATOM      5  C   UNL     1       2.363   6.199  20.066  0.00  0.00    +0.000 A 
ATOM      6  N   UNL     1       2.939   4.938  20.260  0.00  0.00    +0.000 N 
ATOM      7  C   UNL     1       3.878   4.381  19.422  0.00  0.00    +0.000 A 
ATOM      8  O   UNL     1       4.358   3.278  19.658  0.00  0.00    +0.000 OA
ATOM      9  C   UNL     1       4.285   5.165  18.224  0.00  0.00    +0.000 A 
ATOM     10  C   UNL     1       5.250   4.634  17.356  0.00  0.00    +0.000 A 
ATOM     11  C   UNL     1       5.635   5.341  16.218  0.00  0.00    +0.000 A 
ATOM     12  C   UNL     1       5.054   6.571  15.943  0.00  0.00    +0.000 A 
ATOM     13  C   UNL     1       4.096   7.102  16.813  0.00  0.00    +0.000 A 
ATOM     14  C   UNL     1       3.695   6.418  17.980  0.00  0.00    +0.000 A 
ATOM     15  C   UNL     1       2.713   6.953  18.942  0.00  0.00    +0.000 A 
ATOM     16  C   UNL     1       2.113   8.217  18.802  0.00  0.00    +0.000 A 
ATOM     17  H   UNL     1       2.690   4.380  21.066  0.00  0.00    +0.000 HD
ENDBRANCH   1   2
BRANCH   1  18
ATOM     18  C   UNL     1       0.114  10.414  18.195  0.00  0.00    +0.000 C 
BRANCH  18  22
ATOM     19  C   UNL     1      -4.207  11.002  18.011  0.00  0.00    +0.000 A 
ATOM     20  C   UNL     1      -3.396  11.874  18.734  0.00  0.00    +0.000 A 
ATOM     21  C   UNL     1      -2.005  11.697  18.735  0.00  0.00    +0.000 A 
ATOM     22  C   UNL     1      -1.395  10.632  18.037  0.00  0.00    +0.000 A 
ATOM     23  C   UNL     1      -2.225   9.827  17.245  0.00  0.00    +0.000 A 
ATOM     24  C   UNL     1      -3.618  10.004  17.240  0.00  0.00    +0.000 A 
BRANCH  19  26
ATOM     25  N   UNL     1      -6.795  11.155  18.199  0.00  0.00    +0.000 NA
ATOM     26  C   UNL     1      -5.639  11.100  18.100  0.00  0.00    +0.000 C 
ENDBRANCH  19  26
ENDBRANCH  18  22
ENDBRANCH   1  18
BRANCH   1  27
ATOM     27  C   UNL     1       1.121  11.119  20.409  0.00  0.00    +0.000 C 
BRANCH  27  28
ATOM     28  C   UNL     1       1.380  12.461  19.744  0.00  0.00    +0.000 A 
ATOM     29  C   UNL     1       2.348  12.519  18.725  0.00  0.00    +0.000 A 
ATOM     30  C   UNL     1       2.734  13.740  18.165  0.00  0.00    +0.000 A 
ATOM     31  C   UNL     1       2.143  14.926  18.602  0.00  0.00    +0.000 A 
ATOM     32  C   UNL     1       1.091  14.868  19.523  0.00  0.00    +0.000 A 
ATOM     33  C   UNL     1       0.700  13.639  20.081  0.00  0.00    +0.000 A 
BRANCH  31  34
ATOM     34  C   UNL     1       2.678  16.188  18.166  0.00  0.00    +0.000 C 
ATOM     35  N   UNL     1       3.133  17.178  17.776  0.00  0.00    +0.000 NA
ENDBRANCH  31  34
ENDBRANCH  27  28
ENDBRANCH   1  27
TORSDOF 7
ENDMDL
MODEL 9
REMARK VINA RESULT:      -7.9      2.614      3.433
REMARK  Name = 
REMARK  7 active torsions:
REMARK  status: ('A' for Active; 'I' for Inactive)
REMARK    1  A    between atoms: C_2  and  C_3
REMARK    2  A    between atoms: C_6  and  C_7
REMARK    3  A    between atoms: C_7  and  N_8
REMARK    4  A    between atoms: N_8  and  C_9
REMARK    5  A    between atoms: N_8  and  C_18
REMARK    6  A    between atoms: C_9  and  C_10
REMARK    7  A    between atoms: C_13  and  C_14
REMARK                            x       y       z     vdW  Elec       q    Type
REMARK                         _______ _______ _______ _____ _____    ______ ____
ROOT
ATOM      1  N   UNL     1       0.688  10.576  19.777  0.00  0.00    +0.000 N 
ENDROOT
BRANCH   1   2
ATOM      2  C   UNL     1       1.113   9.253  19.991  0.00  0.00    +0.000 A 
ATOM      3  C   UNL     1       0.691   8.508  21.100  0.00  0.00    +0.000 A 
ATOM      4  C   UNL     1       1.111   7.185  21.304  0.00  0.00    +0.000 A 
ATOM      5  C   UNL     1       1.979   6.581  20.395  0.00  0.00    +0.000 A 
ATOM      6  N   UNL     1       2.409   5.268  20.618  0.00  0.00    +0.000 N 
ATOM      7  C   UNL     1       3.298   4.599  19.808  0.00  0.00    +0.000 A 
ATOM      8  O   UNL     1       3.650   3.455  20.068  0.00  0.00    +0.000 OA
ATOM      9  C   UNL     1       3.812   5.316  18.609  0.00  0.00    +0.000 A 
ATOM     10  C   UNL     1       4.731   4.669  17.768  0.00  0.00    +0.000 A 
ATOM     11  C   UNL     1       5.213   5.313  16.630  0.00  0.00    +0.000 A 
ATOM     12  C   UNL     1       4.775   6.594  16.326  0.00  0.00    +0.000 A 
ATOM     13  C   UNL     1       3.864   7.240  17.169  0.00  0.00    +0.000 A 
ATOM     14  C   UNL     1       3.368   6.622  18.335  0.00  0.00    +0.000 A 
ATOM     15  C   UNL     1       2.431   7.276  19.270  0.00  0.00    +0.000 A 
ATOM     16  C   UNL     1       1.976   8.595  19.100  0.00  0.00    +0.000 A 
ATOM     17  H   UNL     1       2.084   4.753  21.425  0.00  0.00    +0.000 HD
ENDBRANCH   1   2
BRANCH   1  18
ATOM     18  C   UNL     1      -0.763  10.892  19.825  0.00  0.00    +0.000 C 
BRANCH  18  22
ATOM     19  C   UNL     1      -2.873  10.425  16.033  0.00  0.00    +0.000 A 
ATOM     20  C   UNL     1      -1.893   9.515  16.423  0.00  0.00    +0.000 A 
ATOM     21  C   UNL     1      -1.266   9.655  17.670  0.00  0.00    +0.000 A 
ATOM     22  C   UNL     1      -1.584  10.719  18.542  0.00  0.00    +0.000 A 
ATOM     23  C   UNL     1      -2.637  11.563  18.164  0.00  0.00    +0.000 A 
ATOM     24  C   UNL     1      -3.268  11.424  16.918  0.00  0.00    +0.000 A 
BRANCH  19  26
ATOM     25  N   UNL     1      -3.868  10.283  13.636  0.00  0.00    +0.000 NA
ATOM     26  C   UNL     1      -3.435  10.363  14.711  0.00  0.00    +0.000 C 
ENDBRANCH  19  26
ENDBRANCH  18  22
ENDBRANCH   1  18
BRANCH   1  27
ATOM     27  C   UNL     1       1.543  11.419  18.920  0.00  0.00    +0.000 C 
BRANCH  27  28
ATOM     28  C   UNL     1       1.642  12.887  19.298  0.00  0.00    +0.000 A 
ATOM     29  C   UNL     1       0.876  13.813  18.566  0.00  0.00    +0.000 A 
ATOM     30  C   UNL     1       1.020  15.189  18.767  0.00  0.00    +0.000 A 
ATOM     31  C   UNL     1       1.920  15.664  19.721  0.00  0.00    +0.000 A 
ATOM     32  C   UNL     1       2.593  14.751  20.542  0.00  0.00    +0.000 A 
ATOM     33  C   UNL     1       2.443  13.369  20.342  0.00  0.00    +0.000 A 
BRANCH  31  34
ATOM     34  C   UNL     1       2.205  17.072  19.788  0.00  0.00    +0.000 C 
ATOM     35  N   UNL     1       2.486  18.193  19.836  0.00  0.00    +0.000 NA
ENDBRANCH  31  34
ENDBRANCH  27  28
ENDBRANCH   1  27
TORSDOF 7
ENDMDL
