MODEL 1
REMARK VINA RESULT:      -8.7      0.000      0.000
REMARK  Name = 
REMARK  4 active torsions:
REMARK  status: ('A' for Active; 'I' for Inactive)
REMARK    1  A    between atoms: C_4  and  C_5
REMARK    2  A    between atoms: C_5  and  N_6
REMARK    3  A    between atoms: C_8  and  C_9
REMARK    4  A    between atoms: C_17  and  O_18
REMARK                            x       y       z     vdW  Elec       q    Type
REMARK                         _______ _______ _______ _____ _____    ______ ____
ROOT
ATOM      1  O   UNL     1       3.118   8.186  17.987  0.00  0.00    +0.000 OA
ATOM      2  C   UNL     1       3.264   6.975  17.902  0.00  0.00    +0.000 A 
ATOM      3  C   UNL     1       4.566   6.404  17.538  0.00  0.00    +0.000 A 
ATOM      4  C   UNL     1       4.834   5.089  17.508  0.00  0.00    +0.000 A 
ATOM      5  C   UNL     1       3.748   4.169  17.905  0.00  0.00    +0.000 A 
ATOM      6  C   UNL     1       3.894   2.785  18.067  0.00  0.00    +0.000 A 
ATOM      7  C   UNL     1       2.782   1.964  18.317  0.00  0.00    +0.000 A 
ATOM      8  C   UNL     1       1.516   2.526  18.439  0.00  0.00    +0.000 A 
ATOM      9  C   UNL     1       1.351   3.899  18.363  0.00  0.00    +0.000 A 
ATOM     10  C   UNL     1       2.466   4.697  18.108  0.00  0.00    +0.000 A 
ATOM     11  O   UNL     1       2.225   6.084  18.085  0.00  0.00    +0.000 OA
ENDROOT
BRANCH   8  12
ATOM     12  O   UNL     1       0.408   1.760  18.640  0.00  0.00    +0.000 OA
ATOM     13  H   UNL     1      -0.377   2.331  18.636  0.00  0.00    +0.000 HD
ENDBRANCH   8  12
BRANCH   4  14
ATOM     14  C   UNL     1       6.201   4.613  17.056  0.00  0.00    +0.000 C 
BRANCH  14  15
ATOM     15  N   UNL     1       6.437   4.735  15.625  0.00  0.00    +0.000 N 
ATOM     16  C   UNL     1       5.778   4.132  14.591  0.00  0.00    +0.000 A 
ATOM     17  C   UNL     1       6.600   4.380  13.517  0.00  0.00    +0.000 A 
ATOM     18  N   UNL     1       7.597   5.238  13.883  0.00  0.00    +0.000 NA
ATOM     19  N   UNL     1       7.462   5.485  15.179  0.00  0.00    +0.000 NA
BRANCH  17  20
ATOM     20  C   UNL     1       6.483   3.725  12.159  0.00  0.00    +0.000 C 
ATOM     21  C   UNL     1       5.993   2.298  12.045  0.00  0.00    +0.000 C 
ATOM     22  C   UNL     1       5.070   3.413  11.692  0.00  0.00    +0.000 C 
ENDBRANCH  17  20
ENDBRANCH  14  15
ENDBRANCH   4  14
TORSDOF 4
ENDMDL
MODEL 2
REMARK VINA RESULT:      -8.2      1.198      1.198
REMARK  Name = 
REMARK  4 active torsions:
REMARK  status: ('A' for Active; 'I' for Inactive)
REMARK    1  A    between atoms: C_4  and  C_5
REMARK    2  A    between atoms: C_5  and  N_6
REMARK    3  A    between atoms: C_8  and  C_9
REMARK    4  A    between atoms: C_17  and  O_18
REMARK                            x       y       z     vdW  Elec       q    Type
REMARK                         _______ _______ _______ _____ _____    ______ ____
ROOT
ATOM      1  O   UNL     1       2.997   8.211  17.482  0.00  0.00    +0.000 OA
ATOM      2  C   UNL     1       3.198   7.071  17.876  0.00  0.00    +0.000 A 
ATOM      3  C   UNL     1       4.418   6.352  17.491  0.00  0.00    +0.000 A 
ATOM      4  C   UNL     1       4.756   5.136  17.947  0.00  0.00    +0.000 A 
ATOM      5  C   UNL     1       3.850   4.508  18.931  0.00  0.00    +0.000 A 
ATOM      6  C   UNL     1       4.119   3.314  19.614  0.00  0.00    +0.000 A 
ATOM      7  C   UNL     1       3.147   2.714  20.433  0.00  0.00    +0.000 A 
ATOM      8  C   UNL     1       1.907   3.323  20.601  0.00  0.00    +0.000 A 
ATOM      9  C   UNL     1       1.641   4.543  20.002  0.00  0.00    +0.000 A 
ATOM     10  C   UNL     1       2.615   5.120  19.188  0.00  0.00    +0.000 A 
ATOM     11  O   UNL     1       2.287   6.377  18.648  0.00  0.00    +0.000 OA
ENDROOT
BRANCH   8  12
ATOM     12  O   UNL     1       0.926   2.753  21.353  0.00  0.00    +0.000 OA
ATOM     13  H   UNL     1       0.631   3.389  22.025  0.00  0.00    +0.000 HD
ENDBRANCH   8  12
BRANCH   4  14
ATOM     14  C   UNL     1       6.014   4.464  17.430  0.00  0.00    +0.000 C 
BRANCH  14  15
ATOM     15  N   UNL     1       6.273   4.683  16.015  0.00  0.00    +0.000 N 
ATOM     16  C   UNL     1       5.689   4.086  14.933  0.00  0.00    +0.000 A 
ATOM     17  C   UNL     1       6.513   4.456  13.897  0.00  0.00    +0.000 A 
ATOM     18  N   UNL     1       7.429   5.370  14.335  0.00  0.00    +0.000 NA
ATOM     19  N   UNL     1       7.244   5.535  15.637  0.00  0.00    +0.000 NA
BRANCH  17  20
ATOM     20  C   UNL     1       6.481   3.869  12.503  0.00  0.00    +0.000 C 
ATOM     21  C   UNL     1       5.948   2.471  12.282  0.00  0.00    +0.000 C 
ATOM     22  C   UNL     1       5.101   3.639  11.912  0.00  0.00    +0.000 C 
ENDBRANCH  17  20
ENDBRANCH  14  15
ENDBRANCH   4  14
TORSDOF 4
ENDMDL
MODEL 3
REMARK VINA RESULT:      -8.0      0.993      1.231
REMARK  Name = 
REMARK  4 active torsions:
REMARK  status: ('A' for Active; 'I' for Inactive)
REMARK    1  A    between atoms: C_4  and  C_5
REMARK    2  A    between atoms: C_5  and  N_6
REMARK    3  A    between atoms: C_8  and  C_9
REMARK    4  A    between atoms: C_17  and  O_18
REMARK                            x       y       z     vdW  Elec       q    Type
REMARK                         _______ _______ _______ _____ _____    ______ ____
ROOT
ATOM      1  O   UNL     1       1.545   8.525  17.913  0.00  0.00    +0.000 OA
ATOM      2  C   UNL     1       2.185   7.483  17.885  0.00  0.00    +0.000 A 
ATOM      3  C   UNL     1       3.632   7.502  17.644  0.00  0.00    +0.000 A 
ATOM      4  C   UNL     1       4.420   6.417  17.684  0.00  0.00    +0.000 A 
ATOM      5  C   UNL     1       3.781   5.130  18.031  0.00  0.00    +0.000 A 
ATOM      6  C   UNL     1       4.472   3.933  18.257  0.00  0.00    +0.000 A 
ATOM      7  C   UNL     1       3.782   2.724  18.451  0.00  0.00    +0.000 A 
ATOM      8  C   UNL     1       2.390   2.712  18.455  0.00  0.00    +0.000 A 
ATOM      9  C   UNL     1       1.680   3.892  18.314  0.00  0.00    +0.000 A 
ATOM     10  C   UNL     1       2.383   5.080  18.115  0.00  0.00    +0.000 A 
ATOM     11  O   UNL     1       1.594   6.242  18.022  0.00  0.00    +0.000 OA
ENDROOT
BRANCH   8  12
ATOM     12  O   UNL     1       1.686   1.555  18.600  0.00  0.00    +0.000 OA
ATOM     13  H   UNL     1       1.181   1.593  19.429  0.00  0.00    +0.000 HD
ENDBRANCH   8  12
BRANCH   4  14
ATOM     14  C   UNL     1       5.895   6.549  17.357  0.00  0.00    +0.000 C 
BRANCH  14  15
ATOM     15  N   UNL     1       6.292   5.916  16.108  0.00  0.00    +0.000 N 
ATOM     16  C   UNL     1       5.536   5.181  15.240  0.00  0.00    +0.000 A 
ATOM     17  C   UNL     1       6.480   4.609  14.419  0.00  0.00    +0.000 A 
ATOM     18  N   UNL     1       7.711   5.133  14.692  0.00  0.00    +0.000 NA
ATOM     19  N   UNL     1       7.577   5.972  15.710  0.00  0.00    +0.000 NA
BRANCH  17  20
ATOM     20  C   UNL     1       6.217   3.494  13.431  0.00  0.00    +0.000 C 
ATOM     21  C   UNL     1       5.208   3.687  12.322  0.00  0.00    +0.000 C 
ATOM     22  C   UNL     1       6.661   3.757  12.002  0.00  0.00    +0.000 C 
ENDBRANCH  17  20
ENDBRANCH  14  15
ENDBRANCH   4  14
TORSDOF 4
ENDMDL
MODEL 4
REMARK VINA RESULT:      -7.7      0.982      3.258
REMARK  Name = 
REMARK  4 active torsions:
REMARK  status: ('A' for Active; 'I' for Inactive)
REMARK    1  A    between atoms: C_4  and  C_5
REMARK    2  A    between atoms: C_5  and  N_6
REMARK    3  A    between atoms: C_8  and  C_9
REMARK    4  A    between atoms: C_17  and  O_18
REMARK                            x       y       z     vdW  Elec       q    Type
REMARK                         _______ _______ _______ _____ _____    ______ ____
ROOT
ATOM      1  O   UNL     1       1.955   2.140  18.255  0.00  0.00    +0.000 OA
ATOM      2  C   UNL     1       2.518   3.218  18.130  0.00  0.00    +0.000 A 
ATOM      3  C   UNL     1       3.930   3.282  17.738  0.00  0.00    +0.000 A 
ATOM      4  C   UNL     1       4.597   4.421  17.495  0.00  0.00    +0.000 A 
ATOM      5  C   UNL     1       3.837   5.684  17.596  0.00  0.00    +0.000 A 
ATOM      6  C   UNL     1       4.334   6.945  17.239  0.00  0.00    +0.000 A 
ATOM      7  C   UNL     1       3.594   8.112  17.490  0.00  0.00    +0.000 A 
ATOM      8  C   UNL     1       2.333   8.024  18.072  0.00  0.00    +0.000 A 
ATOM      9  C   UNL     1       1.782   6.788  18.362  0.00  0.00    +0.000 A 
ATOM     10  C   UNL     1       2.535   5.640  18.112  0.00  0.00    +0.000 A 
ATOM     11  O   UNL     1       1.892   4.421  18.395  0.00  0.00    +0.000 OA
ENDROOT
BRANCH   8  12
ATOM     12  O   UNL     1       1.602   9.135  18.368  0.00  0.00    +0.000 OA
ATOM     13  H   UNL     1       2.192   9.906  18.391  0.00  0.00    +0.000 HD
ENDBRANCH   8  12
BRANCH   4  14
ATOM     14  C   UNL     1       6.075   4.367  17.156  0.00  0.00    +0.000 C 
BRANCH  14  15
ATOM     15  N   UNL     1       6.378   4.595  15.751  0.00  0.00    +0.000 N 
ATOM     16  C   UNL     1       5.739   4.110  14.645  0.00  0.00    +0.000 A 
ATOM     17  C   UNL     1       6.616   4.407  13.629  0.00  0.00    +0.000 A 
ATOM     18  N   UNL     1       7.632   5.186  14.105  0.00  0.00    +0.000 NA
ATOM     19  N   UNL     1       7.452   5.331  15.410  0.00  0.00    +0.000 NA
BRANCH  17  20
ATOM     20  C   UNL     1       6.531   3.872  12.217  0.00  0.00    +0.000 C 
ATOM     21  C   UNL     1       6.272   2.401  11.979  0.00  0.00    +0.000 C 
ATOM     22  C   UNL     1       5.163   3.376  11.778  0.00  0.00    +0.000 C 
ENDBRANCH  17  20
ENDBRANCH  14  15
ENDBRANCH   4  14
TORSDOF 4
ENDMDL
MODEL 5
REMARK VINA RESULT:      -7.5      2.006      3.443
REMARK  Name = 
REMARK  4 active torsions:
REMARK  status: ('A' for Active; 'I' for Inactive)
REMARK    1  A    between atoms: C_4  and  C_5
REMARK    2  A    between atoms: C_5  and  N_6
REMARK    3  A    between atoms: C_8  and  C_9
REMARK    4  A    between atoms: C_17  and  O_18
REMARK                            x       y       z     vdW  Elec       q    Type
REMARK                         _______ _______ _______ _____ _____    ______ ____
ROOT
ATOM      1  O   UNL     1       4.265   2.748  19.161  0.00  0.00    +0.000 OA
ATOM      2  C   UNL     1       3.986   3.935  19.065  0.00  0.00    +0.000 A 
ATOM      3  C   UNL     1       4.615   4.768  18.033  0.00  0.00    +0.000 A 
ATOM      4  C   UNL     1       4.302   6.052  17.804  0.00  0.00    +0.000 A 
ATOM      5  C   UNL     1       3.226   6.643  18.627  0.00  0.00    +0.000 A 
ATOM      6  C   UNL     1       2.677   7.917  18.427  0.00  0.00    +0.000 A 
ATOM      7  C   UNL     1       1.750   8.456  19.335  0.00  0.00    +0.000 A 
ATOM      8  C   UNL     1       1.339   7.710  20.435  0.00  0.00    +0.000 A 
ATOM      9  C   UNL     1       1.803   6.418  20.616  0.00  0.00    +0.000 A 
ATOM     10  C   UNL     1       2.728   5.902  19.707  0.00  0.00    +0.000 A 
ATOM     11  O   UNL     1       3.121   4.570  19.935  0.00  0.00    +0.000 OA
ENDROOT
BRANCH   8  12
ATOM     12  O   UNL     1       0.474   8.213  21.359  0.00  0.00    +0.000 OA
ATOM     13  H   UNL     1       0.859   9.015  21.749  0.00  0.00    +0.000 HD
ENDBRANCH   8  12
BRANCH   4  14
ATOM     14  C   UNL     1       5.064   6.833  16.750  0.00  0.00    +0.000 C 
BRANCH  14  15
ATOM     15  N   UNL     1       5.789   6.006  15.798  0.00  0.00    +0.000 N 
ATOM     16  C   UNL     1       5.313   5.331  14.709  0.00  0.00    +0.000 A 
ATOM     17  C   UNL     1       6.364   4.510  14.373  0.00  0.00    +0.000 A 
ATOM     18  N   UNL     1       7.459   4.826  15.126  0.00  0.00    +0.000 NA
ATOM     19  N   UNL     1       7.105   5.780  15.974  0.00  0.00    +0.000 NA
BRANCH  17  20
ATOM     20  C   UNL     1       6.295   3.362  13.391  0.00  0.00    +0.000 C 
ATOM     21  C   UNL     1       5.368   3.439  12.198  0.00  0.00    +0.000 C 
ATOM     22  C   UNL     1       6.830   3.648  11.998  0.00  0.00    +0.000 C 
ENDBRANCH  17  20
ENDBRANCH  14  15
ENDBRANCH   4  14
TORSDOF 4
ENDMDL
MODEL 6
REMARK VINA RESULT:      -7.5      1.542      3.316
REMARK  Name = 
REMARK  4 active torsions:
REMARK  status: ('A' for Active; 'I' for Inactive)
REMARK    1  A    between atoms: C_4  and  C_5
REMARK    2  A    between atoms: C_5  and  N_6
REMARK    3  A    between atoms: C_8  and  C_9
REMARK    4  A    between atoms: C_17  and  O_18
REMARK                            x       y       z     vdW  Elec       q    Type
REMARK                         _______ _______ _______ _____ _____    ______ ____
ROOT
ATOM      1  O   UNL     1       3.299   2.271  19.976  0.00  0.00    +0.000 OA
ATOM      2  C   UNL     1       3.580   3.371  19.520  0.00  0.00    +0.000 A 
ATOM      3  C   UNL     1       4.855   3.587  18.825  0.00  0.00    +0.000 A 
ATOM      4  C   UNL     1       5.203   4.734  18.223  0.00  0.00    +0.000 A 
ATOM      5  C   UNL     1       4.212   5.831  18.235  0.00  0.00    +0.000 A 
ATOM      6  C   UNL     1       4.351   7.038  17.536  0.00  0.00    +0.000 A 
ATOM      7  C   UNL     1       3.427   8.083  17.706  0.00  0.00    +0.000 A 
ATOM      8  C   UNL     1       2.336   7.916  18.554  0.00  0.00    +0.000 A 
ATOM      9  C   UNL     1       2.130   6.707  19.196  0.00  0.00    +0.000 A 
ATOM     10  C   UNL     1       3.061   5.683  19.020  0.00  0.00    +0.000 A 
ATOM     11  O   UNL     1       2.761   4.473  19.672  0.00  0.00    +0.000 OA
ENDROOT
BRANCH   8  12
ATOM     12  O   UNL     1       1.442   8.919  18.777  0.00  0.00    +0.000 OA
ATOM     13  H   UNL     1       0.609   8.707  18.324  0.00  0.00    +0.000 HD
ENDBRANCH   8  12
BRANCH   4  14
ATOM     14  C   UNL     1       6.574   4.862  17.588  0.00  0.00    +0.000 C 
BRANCH  14  15
ATOM     15  N   UNL     1       6.573   4.783  16.135  0.00  0.00    +0.000 N 
ATOM     16  C   UNL     1       5.898   3.916  15.322  0.00  0.00    +0.000 A 
ATOM     17  C   UNL     1       6.494   4.115  14.099  0.00  0.00    +0.000 A 
ATOM     18  N   UNL     1       7.352   5.175  14.167  0.00  0.00    +0.000 NA
ATOM     19  N   UNL     1       7.362   5.607  15.420  0.00  0.00    +0.000 NA
BRANCH  17  20
ATOM     20  C   UNL     1       6.308   3.234  12.884  0.00  0.00    +0.000 C 
ATOM     21  C   UNL     1       5.118   3.441  11.973  0.00  0.00    +0.000 C 
ATOM     22  C   UNL     1       6.459   3.921  11.537  0.00  0.00    +0.000 C 
ENDBRANCH  17  20
ENDBRANCH  14  15
ENDBRANCH   4  14
TORSDOF 4
ENDMDL
MODEL 7
REMARK VINA RESULT:      -7.4      3.655      6.501
REMARK  Name = 
REMARK  4 active torsions:
REMARK  status: ('A' for Active; 'I' for Inactive)
REMARK    1  A    between atoms: C_4  and  C_5
REMARK    2  A    between atoms: C_5  and  N_6
REMARK    3  A    between atoms: C_8  and  C_9
REMARK    4  A    between atoms: C_17  and  O_18
REMARK                            x       y       z     vdW  Elec       q    Type
REMARK                         _______ _______ _______ _____ _____    ______ ____
ROOT
ATOM      1  O   UNL     1       8.380   5.208  19.490  0.00  0.00    +0.000 OA
ATOM      2  C   UNL     1       7.556   5.214  18.586  0.00  0.00    +0.000 A 
ATOM      3  C   UNL     1       6.301   5.962  18.723  0.00  0.00    +0.000 A 
ATOM      4  C   UNL     1       5.388   6.092  17.749  0.00  0.00    +0.000 A 
ATOM      5  C   UNL     1       5.696   5.467  16.446  0.00  0.00    +0.000 A 
ATOM      6  C   UNL     1       4.927   5.624  15.285  0.00  0.00    +0.000 A 
ATOM      7  C   UNL     1       5.215   4.890  14.122  0.00  0.00    +0.000 A 
ATOM      8  C   UNL     1       6.297   4.016  14.101  0.00  0.00    +0.000 A 
ATOM      9  C   UNL     1       7.122   3.899  15.206  0.00  0.00    +0.000 A 
ATOM     10  C   UNL     1       6.817   4.631  16.354  0.00  0.00    +0.000 A 
ATOM     11  O   UNL     1       7.724   4.490  17.421  0.00  0.00    +0.000 OA
ENDROOT
BRANCH   8  12
ATOM     12  O   UNL     1       6.583   3.257  13.007  0.00  0.00    +0.000 OA
ATOM     13  H   UNL     1       6.069   3.584  12.251  0.00  0.00    +0.000 HD
ENDBRANCH   8  12
BRANCH   4  14
ATOM     14  C   UNL     1       4.096   6.838  18.027  0.00  0.00    +0.000 C 
BRANCH  14  15
ATOM     15  N   UNL     1       3.236   6.202  19.014  0.00  0.00    +0.000 N 
ATOM     16  C   UNL     1       2.984   4.873  19.205  0.00  0.00    +0.000 A 
ATOM     17  C   UNL     1       1.903   4.885  20.055  0.00  0.00    +0.000 A 
ATOM     18  N   UNL     1       1.657   6.161  20.475  0.00  0.00    +0.000 NA
ATOM     19  N   UNL     1       2.514   6.962  19.858  0.00  0.00    +0.000 NA
BRANCH  17  20
ATOM     20  C   UNL     1       1.049   3.685  20.398  0.00  0.00    +0.000 C 
ATOM     21  C   UNL     1       1.576   2.287  20.160  0.00  0.00    +0.000 C 
ATOM     22  C   UNL     1       1.545   2.825  21.549  0.00  0.00    +0.000 C 
ENDBRANCH  17  20
ENDBRANCH  14  15
ENDBRANCH   4  14
TORSDOF 4
ENDMDL
MODEL 8
REMARK VINA RESULT:      -7.3      4.066      6.349
REMARK  Name = 
REMARK  4 active torsions:
REMARK  status: ('A' for Active; 'I' for Inactive)
REMARK    1  A    between atoms: C_4  and  C_5
REMARK    2  A    between atoms: C_5  and  N_6
REMARK    3  A    between atoms: C_8  and  C_9
REMARK    4  A    between atoms: C_17  and  O_18
REMARK                            x       y       z     vdW  Elec       q    Type
REMARK                         _______ _______ _______ _____ _____    ______ ____
ROOT
ATOM      1  O   UNL     1       7.445   4.704  18.742  0.00  0.00    +0.000 OA
ATOM      2  C   UNL     1       6.231   4.712  18.596  0.00  0.00    +0.000 A 
ATOM      3  C   UNL     1       5.546   5.913  18.101  0.00  0.00    +0.000 A 
ATOM      4  C   UNL     1       4.234   5.978  17.830  0.00  0.00    +0.000 A 
ATOM      5  C   UNL     1       3.444   4.741  18.011  0.00  0.00    +0.000 A 
ATOM      6  C   UNL     1       2.101   4.592  17.642  0.00  0.00    +0.000 A 
ATOM      7  C   UNL     1       1.386   3.428  17.969  0.00  0.00    +0.000 A 
ATOM      8  C   UNL     1       2.020   2.388  18.641  0.00  0.00    +0.000 A 
ATOM      9  C   UNL     1       3.367   2.473  18.949  0.00  0.00    +0.000 A 
ATOM     10  C   UNL     1       4.059   3.640  18.622  0.00  0.00    +0.000 A 
ATOM     11  O   UNL     1       5.433   3.636  18.929  0.00  0.00    +0.000 OA
ENDROOT
BRANCH   8  12
ATOM     12  O   UNL     1       1.351   1.261  19.012  0.00  0.00    +0.000 OA
ATOM     13  H   UNL     1       1.319   1.216  19.981  0.00  0.00    +0.000 HD
ENDBRANCH   8  12
BRANCH   4  14
ATOM     14  C   UNL     1       3.625   7.293  17.382  0.00  0.00    +0.000 C 
BRANCH  14  15
ATOM     15  N   UNL     1       2.640   7.843  18.301  0.00  0.00    +0.000 N 
ATOM     16  C   UNL     1       1.791   8.898  18.119  0.00  0.00    +0.000 A 
ATOM     17  C   UNL     1       1.321   9.136  19.389  0.00  0.00    +0.000 A 
ATOM     18  N   UNL     1       1.744   8.149  20.234  0.00  0.00    +0.000 NA
ATOM     19  N   UNL     1       2.524   7.331  19.541  0.00  0.00    +0.000 NA
BRANCH  17  20
ATOM     20  C   UNL     1       0.538  10.357  19.816  0.00  0.00    +0.000 C 
ATOM     21  C   UNL     1      -0.130  11.230  18.777  0.00  0.00    +0.000 C 
ATOM     22  C   UNL     1      -0.963  10.296  19.586  0.00  0.00    +0.000 C 
ENDBRANCH  17  20
ENDBRANCH  14  15
ENDBRANCH   4  14
TORSDOF 4
ENDMDL
MODEL 9
REMARK VINA RESULT:      -7.2      2.954      4.899
REMARK  Name = 
REMARK  4 active torsions:
REMARK  status: ('A' for Active; 'I' for Inactive)
REMARK    1  A    between atoms: C_4  and  C_5
REMARK    2  A    between atoms: C_5  and  N_6
REMARK    3  A    between atoms: C_8  and  C_9
REMARK    4  A    between atoms: C_17  and  O_18
REMARK                            x       y       z     vdW  Elec       q    Type
REMARK                         _______ _______ _______ _____ _____    ______ ____
ROOT
ATOM      1  O   UNL     1       1.599   2.460  21.864  0.00  0.00    +0.000 OA
ATOM      2  C   UNL     1       1.874   3.303  21.021  0.00  0.00    +0.000 A 
ATOM      3  C   UNL     1       2.429   2.907  19.722  0.00  0.00    +0.000 A 
ATOM      4  C   UNL     1       2.676   3.756  18.714  0.00  0.00    +0.000 A 
ATOM      5  C   UNL     1       2.325   5.177  18.926  0.00  0.00    +0.000 A 
ATOM      6  C   UNL     1       2.381   6.168  17.937  0.00  0.00    +0.000 A 
ATOM      7  C   UNL     1       2.160   7.519  18.253  0.00  0.00    +0.000 A 
ATOM      8  C   UNL     1       1.846   7.885  19.558  0.00  0.00    +0.000 A 
ATOM      9  C   UNL     1       1.705   6.919  20.540  0.00  0.00    +0.000 A 
ATOM     10  C   UNL     1       1.936   5.584  20.209  0.00  0.00    +0.000 A 
ATOM     11  O   UNL     1       1.734   4.658  21.249  0.00  0.00    +0.000 OA
ENDROOT
BRANCH   8  12
ATOM     12  O   UNL     1       1.664   9.188  19.912  0.00  0.00    +0.000 OA
ATOM     13  H   UNL     1       2.443   9.493  20.405  0.00  0.00    +0.000 HD
ENDBRANCH   8  12
BRANCH   4  14
ATOM     14  C   UNL     1       3.310   3.240  17.436  0.00  0.00    +0.000 C 
BRANCH  14  15
ATOM     15  N   UNL     1       4.663   3.721  17.201  0.00  0.00    +0.000 N 
ATOM     16  C   UNL     1       5.674   3.915  18.100  0.00  0.00    +0.000 A 
ATOM     17  C   UNL     1       6.592   4.640  17.376  0.00  0.00    +0.000 A 
ATOM     18  N   UNL     1       6.205   4.705  16.068  0.00  0.00    +0.000 NA
ATOM     19  N   UNL     1       5.032   4.098  15.962  0.00  0.00    +0.000 NA
BRANCH  17  20
ATOM     20  C   UNL     1       7.798   5.345  17.955  0.00  0.00    +0.000 C 
ATOM     21  C   UNL     1       7.781   6.846  18.141  0.00  0.00    +0.000 C 
ATOM     22  C   UNL     1       7.609   5.965  19.329  0.00  0.00    +0.000 C 
ENDBRANCH  17  20
ENDBRANCH  14  15
ENDBRANCH   4  14
TORSDOF 4
ENDMDL
