MODEL 1
REMARK VINA RESULT:      -8.8      0.000      0.000
REMARK  Name = 
REMARK  5 active torsions:
REMARK  status: ('A' for Active; 'I' for Inactive)
REMARK    1  A    between atoms: C_2  and  C_11
REMARK    2  A    between atoms: N_3  and  C_4
REMARK    3  A    between atoms: C_11  and  C_13
REMARK    4  A    between atoms: N_15  and  C_16
REMARK    5  A    between atoms: C_16  and  C_17
REMARK                            x       y       z     vdW  Elec       q    Type
REMARK                         _______ _______ _______ _____ _____    ______ ____
ROOT
ATOM      1  C   UNL     1       2.271   6.424  19.268  0.00  0.00    +0.000 A 
ATOM      2  C   UNL     1       3.101   6.441  18.159  0.00  0.00    +0.000 A 
ATOM      3  N   UNL     1       3.399   5.148  17.811  0.00  0.00    +0.000 N 
ATOM      4  C   UNL     1       2.722   4.268  18.631  0.00  0.00    +0.000 A 
ATOM      5  C   UNL     1       2.703   2.861  18.661  0.00  0.00    +0.000 A 
ATOM      6  C   UNL     1       1.901   2.223  19.610  0.00  0.00    +0.000 A 
ATOM      7  C   UNL     1       1.129   2.960  20.497  0.00  0.00    +0.000 A 
ATOM      8  C   UNL     1       1.155   4.358  20.462  0.00  0.00    +0.000 A 
ATOM      9  C   UNL     1       1.978   5.040  19.533  0.00  0.00    +0.000 A 
ENDROOT
BRANCH   1  10
ATOM     10  C   UNL     1       1.843   7.632  19.987  0.00  0.00    +0.000 C 
ATOM     11  O   UNL     1       1.608   7.636  21.195  0.00  0.00    +0.000 OA
BRANCH  10  13
ATOM     12  O   UNL     1       1.988   9.038  18.068  0.00  0.00    +0.000 OA
ATOM     13  C   UNL     1       1.597   8.945  19.224  0.00  0.00    +0.000 C 
ATOM     14  N   UNL     1       0.931   9.930  19.942  0.00  0.00    +0.000 N 
ATOM     15  H   UNL     1       0.709   9.719  20.915  0.00  0.00    +0.000 HD
BRANCH  14  16
ATOM     16  C   UNL     1       0.571  11.211  19.443  0.00  0.00    +0.000 A 
ATOM     17  C   UNL     1       1.387  12.335  19.632  0.00  0.00    +0.000 A 
ATOM     18  C   UNL     1       1.016  13.597  19.163  0.00  0.00    +0.000 A 
ATOM     19  C   UNL     1      -0.180  13.759  18.477  0.00  0.00    +0.000 A 
ATOM     20  C   UNL     1      -1.001  12.653  18.256  0.00  0.00    +0.000 A 
ATOM     21  C   UNL     1      -0.630  11.387  18.733  0.00  0.00    +0.000 A 
ATOM     22 CL   UNL     1      -1.707  10.065  18.450  0.00  0.00    +0.000 Cl
ENDBRANCH  14  16
ENDBRANCH  10  13
ENDBRANCH   1  10
BRANCH   3  23
ATOM     23  C   UNL     1       4.226   4.772  16.667  0.00  0.00    +0.000 C 
BRANCH  23  24
ATOM     24  C   UNL     1       5.289   5.801  16.308  0.00  0.00    +0.000 C 
ATOM     25  O   UNL     1       5.153   6.587  15.373  0.00  0.00    +0.000 OA
ATOM     26  N   UNL     1       6.438   5.812  17.095  0.00  0.00    +0.000 N 
ATOM     27  C   UNL     1       6.760   4.894  18.194  0.00  0.00    +0.000 C 
ATOM     28  C   UNL     1       7.249   5.675  19.422  0.00  0.00    +0.000 C 
ATOM     29  O   UNL     1       8.335   6.553  19.087  0.00  0.00    +0.000 OA
ATOM     30  C   UNL     1       7.942   7.491  18.070  0.00  0.00    +0.000 C 
ATOM     31  C   UNL     1       7.517   6.759  16.794  0.00  0.00    +0.000 C 
ENDBRANCH  23  24
ENDBRANCH   3  23
TORSDOF 5
ENDMDL
MODEL 2
REMARK VINA RESULT:      -8.6      2.460      3.543
REMARK  Name = 
REMARK  5 active torsions:
REMARK  status: ('A' for Active; 'I' for Inactive)
REMARK    1  A    between atoms: C_2  and  C_11
REMARK    2  A    between atoms: N_3  and  C_4
REMARK    3  A    between atoms: C_11  and  C_13
REMARK    4  A    between atoms: N_15  and  C_16
REMARK    5  A    between atoms: C_16  and  C_17
REMARK                            x       y       z     vdW  Elec       q    Type
REMARK                         _______ _______ _______ _____ _____    ______ ____
ROOT
ATOM      1  C   UNL     1       3.247   6.407  17.825  0.00  0.00    +0.000 A 
ATOM      2  C   UNL     1       4.580   6.283  17.468  0.00  0.00    +0.000 A 
ATOM      3  N   UNL     1       4.906   4.951  17.434  0.00  0.00    +0.000 N 
ATOM      4  C   UNL     1       3.789   4.182  17.693  0.00  0.00    +0.000 A 
ATOM      5  C   UNL     1       3.624   2.786  17.764  0.00  0.00    +0.000 A 
ATOM      6  C   UNL     1       2.352   2.277  18.039  0.00  0.00    +0.000 A 
ATOM      7  C   UNL     1       1.273   3.127  18.226  0.00  0.00    +0.000 A 
ATOM      8  C   UNL     1       1.445   4.513  18.157  0.00  0.00    +0.000 A 
ATOM      9  C   UNL     1       2.725   5.068  17.910  0.00  0.00    +0.000 A 
ENDROOT
BRANCH   1  10
ATOM     10  C   UNL     1       2.584   7.694  18.074  0.00  0.00    +0.000 C 
ATOM     11  O   UNL     1       2.546   8.593  17.235  0.00  0.00    +0.000 OA
BRANCH  10  13
ATOM     12  O   UNL     1       2.183   7.229  20.377  0.00  0.00    +0.000 OA
ATOM     13  C   UNL     1       1.964   7.997  19.449  0.00  0.00    +0.000 C 
ATOM     14  N   UNL     1       1.193   9.150  19.509  0.00  0.00    +0.000 N 
ATOM     15  H   UNL     1       1.065   9.663  18.637  0.00  0.00    +0.000 HD
BRANCH  14  16
ATOM     16  C   UNL     1       0.542   9.646  20.671  0.00  0.00    +0.000 A 
ATOM     17  C   UNL     1       0.094   8.794  21.690  0.00  0.00    +0.000 A 
ATOM     18  C   UNL     1      -0.569   9.284  22.817  0.00  0.00    +0.000 A 
ATOM     19  C   UNL     1      -0.784  10.648  22.958  0.00  0.00    +0.000 A 
ATOM     20  C   UNL     1      -0.329  11.521  21.970  0.00  0.00    +0.000 A 
ATOM     21  C   UNL     1       0.331  11.027  20.835  0.00  0.00    +0.000 A 
ATOM     22 CL   UNL     1       0.844  12.161  19.635  0.00  0.00    +0.000 Cl
ENDBRANCH  14  16
ENDBRANCH  10  13
ENDBRANCH   1  10
BRANCH   3  23
ATOM     23  C   UNL     1       6.221   4.434  17.063  0.00  0.00    +0.000 C 
BRANCH  23  24
ATOM     24  C   UNL     1       6.935   5.264  16.006  0.00  0.00    +0.000 C 
ATOM     25  O   UNL     1       7.757   6.131  16.297  0.00  0.00    +0.000 OA
ATOM     26  N   UNL     1       6.613   4.995  14.678  0.00  0.00    +0.000 N 
ATOM     27  C   UNL     1       5.610   4.040  14.192  0.00  0.00    +0.000 C 
ATOM     28  C   UNL     1       6.195   3.171  13.069  0.00  0.00    +0.000 C 
ATOM     29  O   UNL     1       6.758   3.975  12.022  0.00  0.00    +0.000 OA
ATOM     30  C   UNL     1       7.796   4.829  12.531  0.00  0.00    +0.000 C 
ATOM     31  C   UNL     1       7.244   5.771  13.605  0.00  0.00    +0.000 C 
ENDBRANCH  23  24
ENDBRANCH   3  23
TORSDOF 5
ENDMDL
MODEL 3
REMARK VINA RESULT:      -8.5      0.990      1.347
REMARK  Name = 
REMARK  5 active torsions:
REMARK  status: ('A' for Active; 'I' for Inactive)
REMARK    1  A    between atoms: C_2  and  C_11
REMARK    2  A    between atoms: N_3  and  C_4
REMARK    3  A    between atoms: C_11  and  C_13
REMARK    4  A    between atoms: N_15  and  C_16
REMARK    5  A    between atoms: C_16  and  C_17
REMARK                            x       y       z     vdW  Elec       q    Type
REMARK                         _______ _______ _______ _____ _____    ______ ____
ROOT
ATOM      1  C   UNL     1       2.371   6.161  19.143  0.00  0.00    +0.000 A 
ATOM      2  C   UNL     1       3.278   6.204  18.097  0.00  0.00    +0.000 A 
ATOM      3  N   UNL     1       3.530   4.921  17.678  0.00  0.00    +0.000 N 
ATOM      4  C   UNL     1       2.748   4.030  18.385  0.00  0.00    +0.000 A 
ATOM      5  C   UNL     1       2.651   2.627  18.314  0.00  0.00    +0.000 A 
ATOM      6  C   UNL     1       1.749   1.976  19.159  0.00  0.00    +0.000 A 
ATOM      7  C   UNL     1       0.958   2.696  20.041  0.00  0.00    +0.000 A 
ATOM      8  C   UNL     1       1.061   4.089  20.108  0.00  0.00    +0.000 A 
ATOM      9  C   UNL     1       1.985   4.782  19.288  0.00  0.00    +0.000 A 
ENDROOT
BRANCH   1  10
ATOM     10  C   UNL     1       1.959   7.341  19.915  0.00  0.00    +0.000 C 
ATOM     11  O   UNL     1       1.874   7.332  21.143  0.00  0.00    +0.000 OA
BRANCH  10  13
ATOM     12  O   UNL     1       2.179   8.999  18.218  0.00  0.00    +0.000 OA
ATOM     13  C   UNL     1       1.540   8.634  19.196  0.00  0.00    +0.000 C 
ATOM     14  N   UNL     1       0.439   9.283  19.740  0.00  0.00    +0.000 N 
ATOM     15  H   UNL     1       0.039   8.879  20.587  0.00  0.00    +0.000 HD
BRANCH  14  16
ATOM     16  C   UNL     1      -0.145  10.477  19.236  0.00  0.00    +0.000 A 
ATOM     17  C   UNL     1      -1.170  10.453  18.280  0.00  0.00    +0.000 A 
ATOM     18  C   UNL     1      -1.722  11.629  17.767  0.00  0.00    +0.000 A 
ATOM     19  C   UNL     1      -1.268  12.862  18.216  0.00  0.00    +0.000 A 
ATOM     20  C   UNL     1      -0.265  12.914  19.184  0.00  0.00    +0.000 A 
ATOM     21  C   UNL     1       0.293  11.733  19.693  0.00  0.00    +0.000 A 
ATOM     22 CL   UNL     1       1.554  11.869  20.868  0.00  0.00    +0.000 Cl
ENDBRANCH  14  16
ENDBRANCH  10  13
ENDBRANCH   1  10
BRANCH   3  23
ATOM     23  C   UNL     1       4.415   4.575  16.569  0.00  0.00    +0.000 C 
BRANCH  23  24
ATOM     24  C   UNL     1       5.402   5.673  16.200  0.00  0.00    +0.000 C 
ATOM     25  O   UNL     1       5.220   6.427  15.246  0.00  0.00    +0.000 OA
ATOM     26  N   UNL     1       6.537   5.787  17.000  0.00  0.00    +0.000 N 
ATOM     27  C   UNL     1       6.912   4.919  18.123  0.00  0.00    +0.000 C 
ATOM     28  C   UNL     1       7.324   5.761  19.338  0.00  0.00    +0.000 C 
ATOM     29  O   UNL     1       8.345   6.711  18.998  0.00  0.00    +0.000 OA
ATOM     30  C   UNL     1       7.898   7.595  17.956  0.00  0.00    +0.000 C 
ATOM     31  C   UNL     1       7.546   6.806  16.691  0.00  0.00    +0.000 C 
ENDBRANCH  23  24
ENDBRANCH   3  23
TORSDOF 5
ENDMDL
MODEL 4
REMARK VINA RESULT:      -8.4      3.674      9.538
REMARK  Name = 
REMARK  5 active torsions:
REMARK  status: ('A' for Active; 'I' for Inactive)
REMARK    1  A    between atoms: C_2  and  C_11
REMARK    2  A    between atoms: N_3  and  C_4
REMARK    3  A    between atoms: C_11  and  C_13
REMARK    4  A    between atoms: N_15  and  C_16
REMARK    5  A    between atoms: C_16  and  C_17
REMARK                            x       y       z     vdW  Elec       q    Type
REMARK                         _______ _______ _______ _____ _____    ______ ____
ROOT
ATOM      1  C   UNL     1       0.758  10.038  18.928  0.00  0.00    +0.000 A 
ATOM      2  C   UNL     1       0.966  10.742  20.103  0.00  0.00    +0.000 A 
ATOM      3  N   UNL     1      -0.140  11.515  20.355  0.00  0.00    +0.000 N 
ATOM      4  C   UNL     1      -1.110  11.282  19.402  0.00  0.00    +0.000 A 
ATOM      5  C   UNL     1      -2.397  11.827  19.240  0.00  0.00    +0.000 A 
ATOM      6  C   UNL     1      -3.179  11.389  18.169  0.00  0.00    +0.000 A 
ATOM      7  C   UNL     1      -2.702  10.429  17.288  0.00  0.00    +0.000 A 
ATOM      8  C   UNL     1      -1.421   9.893  17.454  0.00  0.00    +0.000 A 
ATOM      9  C   UNL     1      -0.588  10.334  18.511  0.00  0.00    +0.000 A 
ENDROOT
BRANCH   1  10
ATOM     10  C   UNL     1       1.779   9.197  18.288  0.00  0.00    +0.000 C 
ATOM     11  O   UNL     1       2.401   9.555  17.289  0.00  0.00    +0.000 OA
BRANCH  10  13
ATOM     12  O   UNL     1       1.970   7.566  20.015  0.00  0.00    +0.000 OA
ATOM     13  C   UNL     1       2.059   7.779  18.813  0.00  0.00    +0.000 C 
ATOM     14  N   UNL     1       2.395   6.844  17.842  0.00  0.00    +0.000 N 
ATOM     15  H   UNL     1       2.473   7.185  16.885  0.00  0.00    +0.000 HD
BRANCH  14  16
ATOM     16  C   UNL     1       2.671   5.471  18.082  0.00  0.00    +0.000 A 
ATOM     17  C   UNL     1       1.649   4.529  18.259  0.00  0.00    +0.000 A 
ATOM     18  C   UNL     1       1.926   3.186  18.522  0.00  0.00    +0.000 A 
ATOM     19  C   UNL     1       3.242   2.751  18.597  0.00  0.00    +0.000 A 
ATOM     20  C   UNL     1       4.280   3.663  18.403  0.00  0.00    +0.000 A 
ATOM     21  C   UNL     1       4.000   5.013  18.146  0.00  0.00    +0.000 A 
ATOM     22 CL   UNL     1       5.332   6.095  17.945  0.00  0.00    +0.000 Cl
ENDBRANCH  14  16
ENDBRANCH  10  13
ENDBRANCH   1  10
BRANCH   3  23
ATOM     23  C   UNL     1      -0.296  12.370  21.529  0.00  0.00    +0.000 C 
BRANCH  23  24
ATOM     24  C   UNL     1      -1.323  11.864  22.531  0.00  0.00    +0.000 C 
ATOM     25  O   UNL     1      -1.201  10.783  23.107  0.00  0.00    +0.000 OA
ATOM     26  N   UNL     1      -2.421  12.686  22.770  0.00  0.00    +0.000 N 
ATOM     27  C   UNL     1      -2.725  13.961  22.110  0.00  0.00    +0.000 C 
ATOM     28  C   UNL     1      -3.099  15.028  23.149  0.00  0.00    +0.000 C 
ATOM     29  O   UNL     1      -4.155  14.576  24.010  0.00  0.00    +0.000 OA
ATOM     30  C   UNL     1      -3.775  13.374  24.701  0.00  0.00    +0.000 C 
ATOM     31  C   UNL     1      -3.465  12.252  23.706  0.00  0.00    +0.000 C 
ENDBRANCH  23  24
ENDBRANCH   3  23
TORSDOF 5
ENDMDL
MODEL 5
REMARK VINA RESULT:      -8.4      3.500      8.233
REMARK  Name = 
REMARK  5 active torsions:
REMARK  status: ('A' for Active; 'I' for Inactive)
REMARK    1  A    between atoms: C_2  and  C_11
REMARK    2  A    between atoms: N_3  and  C_4
REMARK    3  A    between atoms: C_11  and  C_13
REMARK    4  A    between atoms: N_15  and  C_16
REMARK    5  A    between atoms: C_16  and  C_17
REMARK                            x       y       z     vdW  Elec       q    Type
REMARK                         _______ _______ _______ _____ _____    ______ ____
ROOT
ATOM      1  C   UNL     1       4.871   6.270  17.461  0.00  0.00    +0.000 A 
ATOM      2  C   UNL     1       4.258   7.324  18.118  0.00  0.00    +0.000 A 
ATOM      3  N   UNL     1       2.999   6.933  18.500  0.00  0.00    +0.000 N 
ATOM      4  C   UNL     1       2.792   5.610  18.169  0.00  0.00    +0.000 A 
ATOM      5  C   UNL     1       1.676   4.774  18.357  0.00  0.00    +0.000 A 
ATOM      6  C   UNL     1       1.753   3.448  17.924  0.00  0.00    +0.000 A 
ATOM      7  C   UNL     1       2.909   2.961  17.332  0.00  0.00    +0.000 A 
ATOM      8  C   UNL     1       4.014   3.799  17.147  0.00  0.00    +0.000 A 
ATOM      9  C   UNL     1       3.963   5.156  17.546  0.00  0.00    +0.000 A 
ENDROOT
BRANCH   1  10
ATOM     10  C   UNL     1       6.185   6.366  16.811  0.00  0.00    +0.000 C 
ATOM     11  O   UNL     1       6.953   7.308  17.004  0.00  0.00    +0.000 OA
BRANCH  10  13
ATOM     12  O   UNL     1       7.488   4.500  16.105  0.00  0.00    +0.000 OA
ATOM     13  C   UNL     1       6.625   5.307  15.786  0.00  0.00    +0.000 C 
ATOM     14  N   UNL     1       5.978   5.368  14.558  0.00  0.00    +0.000 N 
ATOM     15  H   UNL     1       5.313   6.128  14.427  0.00  0.00    +0.000 HD
BRANCH  14  16
ATOM     16  C   UNL     1       6.198   4.483  13.467  0.00  0.00    +0.000 A 
ATOM     17  C   UNL     1       5.301   3.451  13.158  0.00  0.00    +0.000 A 
ATOM     18  C   UNL     1       5.535   2.568  12.102  0.00  0.00    +0.000 A 
ATOM     19  C   UNL     1       6.672   2.710  11.318  0.00  0.00    +0.000 A 
ATOM     20  C   UNL     1       7.571   3.741  11.590  0.00  0.00    +0.000 A 
ATOM     21  C   UNL     1       7.337   4.624  12.654  0.00  0.00    +0.000 A 
ATOM     22 CL   UNL     1       8.506   5.862  12.955  0.00  0.00    +0.000 Cl
ENDBRANCH  14  16
ENDBRANCH  10  13
ENDBRANCH   1  10
BRANCH   3  23
ATOM     23  C   UNL     1       2.068   7.774  19.248  0.00  0.00    +0.000 C 
BRANCH  23  24
ATOM     24  C   UNL     1       1.696   9.068  18.539  0.00  0.00    +0.000 C 
ATOM     25  O   UNL     1       1.884   9.233  17.334  0.00  0.00    +0.000 OA
ATOM     26  N   UNL     1       1.126  10.069  19.322  0.00  0.00    +0.000 N 
ATOM     27  C   UNL     1       0.906  10.032  20.772  0.00  0.00    +0.000 C 
ATOM     28  C   UNL     1      -0.519  10.491  21.111  0.00  0.00    +0.000 C 
ATOM     29  O   UNL     1      -0.811  11.771  20.532  0.00  0.00    +0.000 OA
ATOM     30  C   UNL     1      -0.667  11.733  19.101  0.00  0.00    +0.000 C 
ATOM     31  C   UNL     1       0.764  11.353  18.711  0.00  0.00    +0.000 C 
ENDBRANCH  23  24
ENDBRANCH   3  23
TORSDOF 5
ENDMDL
MODEL 6
REMARK VINA RESULT:      -8.4      3.557      9.440
REMARK  Name = 
REMARK  5 active torsions:
REMARK  status: ('A' for Active; 'I' for Inactive)
REMARK    1  A    between atoms: C_2  and  C_11
REMARK    2  A    between atoms: N_3  and  C_4
REMARK    3  A    between atoms: C_11  and  C_13
REMARK    4  A    between atoms: N_15  and  C_16
REMARK    5  A    between atoms: C_16  and  C_17
REMARK                            x       y       z     vdW  Elec       q    Type
REMARK                         _______ _______ _______ _____ _____    ______ ____
ROOT
ATOM      1  C   UNL     1       0.761   9.978  18.922  0.00  0.00    +0.000 A 
ATOM      2  C   UNL     1       0.980  10.669  20.102  0.00  0.00    +0.000 A 
ATOM      3  N   UNL     1      -0.115  11.454  20.364  0.00  0.00    +0.000 N 
ATOM      4  C   UNL     1      -1.089  11.242  19.410  0.00  0.00    +0.000 A 
ATOM      5  C   UNL     1      -2.370  11.805  19.256  0.00  0.00    +0.000 A 
ATOM      6  C   UNL     1      -3.160  11.387  18.183  0.00  0.00    +0.000 A 
ATOM      7  C   UNL     1      -2.697  10.428  17.293  0.00  0.00    +0.000 A 
ATOM      8  C   UNL     1      -1.423   9.875  17.452  0.00  0.00    +0.000 A 
ATOM      9  C   UNL     1      -0.582  10.295  18.510  0.00  0.00    +0.000 A 
ENDROOT
BRANCH   1  10
ATOM     10  C   UNL     1       1.770   9.130  18.272  0.00  0.00    +0.000 C 
ATOM     11  O   UNL     1       2.252   9.397  17.172  0.00  0.00    +0.000 OA
BRANCH  10  13
ATOM     12  O   UNL     1       1.873   7.579  20.079  0.00  0.00    +0.000 OA
ATOM     13  C   UNL     1       2.213   7.810  18.926  0.00  0.00    +0.000 C 
ATOM     14  N   UNL     1       2.979   6.979  18.119  0.00  0.00    +0.000 N 
ATOM     15  H   UNL     1       3.220   7.331  17.193  0.00  0.00    +0.000 HD
BRANCH  14  16
ATOM     16  C   UNL     1       3.482   5.703  18.493  0.00  0.00    +0.000 A 
ATOM     17  C   UNL     1       4.736   5.549  19.100  0.00  0.00    +0.000 A 
ATOM     18  C   UNL     1       5.236   4.291  19.441  0.00  0.00    +0.000 A 
ATOM     19  C   UNL     1       4.479   3.153  19.195  0.00  0.00    +0.000 A 
ATOM     20  C   UNL     1       3.218   3.279  18.612  0.00  0.00    +0.000 A 
ATOM     21  C   UNL     1       2.720   4.543  18.264  0.00  0.00    +0.000 A 
ATOM     22 CL   UNL     1       1.163   4.625  17.518  0.00  0.00    +0.000 Cl
ENDBRANCH  14  16
ENDBRANCH  10  13
ENDBRANCH   1  10
BRANCH   3  23
ATOM     23  C   UNL     1      -0.257  12.301  21.546  0.00  0.00    +0.000 C 
BRANCH  23  24
ATOM     24  C   UNL     1      -1.308  11.814  22.533  0.00  0.00    +0.000 C 
ATOM     25  O   UNL     1      -1.222  10.724  23.098  0.00  0.00    +0.000 OA
ATOM     26  N   UNL     1      -2.384  12.664  22.770  0.00  0.00    +0.000 N 
ATOM     27  C   UNL     1      -2.645  13.955  22.121  0.00  0.00    +0.000 C 
ATOM     28  C   UNL     1      -2.998  15.021  23.168  0.00  0.00    +0.000 C 
ATOM     29  O   UNL     1      -4.075  14.591  24.014  0.00  0.00    +0.000 OA
ATOM     30  C   UNL     1      -3.736  13.371  24.696  0.00  0.00    +0.000 C 
ATOM     31  C   UNL     1      -3.449  12.251  23.691  0.00  0.00    +0.000 C 
ENDBRANCH  23  24
ENDBRANCH   3  23
TORSDOF 5
ENDMDL
MODEL 7
REMARK VINA RESULT:      -8.3      3.585      9.248
REMARK  Name = 
REMARK  5 active torsions:
REMARK  status: ('A' for Active; 'I' for Inactive)
REMARK    1  A    between atoms: C_2  and  C_11
REMARK    2  A    between atoms: N_3  and  C_4
REMARK    3  A    between atoms: C_11  and  C_13
REMARK    4  A    between atoms: N_15  and  C_16
REMARK    5  A    between atoms: C_16  and  C_17
REMARK                            x       y       z     vdW  Elec       q    Type
REMARK                         _______ _______ _______ _____ _____    ______ ____
ROOT
ATOM      1  C   UNL     1       1.071   9.325  19.014  0.00  0.00    +0.000 A 
ATOM      2  C   UNL     1       0.195  10.130  18.305  0.00  0.00    +0.000 A 
ATOM      3  N   UNL     1      -0.696  10.693  19.184  0.00  0.00    +0.000 N 
ATOM      4  C   UNL     1      -0.381  10.329  20.478  0.00  0.00    +0.000 A 
ATOM      5  C   UNL     1      -0.993  10.653  21.704  0.00  0.00    +0.000 A 
ATOM      6  C   UNL     1      -0.441  10.142  22.881  0.00  0.00    +0.000 A 
ATOM      7  C   UNL     1       0.692   9.342  22.845  0.00  0.00    +0.000 A 
ATOM      8  C   UNL     1       1.292   9.023  21.622  0.00  0.00    +0.000 A 
ATOM      9  C   UNL     1       0.744   9.498  20.406  0.00  0.00    +0.000 A 
ENDROOT
BRANCH   1  10
ATOM     10  C   UNL     1       2.089   8.473  18.385  0.00  0.00    +0.000 C 
ATOM     11  O   UNL     1       2.785   8.857  17.445  0.00  0.00    +0.000 OA
BRANCH  10  13
ATOM     12  O   UNL     1       2.445   6.786  20.029  0.00  0.00    +0.000 OA
ATOM     13  C   UNL     1       2.274   7.016  18.839  0.00  0.00    +0.000 C 
ATOM     14  N   UNL     1       2.223   6.069  17.825  0.00  0.00    +0.000 N 
ATOM     15  H   UNL     1       2.118   6.420  16.873  0.00  0.00    +0.000 HD
BRANCH  14  16
ATOM     16  C   UNL     1       2.341   4.663  18.003  0.00  0.00    +0.000 A 
ATOM     17  C   UNL     1       1.341   3.909  18.631  0.00  0.00    +0.000 A 
ATOM     18  C   UNL     1       1.474   2.533  18.828  0.00  0.00    +0.000 A 
ATOM     19  C   UNL     1       2.613   1.876  18.384  0.00  0.00    +0.000 A 
ATOM     20  C   UNL     1       3.616   2.598  17.736  0.00  0.00    +0.000 A 
ATOM     21  C   UNL     1       3.483   3.981  17.544  0.00  0.00    +0.000 A 
ATOM     22 CL   UNL     1       4.774   4.821  16.761  0.00  0.00    +0.000 Cl
ENDBRANCH  14  16
ENDBRANCH  10  13
ENDBRANCH   1  10
BRANCH   3  23
ATOM     23  C   UNL     1      -1.750  11.629  18.801  0.00  0.00    +0.000 C 
BRANCH  23  24
ATOM     24  C   UNL     1      -2.967  10.966  18.171  0.00  0.00    +0.000 C 
ATOM     25  O   UNL     1      -2.867  10.038  17.370  0.00  0.00    +0.000 OA
ATOM     26  N   UNL     1      -4.213  11.464  18.543  0.00  0.00    +0.000 N 
ATOM     27  C   UNL     1      -4.475  12.602  19.432  0.00  0.00    +0.000 C 
ATOM     28  C   UNL     1      -5.543  12.236  20.473  0.00  0.00    +0.000 C 
ATOM     29  O   UNL     1      -6.731  11.724  19.851  0.00  0.00    +0.000 OA
ATOM     30  C   UNL     1      -6.436  10.558  19.063  0.00  0.00    +0.000 C 
ATOM     31  C   UNL     1      -5.430  10.891  17.958  0.00  0.00    +0.000 C 
ENDBRANCH  23  24
ENDBRANCH   3  23
TORSDOF 5
ENDMDL
MODEL 8
REMARK VINA RESULT:      -8.3      2.851      7.613
REMARK  Name = 
REMARK  5 active torsions:
REMARK  status: ('A' for Active; 'I' for Inactive)
REMARK    1  A    between atoms: C_2  and  C_11
REMARK    2  A    between atoms: N_3  and  C_4
REMARK    3  A    between atoms: C_11  and  C_13
REMARK    4  A    between atoms: N_15  and  C_16
REMARK    5  A    between atoms: C_16  and  C_17
REMARK                            x       y       z     vdW  Elec       q    Type
REMARK                         _______ _______ _______ _____ _____    ______ ____
ROOT
ATOM      1  C   UNL     1       5.149   5.160  18.830  0.00  0.00    +0.000 A 
ATOM      2  C   UNL     1       4.507   6.289  19.311  0.00  0.00    +0.000 A 
ATOM      3  N   UNL     1       3.151   6.079  19.264  0.00  0.00    +0.000 N 
ATOM      4  C   UNL     1       2.884   4.798  18.825  0.00  0.00    +0.000 A 
ATOM      5  C   UNL     1       1.664   4.128  18.617  0.00  0.00    +0.000 A 
ATOM      6  C   UNL     1       1.697   2.805  18.170  0.00  0.00    +0.000 A 
ATOM      7  C   UNL     1       2.904   2.161  17.946  0.00  0.00    +0.000 A 
ATOM      8  C   UNL     1       4.113   2.835  18.152  0.00  0.00    +0.000 A 
ATOM      9  C   UNL     1       4.120   4.185  18.577  0.00  0.00    +0.000 A 
ENDROOT
BRANCH   1  10
ATOM     10  C   UNL     1       6.601   5.071  18.626  0.00  0.00    +0.000 C 
ATOM     11  O   UNL     1       7.412   5.330  19.515  0.00  0.00    +0.000 OA
BRANCH  10  13
ATOM     12  O   UNL     1       8.217   4.079  17.182  0.00  0.00    +0.000 OA
ATOM     13  C   UNL     1       7.172   4.714  17.244  0.00  0.00    +0.000 C 
ATOM     14  N   UNL     1       6.423   5.157  16.162  0.00  0.00    +0.000 N 
ATOM     15  H   UNL     1       5.596   5.715  16.373  0.00  0.00    +0.000 HD
BRANCH  14  16
ATOM     16  C   UNL     1       6.735   4.928  14.794  0.00  0.00    +0.000 A 
ATOM     17  C   UNL     1       7.811   5.567  14.163  0.00  0.00    +0.000 A 
ATOM     18  C   UNL     1       8.098   5.358  12.812  0.00  0.00    +0.000 A 
ATOM     19  C   UNL     1       7.317   4.488  12.064  0.00  0.00    +0.000 A 
ATOM     20  C   UNL     1       6.254   3.821  12.672  0.00  0.00    +0.000 A 
ATOM     21  C   UNL     1       5.963   4.036  14.027  0.00  0.00    +0.000 A 
ATOM     22 CL   UNL     1       4.613   3.201  14.712  0.00  0.00    +0.000 Cl
ENDBRANCH  14  16
ENDBRANCH  10  13
ENDBRANCH   1  10
BRANCH   3  23
ATOM     23  C   UNL     1       2.153   7.042  19.722  0.00  0.00    +0.000 C 
BRANCH  23  24
ATOM     24  C   UNL     1       1.993   8.249  18.809  0.00  0.00    +0.000 C 
ATOM     25  O   UNL     1       2.393   8.250  17.646  0.00  0.00    +0.000 OA
ATOM     26  N   UNL     1       1.367   9.367  19.355  0.00  0.00    +0.000 N 
ATOM     27  C   UNL     1       0.901   9.526  20.738  0.00  0.00    +0.000 C 
ATOM     28  C   UNL     1      -0.527  10.088  20.763  0.00  0.00    +0.000 C 
ATOM     29  O   UNL     1      -0.631  11.295  19.993  0.00  0.00    +0.000 OA
ATOM     30  C   UNL     1      -0.249  11.067  18.625  0.00  0.00    +0.000 C 
ATOM     31  C   UNL     1       1.199  10.576  18.542  0.00  0.00    +0.000 C 
ENDBRANCH  23  24
ENDBRANCH   3  23
TORSDOF 5
ENDMDL
MODEL 9
REMARK VINA RESULT:      -8.2      3.036      8.577
REMARK  Name = 
REMARK  5 active torsions:
REMARK  status: ('A' for Active; 'I' for Inactive)
REMARK    1  A    between atoms: C_2  and  C_11
REMARK    2  A    between atoms: N_3  and  C_4
REMARK    3  A    between atoms: C_11  and  C_13
REMARK    4  A    between atoms: N_15  and  C_16
REMARK    5  A    between atoms: C_16  and  C_17
REMARK                            x       y       z     vdW  Elec       q    Type
REMARK                         _______ _______ _______ _____ _____    ______ ____
ROOT
ATOM      1  C   UNL     1       1.667   9.088  18.706  0.00  0.00    +0.000 A 
ATOM      2  C   UNL     1       1.202  10.225  18.066  0.00  0.00    +0.000 A 
ATOM      3  N   UNL     1       0.348  10.889  18.910  0.00  0.00    +0.000 N 
ATOM      4  C   UNL     1       0.291  10.247  20.130  0.00  0.00    +0.000 A 
ATOM      5  C   UNL     1      -0.433  10.545  21.299  0.00  0.00    +0.000 A 
ATOM      6  C   UNL     1      -0.285   9.709  22.409  0.00  0.00    +0.000 A 
ATOM      7  C   UNL     1       0.567   8.616  22.365  0.00  0.00    +0.000 A 
ATOM      8  C   UNL     1       1.283   8.325  21.198  0.00  0.00    +0.000 A 
ATOM      9  C   UNL     1       1.135   9.131  20.044  0.00  0.00    +0.000 A 
ENDROOT
BRANCH   1  10
ATOM     10  C   UNL     1       2.512   8.075  18.061  0.00  0.00    +0.000 C 
ATOM     11  O   UNL     1       2.987   8.227  16.935  0.00  0.00    +0.000 OA
BRANCH  10  13
ATOM     12  O   UNL     1       3.856   6.552  19.308  0.00  0.00    +0.000 OA
ATOM     13  C   UNL     1       2.779   6.728  18.754  0.00  0.00    +0.000 C 
ATOM     14  N   UNL     1       1.737   5.811  18.685  0.00  0.00    +0.000 N 
ATOM     15  H   UNL     1       0.917   6.088  18.147  0.00  0.00    +0.000 HD
BRANCH  14  16
ATOM     16  C   UNL     1       1.742   4.515  19.269  0.00  0.00    +0.000 A 
ATOM     17  C   UNL     1       1.232   4.280  20.553  0.00  0.00    +0.000 A 
ATOM     18  C   UNL     1       1.263   3.010  21.133  0.00  0.00    +0.000 A 
ATOM     19  C   UNL     1       1.794   1.938  20.429  0.00  0.00    +0.000 A 
ATOM     20  C   UNL     1       2.289   2.140  19.140  0.00  0.00    +0.000 A 
ATOM     21  C   UNL     1       2.262   3.417  18.561  0.00  0.00    +0.000 A 
ATOM     22 CL   UNL     1       2.918   3.603  16.973  0.00  0.00    +0.000 Cl
ENDBRANCH  14  16
ENDBRANCH  10  13
ENDBRANCH   1  10
BRANCH   3  23
ATOM     23  C   UNL     1      -0.312  12.152  18.588  0.00  0.00    +0.000 C 
BRANCH  23  24
ATOM     24  C   UNL     1      -1.815  12.144  18.826  0.00  0.00    +0.000 C 
ATOM     25  O   UNL     1      -2.336  12.762  19.753  0.00  0.00    +0.000 OA
ATOM     26  N   UNL     1      -2.584  11.396  17.938  0.00  0.00    +0.000 N 
ATOM     27  C   UNL     1      -2.091  10.563  16.834  0.00  0.00    +0.000 C 
ATOM     28  C   UNL     1      -2.884  10.848  15.550  0.00  0.00    +0.000 C 
ATOM     29  O   UNL     1      -4.298  10.717  15.766  0.00  0.00    +0.000 OA
ATOM     30  C   UNL     1      -4.746  11.616  16.794  0.00  0.00    +0.000 C 
ATOM     31  C   UNL     1      -4.038  11.321  18.119  0.00  0.00    +0.000 C 
ENDBRANCH  23  24
ENDBRANCH   3  23
TORSDOF 5
ENDMDL
