MODEL 1
REMARK VINA RESULT:      -7.7      0.000      0.000
REMARK  Name = 
REMARK  8 active torsions:
REMARK  status: ('A' for Active; 'I' for Inactive)
REMARK    1  A    between atoms: C_1  and  C_2
REMARK    2  A    between atoms: C_2  and  C_3
REMARK    3  A    between atoms: C_3  and  C_4
REMARK    4  A    between atoms: C_4  and  C_5
REMARK    5  A    between atoms: C_8  and  S_9
REMARK    6  A    between atoms: S_9  and  C_10
REMARK    7  A    between atoms: C_10  and  C_11
REMARK    8  A    between atoms: N_23  and  C_24
REMARK                            x       y       z     vdW  Elec       q    Type
REMARK                         _______ _______ _______ _____ _____    ______ ____
ROOT
ATOM      1  C   UNL     1       5.835   4.753  18.542  0.00  0.00    +0.000 A 
ATOM      2  C   UNL     1       4.993   5.815  18.561  0.00  0.00    +0.000 A 
ATOM      3  C   UNL     1       3.702   5.716  19.285  0.00  0.00    +0.000 A 
ATOM      4  O   UNL     1       2.926   6.668  19.309  0.00  0.00    +0.000 OA
ATOM      5  C   UNL     1       3.383   4.442  19.964  0.00  0.00    +0.000 A 
ATOM      6  C   UNL     1       2.178   4.292  20.653  0.00  0.00    +0.000 A 
ATOM      7  C   UNL     1       1.915   3.088  21.286  0.00  0.00    +0.000 A 
ATOM      8  F   UNL     1       0.767   2.929  21.954  0.00  0.00    +0.000 F 
ATOM      9  C   UNL     1       2.829   2.038  21.236  0.00  0.00    +0.000 A 
ATOM     10  C   UNL     1       4.032   2.191  20.536  0.00  0.00    +0.000 A 
ATOM     11  C   UNL     1       4.323   3.398  19.891  0.00  0.00    +0.000 A 
ATOM     12  N   UNL     1       5.509   3.570  19.172  0.00  0.00    +0.000 N 
ATOM     13  H   UNL     1       6.189   2.813  19.148  0.00  0.00    +0.000 HD
ENDROOT
BRANCH   1  14
ATOM     14  C   UNL     1       7.146   4.800  17.732  0.00  0.00    +0.000 C 
BRANCH  14  15
ATOM     15  S   UNL     1       7.156   6.179  16.493  0.00  0.00    +0.000 S 
BRANCH  15  19
ATOM     16  C   UNL     1       6.333   4.058  13.318  0.00  0.00    +0.000 A 
ATOM     17  N   UNL     1       7.447   4.661  12.945  0.00  0.00    +0.000 NA
ATOM     18  N   UNL     1       7.870   5.456  13.980  0.00  0.00    +0.000 NA
ATOM     19  C   UNL     1       7.020   5.331  14.971  0.00  0.00    +0.000 A 
ATOM     20  N   UNL     1       6.026   4.445  14.609  0.00  0.00    +0.000 N 
ATOM     21  C   UNL     1       4.867   3.963  15.312  0.00  0.00    +0.000 C 
BRANCH  16  22
ATOM     22  C   UNL     1       5.525   3.127  12.475  0.00  0.00    +0.000 C 
BRANCH  22  23
ATOM     23  C   UNL     1       4.375   3.861  11.788  0.00  0.00    +0.000 C 
BRANCH  23  25
ATOM     24  C   UNL     1       2.966   3.912   9.713  0.00  0.00    +0.000 C 
ATOM     25  C   UNL     1       3.794   3.037  10.640  0.00  0.00    +0.000 C 
ENDBRANCH  23  25
ENDBRANCH  22  23
ENDBRANCH  16  22
ENDBRANCH  15  19
ENDBRANCH  14  15
ENDBRANCH   1  14
TORSDOF 6
ENDMDL
MODEL 2
REMARK VINA RESULT:      -7.6      4.469      6.749
REMARK  Name = 
REMARK  8 active torsions:
REMARK  status: ('A' for Active; 'I' for Inactive)
REMARK    1  A    between atoms: C_1  and  C_2
REMARK    2  A    between atoms: C_2  and  C_3
REMARK    3  A    between atoms: C_3  and  C_4
REMARK    4  A    between atoms: C_4  and  C_5
REMARK    5  A    between atoms: C_8  and  S_9
REMARK    6  A    between atoms: S_9  and  C_10
REMARK    7  A    between atoms: C_10  and  C_11
REMARK    8  A    between atoms: N_23  and  C_24
REMARK                            x       y       z     vdW  Elec       q    Type
REMARK                         _______ _______ _______ _____ _____    ______ ____
ROOT
ATOM      1  C   UNL     1       2.104   6.804  19.989  0.00  0.00    +0.000 A 
ATOM      2  C   UNL     1       2.251   7.414  18.788  0.00  0.00    +0.000 A 
ATOM      3  C   UNL     1       1.753   8.798  18.600  0.00  0.00    +0.000 A 
ATOM      4  O   UNL     1       1.876   9.364  17.517  0.00  0.00    +0.000 OA
ATOM      5  C   UNL     1       1.103   9.464  19.750  0.00  0.00    +0.000 A 
ATOM      6  C   UNL     1       0.609  10.764  19.625  0.00  0.00    +0.000 A 
ATOM      7  C   UNL     1       0.014  11.360  20.725  0.00  0.00    +0.000 A 
ATOM      8  F   UNL     1      -0.462  12.607  20.624  0.00  0.00    +0.000 F 
ATOM      9  C   UNL     1      -0.098  10.681  21.936  0.00  0.00    +0.000 A 
ATOM     10  C   UNL     1       0.392   9.374  22.052  0.00  0.00    +0.000 A 
ATOM     11  C   UNL     1       0.999   8.750  20.957  0.00  0.00    +0.000 A 
ATOM     12  N   UNL     1       1.481   7.440  21.042  0.00  0.00    +0.000 N 
ATOM     13  H   UNL     1       1.420   6.946  21.930  0.00  0.00    +0.000 HD
ENDROOT
BRANCH   1  14
ATOM     14  C   UNL     1       2.539   5.340  20.189  0.00  0.00    +0.000 C 
BRANCH  14  15
ATOM     15  S   UNL     1       3.099   4.551  18.607  0.00  0.00    +0.000 S 
BRANCH  15  19
ATOM     16  C   UNL     1       6.729   5.881  18.046  0.00  0.00    +0.000 A 
ATOM     17  N   UNL     1       6.920   5.008  19.018  0.00  0.00    +0.000 NA
ATOM     18  N   UNL     1       5.709   4.442  19.329  0.00  0.00    +0.000 NA
ATOM     19  C   UNL     1       4.795   4.966  18.548  0.00  0.00    +0.000 A 
ATOM     20  N   UNL     1       5.389   5.882  17.703  0.00  0.00    +0.000 N 
ATOM     21  C   UNL     1       4.850   6.726  16.671  0.00  0.00    +0.000 C 
BRANCH  16  22
ATOM     22  C   UNL     1       7.783   6.742  17.432  0.00  0.00    +0.000 C 
BRANCH  22  23
ATOM     23  C   UNL     1       8.259   7.814  18.410  0.00  0.00    +0.000 C 
BRANCH  23  25
ATOM     24  C   UNL     1       9.021  10.204  18.444  0.00  0.00    +0.000 C 
ATOM     25  C   UNL     1       8.026   9.218  17.855  0.00  0.00    +0.000 C 
ENDBRANCH  23  25
ENDBRANCH  22  23
ENDBRANCH  16  22
ENDBRANCH  15  19
ENDBRANCH  14  15
ENDBRANCH   1  14
TORSDOF 6
ENDMDL
MODEL 3
REMARK VINA RESULT:      -7.6      1.671      1.915
REMARK  Name = 
REMARK  8 active torsions:
REMARK  status: ('A' for Active; 'I' for Inactive)
REMARK    1  A    between atoms: C_1  and  C_2
REMARK    2  A    between atoms: C_2  and  C_3
REMARK    3  A    between atoms: C_3  and  C_4
REMARK    4  A    between atoms: C_4  and  C_5
REMARK    5  A    between atoms: C_8  and  S_9
REMARK    6  A    between atoms: S_9  and  C_10
REMARK    7  A    between atoms: C_10  and  C_11
REMARK    8  A    between atoms: N_23  and  C_24
REMARK                            x       y       z     vdW  Elec       q    Type
REMARK                         _______ _______ _______ _____ _____    ______ ____
ROOT
ATOM      1  C   UNL     1       5.461   5.188  19.348  0.00  0.00    +0.000 A 
ATOM      2  C   UNL     1       4.458   6.098  19.388  0.00  0.00    +0.000 A 
ATOM      3  C   UNL     1       3.051   5.650  19.240  0.00  0.00    +0.000 A 
ATOM      4  O   UNL     1       2.131   6.463  19.273  0.00  0.00    +0.000 OA
ATOM      5  C   UNL     1       2.800   4.205  19.049  0.00  0.00    +0.000 A 
ATOM      6  C   UNL     1       1.496   3.731  18.896  0.00  0.00    +0.000 A 
ATOM      7  C   UNL     1       1.296   2.370  18.727  0.00  0.00    +0.000 A 
ATOM      8  F   UNL     1       0.052   1.897  18.584  0.00  0.00    +0.000 F 
ATOM      9  C   UNL     1       2.371   1.485  18.704  0.00  0.00    +0.000 A 
ATOM     10  C   UNL     1       3.677   1.968  18.849  0.00  0.00    +0.000 A 
ATOM     11  C   UNL     1       3.907   3.338  19.023  0.00  0.00    +0.000 A 
ATOM     12  N   UNL     1       5.202   3.847  19.153  0.00  0.00    +0.000 N 
ATOM     13  H   UNL     1       5.990   3.203  19.157  0.00  0.00    +0.000 HD
ENDROOT
BRANCH   1  14
ATOM     14  C   UNL     1       6.934   5.633  19.419  0.00  0.00    +0.000 C 
BRANCH  14  15
ATOM     15  S   UNL     1       7.429   6.660  17.955  0.00  0.00    +0.000 S 
BRANCH  15  19
ATOM     16  C   UNL     1       6.347   4.611  14.811  0.00  0.00    +0.000 A 
ATOM     17  N   UNL     1       7.401   3.926  15.216  0.00  0.00    +0.000 NA
ATOM     18  N   UNL     1       7.900   4.535  16.340  0.00  0.00    +0.000 NA
ATOM     19  C   UNL     1       7.151   5.577  16.613  0.00  0.00    +0.000 A 
ATOM     20  N   UNL     1       6.140   5.668  15.677  0.00  0.00    +0.000 N 
ATOM     21  C   UNL     1       5.065   6.610  15.515  0.00  0.00    +0.000 C 
BRANCH  16  22
ATOM     22  C   UNL     1       5.526   4.306  13.601  0.00  0.00    +0.000 C 
BRANCH  22  23
ATOM     23  C   UNL     1       6.140   3.166  12.790  0.00  0.00    +0.000 C 
BRANCH  23  25
ATOM     24  C   UNL     1       3.965   3.517  11.590  0.00  0.00    +0.000 C 
ATOM     25  C   UNL     1       5.357   2.913  11.503  0.00  0.00    +0.000 C 
ENDBRANCH  23  25
ENDBRANCH  22  23
ENDBRANCH  16  22
ENDBRANCH  15  19
ENDBRANCH  14  15
ENDBRANCH   1  14
TORSDOF 6
ENDMDL
MODEL 4
REMARK VINA RESULT:      -7.6      3.854      5.040
REMARK  Name = 
REMARK  8 active torsions:
REMARK  status: ('A' for Active; 'I' for Inactive)
REMARK    1  A    between atoms: C_1  and  C_2
REMARK    2  A    between atoms: C_2  and  C_3
REMARK    3  A    between atoms: C_3  and  C_4
REMARK    4  A    between atoms: C_4  and  C_5
REMARK    5  A    between atoms: C_8  and  S_9
REMARK    6  A    between atoms: S_9  and  C_10
REMARK    7  A    between atoms: C_10  and  C_11
REMARK    8  A    between atoms: N_23  and  C_24
REMARK                            x       y       z     vdW  Elec       q    Type
REMARK                         _______ _______ _______ _____ _____    ______ ____
ROOT
ATOM      1  C   UNL     1       2.575   6.656  19.620  0.00  0.00    +0.000 A 
ATOM      2  C   UNL     1       2.621   7.354  18.459  0.00  0.00    +0.000 A 
ATOM      3  C   UNL     1       1.940   8.668  18.363  0.00  0.00    +0.000 A 
ATOM      4  O   UNL     1       1.970   9.311  17.317  0.00  0.00    +0.000 OA
ATOM      5  C   UNL     1       1.224   9.168  19.557  0.00  0.00    +0.000 A 
ATOM      6  C   UNL     1       0.559  10.394  19.519  0.00  0.00    +0.000 A 
ATOM      7  C   UNL     1      -0.094  10.836  20.658  0.00  0.00    +0.000 A 
ATOM      8  F   UNL     1      -0.734  12.012  20.640  0.00  0.00    +0.000 F 
ATOM      9  C   UNL     1      -0.096  10.074  21.824  0.00  0.00    +0.000 A 
ATOM     10  C   UNL     1       0.565   8.840  21.854  0.00  0.00    +0.000 A 
ATOM     11  C   UNL     1       1.235   8.372  20.717  0.00  0.00    +0.000 A 
ATOM     12  N   UNL     1       1.889   7.137  20.716  0.00  0.00    +0.000 N 
ATOM     13  H   UNL     1       1.907   6.585  21.571  0.00  0.00    +0.000 HD
ENDROOT
BRANCH   1  14
ATOM     14  C   UNL     1       3.205   5.254  19.724  0.00  0.00    +0.000 C 
BRANCH  14  15
ATOM     15  S   UNL     1       5.039   5.287  19.447  0.00  0.00    +0.000 S 
BRANCH  15  19
ATOM     16  C   UNL     1       5.856   4.164  15.796  0.00  0.00    +0.000 A 
ATOM     17  N   UNL     1       4.871   3.341  16.105  0.00  0.00    +0.000 NA
ATOM     18  N   UNL     1       4.465   3.622  17.386  0.00  0.00    +0.000 NA
ATOM     19  C   UNL     1       5.198   4.609  17.844  0.00  0.00    +0.000 A 
ATOM     20  N   UNL     1       6.094   5.001  16.870  0.00  0.00    +0.000 N 
ATOM     21  C   UNL     1       7.110   6.020  16.854  0.00  0.00    +0.000 C 
BRANCH  16  22
ATOM     22  C   UNL     1       6.606   4.174  14.504  0.00  0.00    +0.000 C 
BRANCH  22  23
ATOM     23  C   UNL     1       5.662   3.990  13.317  0.00  0.00    +0.000 C 
BRANCH  23  25
ATOM     24  C   UNL     1       5.728   2.162  11.601  0.00  0.00    +0.000 C 
ATOM     25  C   UNL     1       6.399   3.431  12.101  0.00  0.00    +0.000 C 
ENDBRANCH  23  25
ENDBRANCH  22  23
ENDBRANCH  16  22
ENDBRANCH  15  19
ENDBRANCH  14  15
ENDBRANCH   1  14
TORSDOF 6
ENDMDL
MODEL 5
REMARK VINA RESULT:      -7.5      1.770      2.143
REMARK  Name = 
REMARK  8 active torsions:
REMARK  status: ('A' for Active; 'I' for Inactive)
REMARK    1  A    between atoms: C_1  and  C_2
REMARK    2  A    between atoms: C_2  and  C_3
REMARK    3  A    between atoms: C_3  and  C_4
REMARK    4  A    between atoms: C_4  and  C_5
REMARK    5  A    between atoms: C_8  and  S_9
REMARK    6  A    between atoms: S_9  and  C_10
REMARK    7  A    between atoms: C_10  and  C_11
REMARK    8  A    between atoms: N_23  and  C_24
REMARK                            x       y       z     vdW  Elec       q    Type
REMARK                         _______ _______ _______ _____ _____    ______ ____
ROOT
ATOM      1  C   UNL     1       5.661   5.196  19.274  0.00  0.00    +0.000 A 
ATOM      2  C   UNL     1       4.681   6.127  19.381  0.00  0.00    +0.000 A 
ATOM      3  C   UNL     1       3.261   5.718  19.247  0.00  0.00    +0.000 A 
ATOM      4  O   UNL     1       2.362   6.550  19.340  0.00  0.00    +0.000 OA
ATOM      5  C   UNL     1       2.971   4.290  18.994  0.00  0.00    +0.000 A 
ATOM      6  C   UNL     1       1.653   3.854  18.852  0.00  0.00    +0.000 A 
ATOM      7  C   UNL     1       1.417   2.507  18.625  0.00  0.00    +0.000 A 
ATOM      8  F   UNL     1       0.158   2.070  18.490  0.00  0.00    +0.000 F 
ATOM      9  C   UNL     1       2.469   1.600  18.534  0.00  0.00    +0.000 A 
ATOM     10  C   UNL     1       3.790   2.046  18.669  0.00  0.00    +0.000 A 
ATOM     11  C   UNL     1       4.056   3.400  18.901  0.00  0.00    +0.000 A 
ATOM     12  N   UNL     1       5.366   3.872  19.023  0.00  0.00    +0.000 N 
ATOM     13  H   UNL     1       6.138   3.211  18.977  0.00  0.00    +0.000 HD
ENDROOT
BRANCH   1  14
ATOM     14  C   UNL     1       7.146   5.604  19.329  0.00  0.00    +0.000 C 
BRANCH  14  15
ATOM     15  S   UNL     1       7.566   6.899  18.069  0.00  0.00    +0.000 S 
BRANCH  15  19
ATOM     16  C   UNL     1       5.666   5.286  15.062  0.00  0.00    +0.000 A 
ATOM     17  N   UNL     1       5.165   6.508  15.059  0.00  0.00    +0.000 NA
ATOM     18  N   UNL     1       5.752   7.213  16.081  0.00  0.00    +0.000 NA
ATOM     19  C   UNL     1       6.603   6.423  16.692  0.00  0.00    +0.000 A 
ATOM     20  N   UNL     1       6.596   5.186  16.079  0.00  0.00    +0.000 N 
ATOM     21  C   UNL     1       7.328   3.977  16.350  0.00  0.00    +0.000 C 
BRANCH  16  22
ATOM     22  C   UNL     1       5.274   4.185  14.132  0.00  0.00    +0.000 C 
BRANCH  22  23
ATOM     23  C   UNL     1       6.133   4.199  12.868  0.00  0.00    +0.000 C 
BRANCH  23  25
ATOM     24  C   UNL     1       4.394   3.210  11.353  0.00  0.00    +0.000 C 
ATOM     25  C   UNL     1       5.783   3.033  11.944  0.00  0.00    +0.000 C 
ENDBRANCH  23  25
ENDBRANCH  22  23
ENDBRANCH  16  22
ENDBRANCH  15  19
ENDBRANCH  14  15
ENDBRANCH   1  14
TORSDOF 6
ENDMDL
MODEL 6
REMARK VINA RESULT:      -7.5      3.687      6.119
REMARK  Name = 
REMARK  8 active torsions:
REMARK  status: ('A' for Active; 'I' for Inactive)
REMARK    1  A    between atoms: C_1  and  C_2
REMARK    2  A    between atoms: C_2  and  C_3
REMARK    3  A    between atoms: C_3  and  C_4
REMARK    4  A    between atoms: C_4  and  C_5
REMARK    5  A    between atoms: C_8  and  S_9
REMARK    6  A    between atoms: S_9  and  C_10
REMARK    7  A    between atoms: C_10  and  C_11
REMARK    8  A    between atoms: N_23  and  C_24
REMARK                            x       y       z     vdW  Elec       q    Type
REMARK                         _______ _______ _______ _____ _____    ______ ____
ROOT
ATOM      1  C   UNL     1       3.927   4.933  17.574  0.00  0.00    +0.000 A 
ATOM      2  C   UNL     1       3.673   4.299  18.745  0.00  0.00    +0.000 A 
ATOM      3  C   UNL     1       2.928   5.005  19.816  0.00  0.00    +0.000 A 
ATOM      4  O   UNL     1       2.692   4.445  20.884  0.00  0.00    +0.000 OA
ATOM      5  C   UNL     1       2.489   6.393  19.558  0.00  0.00    +0.000 A 
ATOM      6  C   UNL     1       1.792   7.106  20.535  0.00  0.00    +0.000 A 
ATOM      7  C   UNL     1       1.388   8.401  20.256  0.00  0.00    +0.000 A 
ATOM      8  F   UNL     1       0.715   9.098  21.180  0.00  0.00    +0.000 F 
ATOM      9  C   UNL     1       1.673   8.992  19.027  0.00  0.00    +0.000 A 
ATOM     10  C   UNL     1       2.381   8.275  18.055  0.00  0.00    +0.000 A 
ATOM     11  C   UNL     1       2.798   6.964  18.310  0.00  0.00    +0.000 A 
ATOM     12  N   UNL     1       3.520   6.234  17.362  0.00  0.00    +0.000 N 
ATOM     13  H   UNL     1       3.714   6.653  16.455  0.00  0.00    +0.000 HD
ENDROOT
BRANCH   1  14
ATOM     14  C   UNL     1       4.767   4.254  16.475  0.00  0.00    +0.000 C 
BRANCH  14  15
ATOM     15  S   UNL     1       6.557   4.118  16.943  0.00  0.00    +0.000 S 
BRANCH  15  19
ATOM     16  C   UNL     1       7.856   7.636  18.034  0.00  0.00    +0.000 A 
ATOM     17  N   UNL     1       7.253   7.925  16.895  0.00  0.00    +0.000 NA
ATOM     18  N   UNL     1       6.730   6.764  16.382  0.00  0.00    +0.000 NA
ATOM     19  C   UNL     1       7.013   5.783  17.206  0.00  0.00    +0.000 A 
ATOM     20  N   UNL     1       7.721   6.283  18.281  0.00  0.00    +0.000 N 
ATOM     21  C   UNL     1       8.268   5.646  19.449  0.00  0.00    +0.000 C 
BRANCH  16  22
ATOM     22  C   UNL     1       8.584   8.609  18.902  0.00  0.00    +0.000 C 
BRANCH  22  23
ATOM     23  C   UNL     1       8.659   9.986  18.244  0.00  0.00    +0.000 C 
BRANCH  23  25
ATOM     24  C   UNL     1      10.229  11.914  17.906  0.00  0.00    +0.000 C 
ATOM     25  C   UNL     1       9.750  10.848  18.878  0.00  0.00    +0.000 C 
ENDBRANCH  23  25
ENDBRANCH  22  23
ENDBRANCH  16  22
ENDBRANCH  15  19
ENDBRANCH  14  15
ENDBRANCH   1  14
TORSDOF 6
ENDMDL
MODEL 7
REMARK VINA RESULT:      -7.4      4.858      6.026
REMARK  Name = 
REMARK  8 active torsions:
REMARK  status: ('A' for Active; 'I' for Inactive)
REMARK    1  A    between atoms: C_1  and  C_2
REMARK    2  A    between atoms: C_2  and  C_3
REMARK    3  A    between atoms: C_3  and  C_4
REMARK    4  A    between atoms: C_4  and  C_5
REMARK    5  A    between atoms: C_8  and  S_9
REMARK    6  A    between atoms: S_9  and  C_10
REMARK    7  A    between atoms: C_10  and  C_11
REMARK    8  A    between atoms: N_23  and  C_24
REMARK                            x       y       z     vdW  Elec       q    Type
REMARK                         _______ _______ _______ _____ _____    ______ ____
ROOT
ATOM      1  C   UNL     1       1.603   8.784  19.018  0.00  0.00    +0.000 A 
ATOM      2  C   UNL     1       1.026   9.834  18.385  0.00  0.00    +0.000 A 
ATOM      3  C   UNL     1       0.131  10.746  19.139  0.00  0.00    +0.000 A 
ATOM      4  O   UNL     1      -0.401  11.701  18.579  0.00  0.00    +0.000 OA
ATOM      5  C   UNL     1      -0.099  10.464  20.572  0.00  0.00    +0.000 A 
ATOM      6  C   UNL     1      -0.939  11.286  21.326  0.00  0.00    +0.000 A 
ATOM      7  C   UNL     1      -1.125  10.998  22.669  0.00  0.00    +0.000 A 
ATOM      8  F   UNL     1      -1.924  11.777  23.408  0.00  0.00    +0.000 F 
ATOM      9  C   UNL     1      -0.494   9.907  23.262  0.00  0.00    +0.000 A 
ATOM     10  C   UNL     1       0.340   9.081  22.498  0.00  0.00    +0.000 A 
ATOM     11  C   UNL     1       0.547   9.352  21.141  0.00  0.00    +0.000 A 
ATOM     12  N   UNL     1       1.361   8.533  20.353  0.00  0.00    +0.000 N 
ATOM     13  H   UNL     1       1.840   7.746  20.786  0.00  0.00    +0.000 HD
ENDROOT
BRANCH   1  14
ATOM     14  C   UNL     1       2.472   7.775  18.243  0.00  0.00    +0.000 C 
BRANCH  14  15
ATOM     15  S   UNL     1       2.977   6.331  19.291  0.00  0.00    +0.000 S 
BRANCH  15  19
ATOM     16  C   UNL     1       4.795   4.194  16.574  0.00  0.00    +0.000 A 
ATOM     17  N   UNL     1       3.791   3.401  16.898  0.00  0.00    +0.000 NA
ATOM     18  N   UNL     1       3.042   4.030  17.861  0.00  0.00    +0.000 NA
ATOM     19  C   UNL     1       3.589   5.195  18.114  0.00  0.00    +0.000 A 
ATOM     20  N   UNL     1       4.703   5.358  17.315  0.00  0.00    +0.000 N 
ATOM     21  C   UNL     1       5.651   6.434  17.197  0.00  0.00    +0.000 C 
BRANCH  16  22
ATOM     22  C   UNL     1       5.868   3.878  15.584  0.00  0.00    +0.000 C 
BRANCH  22  23
ATOM     23  C   UNL     1       5.502   4.388  14.191  0.00  0.00    +0.000 C 
BRANCH  23  25
ATOM     24  C   UNL     1       5.424   3.161  12.005  0.00  0.00    +0.000 C 
ATOM     25  C   UNL     1       6.324   3.691  13.108  0.00  0.00    +0.000 C 
ENDBRANCH  23  25
ENDBRANCH  22  23
ENDBRANCH  16  22
ENDBRANCH  15  19
ENDBRANCH  14  15
ENDBRANCH   1  14
TORSDOF 6
ENDMDL
MODEL 8
REMARK VINA RESULT:      -7.4      3.760      4.732
REMARK  Name = 
REMARK  8 active torsions:
REMARK  status: ('A' for Active; 'I' for Inactive)
REMARK    1  A    between atoms: C_1  and  C_2
REMARK    2  A    between atoms: C_2  and  C_3
REMARK    3  A    between atoms: C_3  and  C_4
REMARK    4  A    between atoms: C_4  and  C_5
REMARK    5  A    between atoms: C_8  and  S_9
REMARK    6  A    between atoms: S_9  and  C_10
REMARK    7  A    between atoms: C_10  and  C_11
REMARK    8  A    between atoms: N_23  and  C_24
REMARK                            x       y       z     vdW  Elec       q    Type
REMARK                         _______ _______ _______ _____ _____    ______ ____
ROOT
ATOM      1  C   UNL     1       2.707   6.723  19.027  0.00  0.00    +0.000 A 
ATOM      2  C   UNL     1       2.637   7.623  18.017  0.00  0.00    +0.000 A 
ATOM      3  C   UNL     1       1.977   8.933  18.243  0.00  0.00    +0.000 A 
ATOM      4  O   UNL     1       1.903   9.758  17.336  0.00  0.00    +0.000 OA
ATOM      5  C   UNL     1       1.413   9.203  19.583  0.00  0.00    +0.000 A 
ATOM      6  C   UNL     1       0.775  10.416  19.847  0.00  0.00    +0.000 A 
ATOM      7  C   UNL     1       0.265  10.640  21.116  0.00  0.00    +0.000 A 
ATOM      8  F   UNL     1      -0.347  11.799  21.388  0.00  0.00    +0.000 F 
ATOM      9  C   UNL     1       0.379   9.675  22.114  0.00  0.00    +0.000 A 
ATOM     10  C   UNL     1       1.012   8.457  21.841  0.00  0.00    +0.000 A 
ATOM     11  C   UNL     1       1.538   8.207  20.568  0.00  0.00    +0.000 A 
ATOM     12  N   UNL     1       2.160   6.993  20.265  0.00  0.00    +0.000 N 
ATOM     13  H   UNL     1       2.263   6.292  20.996  0.00  0.00    +0.000 HD
ENDROOT
BRANCH   1  14
ATOM     14  C   UNL     1       3.314   5.325  18.798  0.00  0.00    +0.000 C 
BRANCH  14  15
ATOM     15  S   UNL     1       5.092   5.238  19.322  0.00  0.00    +0.000 S 
BRANCH  15  19
ATOM     16  C   UNL     1       6.726   5.072  15.778  0.00  0.00    +0.000 A 
ATOM     17  N   UNL     1       7.217   6.209  16.237  0.00  0.00    +0.000 NA
ATOM     18  N   UNL     1       6.726   6.407  17.503  0.00  0.00    +0.000 NA
ATOM     19  C   UNL     1       5.948   5.396  17.807  0.00  0.00    +0.000 A 
ATOM     20  N   UNL     1       5.919   4.510  16.749  0.00  0.00    +0.000 N 
ATOM     21  C   UNL     1       5.230   3.260  16.562  0.00  0.00    +0.000 C 
BRANCH  16  22
ATOM     22  C   UNL     1       6.984   4.499  14.424  0.00  0.00    +0.000 C 
BRANCH  22  23
ATOM     23  C   UNL     1       5.686   4.347  13.633  0.00  0.00    +0.000 C 
BRANCH  23  25
ATOM     24  C   UNL     1       4.570   3.258  11.667  0.00  0.00    +0.000 C 
ATOM     25  C   UNL     1       5.840   3.335  12.498  0.00  0.00    +0.000 C 
ENDBRANCH  23  25
ENDBRANCH  22  23
ENDBRANCH  16  22
ENDBRANCH  15  19
ENDBRANCH  14  15
ENDBRANCH   1  14
TORSDOF 6
ENDMDL
MODEL 9
REMARK VINA RESULT:      -7.4      1.463      1.914
REMARK  Name = 
REMARK  8 active torsions:
REMARK  status: ('A' for Active; 'I' for Inactive)
REMARK    1  A    between atoms: C_1  and  C_2
REMARK    2  A    between atoms: C_2  and  C_3
REMARK    3  A    between atoms: C_3  and  C_4
REMARK    4  A    between atoms: C_4  and  C_5
REMARK    5  A    between atoms: C_8  and  S_9
REMARK    6  A    between atoms: S_9  and  C_10
REMARK    7  A    between atoms: C_10  and  C_11
REMARK    8  A    between atoms: N_23  and  C_24
REMARK                            x       y       z     vdW  Elec       q    Type
REMARK                         _______ _______ _______ _____ _____    ______ ____
ROOT
ATOM      1  C   UNL     1       4.636   5.188  17.973  0.00  0.00    +0.000 A 
ATOM      2  C   UNL     1       5.341   4.162  18.507  0.00  0.00    +0.000 A 
ATOM      3  C   UNL     1       4.714   3.297  19.537  0.00  0.00    +0.000 A 
ATOM      4  O   UNL     1       5.340   2.364  20.033  0.00  0.00    +0.000 OA
ATOM      5  C   UNL     1       3.325   3.599  19.945  0.00  0.00    +0.000 A 
ATOM      6  C   UNL     1       2.690   2.822  20.915  0.00  0.00    +0.000 A 
ATOM      7  C   UNL     1       1.385   3.128  21.267  0.00  0.00    +0.000 A 
ATOM      8  F   UNL     1       0.760   2.391  22.193  0.00  0.00    +0.000 F 
ATOM      9  C   UNL     1       0.713   4.193  20.672  0.00  0.00    +0.000 A 
ATOM     10  C   UNL     1       1.358   4.974  19.706  0.00  0.00    +0.000 A 
ATOM     11  C   UNL     1       2.675   4.685  19.330  0.00  0.00    +0.000 A 
ATOM     12  N   UNL     1       3.347   5.460  18.380  0.00  0.00    +0.000 N 
ATOM     13  H   UNL     1       2.854   6.227  17.928  0.00  0.00    +0.000 HD
ENDROOT
BRANCH   1  14
ATOM     14  C   UNL     1       5.288   6.151  16.961  0.00  0.00    +0.000 C 
BRANCH  14  15
ATOM     15  S   UNL     1       7.066   5.731  16.638  0.00  0.00    +0.000 S 
BRANCH  15  19
ATOM     16  C   UNL     1       6.547   3.952  13.200  0.00  0.00    +0.000 A 
ATOM     17  N   UNL     1       7.440   4.871  12.883  0.00  0.00    +0.000 NA
ATOM     18  N   UNL     1       7.733   5.591  14.015  0.00  0.00    +0.000 NA
ATOM     19  C   UNL     1       7.024   5.107  15.007  0.00  0.00    +0.000 A 
ATOM     20  N   UNL     1       6.258   4.055  14.548  0.00  0.00    +0.000 N 
ATOM     21  C   UNL     1       5.317   3.191  15.211  0.00  0.00    +0.000 C 
BRANCH  16  22
ATOM     22  C   UNL     1       5.933   2.975  12.252  0.00  0.00    +0.000 C 
BRANCH  22  23
ATOM     23  C   UNL     1       5.148   3.690  11.154  0.00  0.00    +0.000 C 
BRANCH  23  25
ATOM     24  C   UNL     1       3.021   3.687   9.823  0.00  0.00    +0.000 C 
ATOM     25  C   UNL     1       3.702   3.199  11.091  0.00  0.00    +0.000 C 
ENDBRANCH  23  25
ENDBRANCH  22  23
ENDBRANCH  16  22
ENDBRANCH  15  19
ENDBRANCH  14  15
ENDBRANCH   1  14
TORSDOF 6
ENDMDL
