MODEL 1
REMARK VINA RESULT:      -8.6      0.000      0.000
REMARK  Name = 
REMARK  4 active torsions:
REMARK  status: ('A' for Active; 'I' for Inactive)
REMARK    1  A    between atoms: C_1  and  N_2
REMARK    2  A    between atoms: N_11  and  C_12
REMARK    3  A    between atoms: C_12  and  C_13
REMARK    4  A    between atoms: N_15  and  C_16
REMARK                            x       y       z     vdW  Elec       q    Type
REMARK                         _______ _______ _______ _____ _____    ______ ____
ROOT
ATOM      1  C   UNL     1       7.996   6.102  18.105  0.00  0.00    +0.000 C 
ENDROOT
BRANCH   1  12
ATOM      2  C   UNL     1       3.850   4.056  19.552  0.00  0.00    +0.000 C 
ATOM      3  N   UNL     1       4.746   4.378  18.451  0.00  0.00    +0.000 N 
ATOM      4  C   UNL     1       4.376   4.006  17.173  0.00  0.00    +0.000 A 
ATOM      5  O   UNL     1       3.316   3.453  16.895  0.00  0.00    +0.000 OA
ATOM      6  C   UNL     1       5.344   4.288  16.103  0.00  0.00    +0.000 A 
ATOM      7  C   UNL     1       5.089   3.806  14.809  0.00  0.00    +0.000 A 
ATOM      8  C   UNL     1       6.003   4.034  13.786  0.00  0.00    +0.000 A 
ATOM      9  C   UNL     1       7.146   4.781  14.050  0.00  0.00    +0.000 A 
ATOM     10  C   UNL     1       7.388   5.275  15.337  0.00  0.00    +0.000 A 
ATOM     11  C   UNL     1       6.506   5.006  16.396  0.00  0.00    +0.000 A 
ATOM     12  N   UNL     1       6.772   5.384  17.743  0.00  0.00    +0.000 N 
ATOM     13  C   UNL     1       5.922   5.039  18.785  0.00  0.00    +0.000 A 
ATOM     14  O   UNL     1       6.211   5.304  19.957  0.00  0.00    +0.000 OA
ENDBRANCH   1  12
BRANCH   1  15
ATOM     15  C   UNL     1       7.841   7.625  18.023  0.00  0.00    +0.000 C 
ATOM     16  O   UNL     1       7.101   8.122  17.170  0.00  0.00    +0.000 OA
ATOM     17  N   UNL     1       8.605   8.335  18.944  0.00  0.00    +0.000 N 
ATOM     18  H   UNL     1       9.204   7.792  19.561  0.00  0.00    +0.000 HD
BRANCH  17  19
ATOM     19  C   UNL     1       8.867   9.726  18.886  0.00  0.00    +0.000 A 
ATOM     20  C   UNL     1       8.401  10.551  17.857  0.00  0.00    +0.000 A 
ATOM     21  C   UNL     1       8.941  11.824  17.660  0.00  0.00    +0.000 A 
ATOM     22  C   UNL     1       9.956  12.274  18.493  0.00  0.00    +0.000 A 
ATOM     23  C   UNL     1      10.303  11.523  19.615  0.00  0.00    +0.000 A 
ATOM     24  C   UNL     1       9.733  10.266  19.843  0.00  0.00    +0.000 A 
ATOM     25  O   UNL     1      11.278  11.949  20.480  0.00  0.00    +0.000 OA
ATOM     26  C   UNL     1      12.333  12.496  19.687  0.00  0.00    +0.000 C 
ATOM     27  C   UNL     1      11.846  13.639  18.801  0.00  0.00    +0.000 C 
ATOM     28  O   UNL     1      10.609  13.410  18.115  0.00  0.00    +0.000 OA
ENDBRANCH  17  19
ENDBRANCH   1  15
TORSDOF 3
ENDMDL
MODEL 2
REMARK VINA RESULT:      -8.4      6.155      8.294
REMARK  Name = 
REMARK  4 active torsions:
REMARK  status: ('A' for Active; 'I' for Inactive)
REMARK    1  A    between atoms: C_1  and  N_2
REMARK    2  A    between atoms: N_11  and  C_12
REMARK    3  A    between atoms: C_12  and  C_13
REMARK    4  A    between atoms: N_15  and  C_16
REMARK                            x       y       z     vdW  Elec       q    Type
REMARK                         _______ _______ _______ _____ _____    ______ ____
ROOT
ATOM      1  C   UNL     1       3.165   7.524  19.115  0.00  0.00    +0.000 C 
ENDROOT
BRANCH   1  12
ATOM      2  C   UNL     1       1.064   3.214  19.807  0.00  0.00    +0.000 C 
ATOM      3  N   UNL     1       1.995   4.020  19.030  0.00  0.00    +0.000 N 
ATOM      4  C   UNL     1       2.644   3.428  17.964  0.00  0.00    +0.000 A 
ATOM      5  O   UNL     1       2.458   2.272  17.599  0.00  0.00    +0.000 OA
ATOM      6  C   UNL     1       3.628   4.260  17.254  0.00  0.00    +0.000 A 
ATOM      7  C   UNL     1       4.422   3.672  16.255  0.00  0.00    +0.000 A 
ATOM      8  C   UNL     1       5.379   4.430  15.590  0.00  0.00    +0.000 A 
ATOM      9  C   UNL     1       5.509   5.780  15.893  0.00  0.00    +0.000 A 
ATOM     10  C   UNL     1       4.703   6.366  16.876  0.00  0.00    +0.000 A 
ATOM     11  C   UNL     1       3.771   5.605  17.600  0.00  0.00    +0.000 A 
ATOM     12  N   UNL     1       3.019   6.130  18.689  0.00  0.00    +0.000 N 
ATOM     13  C   UNL     1       2.160   5.338  19.439  0.00  0.00    +0.000 A 
ATOM     14  O   UNL     1       1.579   5.791  20.431  0.00  0.00    +0.000 OA
ENDBRANCH   1  12
BRANCH   1  15
ATOM     15  C   UNL     1       2.088   8.443  18.526  0.00  0.00    +0.000 C 
ATOM     16  O   UNL     1       2.150   8.782  17.342  0.00  0.00    +0.000 OA
ATOM     17  N   UNL     1       1.113   8.846  19.433  0.00  0.00    +0.000 N 
ATOM     18  H   UNL     1       1.213   8.521  20.392  0.00  0.00    +0.000 HD
BRANCH  17  19
ATOM     19  C   UNL     1       0.196   9.907  19.228  0.00  0.00    +0.000 A 
ATOM     20  C   UNL     1      -0.021  10.923  20.164  0.00  0.00    +0.000 A 
ATOM     21  C   UNL     1      -1.144  11.750  20.075  0.00  0.00    +0.000 A 
ATOM     22  C   UNL     1      -2.057  11.557  19.048  0.00  0.00    +0.000 A 
ATOM     23  C   UNL     1      -1.756  10.659  18.026  0.00  0.00    +0.000 A 
ATOM     24  C   UNL     1      -0.610   9.859  18.085  0.00  0.00    +0.000 A 
ATOM     25  O   UNL     1      -2.617  10.464  16.977  0.00  0.00    +0.000 OA
ATOM     26  C   UNL     1      -3.940  10.447  17.516  0.00  0.00    +0.000 C 
ATOM     27  C   UNL     1      -4.267  11.736  18.265  0.00  0.00    +0.000 C 
ATOM     28  O   UNL     1      -3.244  12.221  19.142  0.00  0.00    +0.000 OA
ENDBRANCH  17  19
ENDBRANCH   1  15
TORSDOF 3
ENDMDL
MODEL 3
REMARK VINA RESULT:      -8.2      5.732      7.006
REMARK  Name = 
REMARK  4 active torsions:
REMARK  status: ('A' for Active; 'I' for Inactive)
REMARK    1  A    between atoms: C_1  and  N_2
REMARK    2  A    between atoms: N_11  and  C_12
REMARK    3  A    between atoms: C_12  and  C_13
REMARK    4  A    between atoms: N_15  and  C_16
REMARK                            x       y       z     vdW  Elec       q    Type
REMARK                         _______ _______ _______ _____ _____    ______ ____
ROOT
ATOM      1  C   UNL     1       2.809   7.029  19.844  0.00  0.00    +0.000 C 
ENDROOT
BRANCH   1  12
ATOM      2  C   UNL     1       0.738   2.679  19.336  0.00  0.00    +0.000 C 
ATOM      3  N   UNL     1       1.726   3.636  18.860  0.00  0.00    +0.000 N 
ATOM      4  C   UNL     1       2.493   3.296  17.762  0.00  0.00    +0.000 A 
ATOM      5  O   UNL     1       2.369   2.251  17.131  0.00  0.00    +0.000 OA
ATOM      6  C   UNL     1       3.526   4.263  17.361  0.00  0.00    +0.000 A 
ATOM      7  C   UNL     1       4.430   3.911  16.345  0.00  0.00    +0.000 A 
ATOM      8  C   UNL     1       5.434   4.796  15.968  0.00  0.00    +0.000 A 
ATOM      9  C   UNL     1       5.505   6.044  16.576  0.00  0.00    +0.000 A 
ATOM     10  C   UNL     1       4.591   6.397  17.576  0.00  0.00    +0.000 A 
ATOM     11  C   UNL     1       3.606   5.496  18.011  0.00  0.00    +0.000 A 
ATOM     12  N   UNL     1       2.736   5.766  19.105  0.00  0.00    +0.000 N 
ATOM     13  C   UNL     1       1.822   4.829  19.567  0.00  0.00    +0.000 A 
ATOM     14  O   UNL     1       1.133   5.050  20.568  0.00  0.00    +0.000 OA
ENDBRANCH   1  12
BRANCH   1  15
ATOM     15  C   UNL     1       1.898   8.115  19.260  0.00  0.00    +0.000 C 
ATOM     16  O   UNL     1       1.913   8.344  18.048  0.00  0.00    +0.000 OA
ATOM     17  N   UNL     1       1.123   8.787  20.200  0.00  0.00    +0.000 N 
ATOM     18  H   UNL     1       1.246   8.520  21.174  0.00  0.00    +0.000 HD
BRANCH  17  19
ATOM     19  C   UNL     1       0.435  10.004  19.970  0.00  0.00    +0.000 A 
ATOM     20  C   UNL     1      -0.588  10.138  19.026  0.00  0.00    +0.000 A 
ATOM     21  C   UNL     1      -1.011  11.400  18.602  0.00  0.00    +0.000 A 
ATOM     22  C   UNL     1      -0.403  12.536  19.122  0.00  0.00    +0.000 A 
ATOM     23  C   UNL     1       0.496  12.407  20.179  0.00  0.00    +0.000 A 
ATOM     24  C   UNL     1       0.889  11.146  20.639  0.00  0.00    +0.000 A 
ATOM     25  O   UNL     1       1.092  13.507  20.740  0.00  0.00    +0.000 OA
ATOM     26  C   UNL     1       1.436  14.390  19.671  0.00  0.00    +0.000 C 
ATOM     27  C   UNL     1       0.216  14.787  18.845  0.00  0.00    +0.000 C 
ATOM     28  O   UNL     1      -0.679  13.721  18.506  0.00  0.00    +0.000 OA
ENDBRANCH  17  19
ENDBRANCH   1  15
TORSDOF 3
ENDMDL
MODEL 4
REMARK VINA RESULT:      -8.2      7.073     10.171
REMARK  Name = 
REMARK  4 active torsions:
REMARK  status: ('A' for Active; 'I' for Inactive)
REMARK    1  A    between atoms: C_1  and  N_2
REMARK    2  A    between atoms: N_11  and  C_12
REMARK    3  A    between atoms: C_12  and  C_13
REMARK    4  A    between atoms: N_15  and  C_16
REMARK                            x       y       z     vdW  Elec       q    Type
REMARK                         _______ _______ _______ _____ _____    ______ ____
ROOT
ATOM      1  C   UNL     1       1.415  10.504  18.284  0.00  0.00    +0.000 C 
ENDROOT
BRANCH   1  12
ATOM      2  C   UNL     1      -0.424  13.308  21.781  0.00  0.00    +0.000 C 
ATOM      3  N   UNL     1      -0.668  12.492  20.600  0.00  0.00    +0.000 N 
ATOM      4  C   UNL     1      -1.965  12.381  20.136  0.00  0.00    +0.000 A 
ATOM      5  O   UNL     1      -2.926  12.959  20.632  0.00  0.00    +0.000 OA
ATOM      6  C   UNL     1      -2.173  11.490  18.984  0.00  0.00    +0.000 A 
ATOM      7  C   UNL     1      -3.484  11.223  18.557  0.00  0.00    +0.000 A 
ATOM      8  C   UNL     1      -3.709  10.362  17.490  0.00  0.00    +0.000 A 
ATOM      9  C   UNL     1      -2.622   9.805  16.825  0.00  0.00    +0.000 A 
ATOM     10  C   UNL     1      -1.316  10.088  17.241  0.00  0.00    +0.000 A 
ATOM     11  C   UNL     1      -1.070  10.909  18.353  0.00  0.00    +0.000 A 
ATOM     12  N   UNL     1       0.233  11.125  18.886  0.00  0.00    +0.000 N 
ATOM     13  C   UNL     1       0.443  11.878  20.033  0.00  0.00    +0.000 A 
ATOM     14  O   UNL     1       1.570  11.986  20.526  0.00  0.00    +0.000 OA
ENDBRANCH   1  12
BRANCH   1  15
ATOM     15  C   UNL     1       1.661   9.077  18.787  0.00  0.00    +0.000 C 
ATOM     16  O   UNL     1       1.379   8.778  19.949  0.00  0.00    +0.000 OA
ATOM     17  N   UNL     1       2.230   8.223  17.847  0.00  0.00    +0.000 N 
ATOM     18  H   UNL     1       2.449   8.620  16.937  0.00  0.00    +0.000 HD
BRANCH  17  19
ATOM     19  C   UNL     1       2.819   6.968  18.137  0.00  0.00    +0.000 A 
ATOM     20  C   UNL     1       4.094   6.600  17.696  0.00  0.00    +0.000 A 
ATOM     21  C   UNL     1       4.503   5.264  17.719  0.00  0.00    +0.000 A 
ATOM     22  C   UNL     1       3.629   4.289  18.181  0.00  0.00    +0.000 A 
ATOM     23  C   UNL     1       2.428   4.673  18.772  0.00  0.00    +0.000 A 
ATOM     24  C   UNL     1       2.032   6.015  18.794  0.00  0.00    +0.000 A 
ATOM     25  O   UNL     1       1.553   3.742  19.270  0.00  0.00    +0.000 OA
ATOM     26  C   UNL     1       1.527   2.653  18.345  0.00  0.00    +0.000 C 
ATOM     27  C   UNL     1       2.914   2.050  18.137  0.00  0.00    +0.000 C 
ATOM     28  O   UNL     1       3.980   2.990  17.960  0.00  0.00    +0.000 OA
ENDBRANCH  17  19
ENDBRANCH   1  15
TORSDOF 3
ENDMDL
MODEL 5
REMARK VINA RESULT:      -8.1      1.090      1.964
REMARK  Name = 
REMARK  4 active torsions:
REMARK  status: ('A' for Active; 'I' for Inactive)
REMARK    1  A    between atoms: C_1  and  N_2
REMARK    2  A    between atoms: N_11  and  C_12
REMARK    3  A    between atoms: C_12  and  C_13
REMARK    4  A    between atoms: N_15  and  C_16
REMARK                            x       y       z     vdW  Elec       q    Type
REMARK                         _______ _______ _______ _____ _____    ______ ____
ROOT
ATOM      1  C   UNL     1       7.882   6.103  18.166  0.00  0.00    +0.000 C 
ENDROOT
BRANCH   1  12
ATOM      2  C   UNL     1       3.550   4.389  19.495  0.00  0.00    +0.000 C 
ATOM      3  N   UNL     1       4.510   4.613  18.424  0.00  0.00    +0.000 N 
ATOM      4  C   UNL     1       4.168   4.223  17.144  0.00  0.00    +0.000 A 
ATOM      5  O   UNL     1       3.086   3.733  16.838  0.00  0.00    +0.000 OA
ATOM      6  C   UNL     1       5.197   4.403  16.108  0.00  0.00    +0.000 A 
ATOM      7  C   UNL     1       4.963   3.895  14.820  0.00  0.00    +0.000 A 
ATOM      8  C   UNL     1       5.931   4.027  13.831  0.00  0.00    +0.000 A 
ATOM      9  C   UNL     1       7.111   4.703  14.121  0.00  0.00    +0.000 A 
ATOM     10  C   UNL     1       7.333   5.224  15.401  0.00  0.00    +0.000 A 
ATOM     11  C   UNL     1       6.392   5.051  16.428  0.00  0.00    +0.000 A 
ATOM     12  N   UNL     1       6.628   5.456  17.773  0.00  0.00    +0.000 N 
ATOM     13  C   UNL     1       5.714   5.204  18.788  0.00  0.00    +0.000 A 
ATOM     14  O   UNL     1       5.973   5.489  19.962  0.00  0.00    +0.000 OA
ENDBRANCH   1  12
BRANCH   1  15
ATOM     15  C   UNL     1       7.841   7.627  18.011  0.00  0.00    +0.000 C 
ATOM     16  O   UNL     1       7.172   8.135  17.109  0.00  0.00    +0.000 OA
ATOM     17  N   UNL     1       8.620   8.322  18.930  0.00  0.00    +0.000 N 
ATOM     18  H   UNL     1       9.155   7.768  19.594  0.00  0.00    +0.000 HD
BRANCH  17  19
ATOM     19  C   UNL     1       8.985   9.688  18.823  0.00  0.00    +0.000 A 
ATOM     20  C   UNL     1       9.773  10.346  19.772  0.00  0.00    +0.000 A 
ATOM     21  C   UNL     1       9.838  11.741  19.806  0.00  0.00    +0.000 A 
ATOM     22  C   UNL     1       9.106  12.483  18.888  0.00  0.00    +0.000 A 
ATOM     23  C   UNL     1       8.455  11.829  17.844  0.00  0.00    +0.000 A 
ATOM     24  C   UNL     1       8.424  10.432  17.779  0.00  0.00    +0.000 A 
ATOM     25  O   UNL     1       7.749  12.528  16.900  0.00  0.00    +0.000 OA
ATOM     26  C   UNL     1       7.043  13.564  17.585  0.00  0.00    +0.000 C 
ATOM     27  C   UNL     1       7.987  14.481  18.358  0.00  0.00    +0.000 C 
ATOM     28  O   UNL     1       9.012  13.825  19.112  0.00  0.00    +0.000 OA
ENDBRANCH  17  19
ENDBRANCH   1  15
TORSDOF 3
ENDMDL
MODEL 6
REMARK VINA RESULT:      -8.1      9.338     11.742
REMARK  Name = 
REMARK  4 active torsions:
REMARK  status: ('A' for Active; 'I' for Inactive)
REMARK    1  A    between atoms: C_1  and  N_2
REMARK    2  A    between atoms: N_11  and  C_12
REMARK    3  A    between atoms: C_12  and  C_13
REMARK    4  A    between atoms: N_15  and  C_16
REMARK                            x       y       z     vdW  Elec       q    Type
REMARK                         _______ _______ _______ _____ _____    ______ ____
ROOT
ATOM      1  C   UNL     1       1.042  12.018  18.702  0.00  0.00    +0.000 C 
ENDROOT
BRANCH   1  12
ATOM      2  C   UNL     1       2.466   7.393  18.473  0.00  0.00    +0.000 C 
ATOM      3  N   UNL     1       1.827   8.448  19.246  0.00  0.00    +0.000 N 
ATOM      4  C   UNL     1       1.380   8.150  20.519  0.00  0.00    +0.000 A 
ATOM      5  O   UNL     1       1.522   7.059  21.062  0.00  0.00    +0.000 OA
ATOM      6  C   UNL     1       0.677   9.227  21.234  0.00  0.00    +0.000 A 
ATOM      7  C   UNL     1       0.075   8.942  22.470  0.00  0.00    +0.000 A 
ATOM      8  C   UNL     1      -0.620   9.935  23.152  0.00  0.00    +0.000 A 
ATOM      9  C   UNL     1      -0.674  11.217  22.617  0.00  0.00    +0.000 A 
ATOM     10  C   UNL     1      -0.057  11.501  21.393  0.00  0.00    +0.000 A 
ATOM     11  C   UNL     1       0.600  10.498  20.662  0.00  0.00    +0.000 A 
ATOM     12  N   UNL     1       1.134  10.712  19.359  0.00  0.00    +0.000 N 
ATOM     13  C   UNL     1       1.711   9.685  18.624  0.00  0.00    +0.000 A 
ATOM     14  O   UNL     1       2.095   9.871  17.464  0.00  0.00    +0.000 OA
ENDBRANCH   1  12
BRANCH   1  15
ATOM     15  C   UNL     1      -0.386  12.366  18.266  0.00  0.00    +0.000 C 
ATOM     16  O   UNL     1      -0.782  13.531  18.334  0.00  0.00    +0.000 OA
ATOM     17  N   UNL     1      -1.141  11.278  17.840  0.00  0.00    +0.000 N 
ATOM     18  H   UNL     1      -0.696  10.364  17.877  0.00  0.00    +0.000 HD
BRANCH  17  19
ATOM     19  C   UNL     1      -2.548  11.278  17.670  0.00  0.00    +0.000 A 
ATOM     20  C   UNL     1      -3.170  11.116  16.427  0.00  0.00    +0.000 A 
ATOM     21  C   UNL     1      -4.516  11.443  16.251  0.00  0.00    +0.000 A 
ATOM     22  C   UNL     1      -5.245  11.941  17.323  0.00  0.00    +0.000 A 
ATOM     23  C   UNL     1      -4.675  11.947  18.594  0.00  0.00    +0.000 A 
ATOM     24  C   UNL     1      -3.339  11.577  18.785  0.00  0.00    +0.000 A 
ATOM     25  O   UNL     1      -5.374  12.401  19.683  0.00  0.00    +0.000 OA
ATOM     26  C   UNL     1      -6.093  13.563  19.266  0.00  0.00    +0.000 C 
ATOM     27  C   UNL     1      -7.028  13.264  18.097  0.00  0.00    +0.000 C 
ATOM     28  O   UNL     1      -6.472  12.467  17.045  0.00  0.00    +0.000 OA
ENDBRANCH  17  19
ENDBRANCH   1  15
TORSDOF 3
ENDMDL
MODEL 7
REMARK VINA RESULT:      -8.0      6.136      7.526
REMARK  Name = 
REMARK  4 active torsions:
REMARK  status: ('A' for Active; 'I' for Inactive)
REMARK    1  A    between atoms: C_1  and  N_2
REMARK    2  A    between atoms: N_11  and  C_12
REMARK    3  A    between atoms: C_12  and  C_13
REMARK    4  A    between atoms: N_15  and  C_16
REMARK                            x       y       z     vdW  Elec       q    Type
REMARK                         _______ _______ _______ _____ _____    ______ ____
ROOT
ATOM      1  C   UNL     1       2.759   7.050  19.689  0.00  0.00    +0.000 C 
ENDROOT
BRANCH   1  12
ATOM      2  C   UNL     1       0.790   2.634  19.375  0.00  0.00    +0.000 C 
ATOM      3  N   UNL     1       1.757   3.592  18.856  0.00  0.00    +0.000 N 
ATOM      4  C   UNL     1       2.533   3.222  17.775  0.00  0.00    +0.000 A 
ATOM      5  O   UNL     1       2.434   2.147  17.191  0.00  0.00    +0.000 OA
ATOM      6  C   UNL     1       3.543   4.194  17.332  0.00  0.00    +0.000 A 
ATOM      7  C   UNL     1       4.457   3.819  16.332  0.00  0.00    +0.000 A 
ATOM      8  C   UNL     1       5.440   4.710  15.917  0.00  0.00    +0.000 A 
ATOM      9  C   UNL     1       5.481   5.985  16.469  0.00  0.00    +0.000 A 
ATOM     10  C   UNL     1       4.558   6.360  17.452  0.00  0.00    +0.000 A 
ATOM     11  C   UNL     1       3.594   5.457  17.926  0.00  0.00    +0.000 A 
ATOM     12  N   UNL     1       2.716   5.754  19.008  0.00  0.00    +0.000 N 
ATOM     13  C   UNL     1       1.824   4.817  19.510  0.00  0.00    +0.000 A 
ATOM     14  O   UNL     1       1.129   5.066  20.501  0.00  0.00    +0.000 OA
ENDBRANCH   1  12
BRANCH   1  15
ATOM     15  C   UNL     1       1.885   8.111  19.009  0.00  0.00    +0.000 C 
ATOM     16  O   UNL     1       1.758   8.108  17.783  0.00  0.00    +0.000 OA
ATOM     17  N   UNL     1       1.314   9.033  19.880  0.00  0.00    +0.000 N 
ATOM     18  H   UNL     1       1.541   8.938  20.867  0.00  0.00    +0.000 HD
BRANCH  17  19
ATOM     19  C   UNL     1       0.720  10.261  19.493  0.00  0.00    +0.000 A 
ATOM     20  C   UNL     1       1.419  11.272  18.827  0.00  0.00    +0.000 A 
ATOM     21  C   UNL     1       0.906  12.570  18.755  0.00  0.00    +0.000 A 
ATOM     22  C   UNL     1      -0.311  12.859  19.357  0.00  0.00    +0.000 A 
ATOM     23  C   UNL     1      -1.082  11.819  19.874  0.00  0.00    +0.000 A 
ATOM     24  C   UNL     1      -0.593  10.509  19.908  0.00  0.00    +0.000 A 
ATOM     25  O   UNL     1      -2.304  12.060  20.448  0.00  0.00    +0.000 OA
ATOM     26  C   UNL     1      -2.175  13.251  21.227  0.00  0.00    +0.000 C 
ATOM     27  C   UNL     1      -1.720  14.438  20.382  0.00  0.00    +0.000 C 
ATOM     28  O   UNL     1      -0.649  14.175  19.468  0.00  0.00    +0.000 OA
ENDBRANCH  17  19
ENDBRANCH   1  15
TORSDOF 3
ENDMDL
MODEL 8
REMARK VINA RESULT:      -7.9      5.833      8.504
REMARK  Name = 
REMARK  4 active torsions:
REMARK  status: ('A' for Active; 'I' for Inactive)
REMARK    1  A    between atoms: C_1  and  N_2
REMARK    2  A    between atoms: N_11  and  C_12
REMARK    3  A    between atoms: C_12  and  C_13
REMARK    4  A    between atoms: N_15  and  C_16
REMARK                            x       y       z     vdW  Elec       q    Type
REMARK                         _______ _______ _______ _____ _____    ______ ____
ROOT
ATOM      1  C   UNL     1       3.477   7.226  19.125  0.00  0.00    +0.000 C 
ENDROOT
BRANCH   1  12
ATOM      2  C   UNL     1       5.346   4.093  15.937  0.00  0.00    +0.000 C 
ATOM      3  N   UNL     1       4.432   4.324  17.046  0.00  0.00    +0.000 N 
ATOM      4  C   UNL     1       3.704   3.254  17.530  0.00  0.00    +0.000 A 
ATOM      5  O   UNL     1       3.804   2.105  17.111  0.00  0.00    +0.000 OA
ATOM      6  C   UNL     1       2.742   3.549  18.603  0.00  0.00    +0.000 A 
ATOM      7  C   UNL     1       1.872   2.535  19.036  0.00  0.00    +0.000 A 
ATOM      8  C   UNL     1       0.934   2.797  20.028  0.00  0.00    +0.000 A 
ATOM      9  C   UNL     1       0.898   4.057  20.614  0.00  0.00    +0.000 A 
ATOM     10  C   UNL     1       1.778   5.060  20.192  0.00  0.00    +0.000 A 
ATOM     11  C   UNL     1       2.693   4.833  19.152  0.00  0.00    +0.000 A 
ATOM     12  N   UNL     1       3.522   5.856  18.609  0.00  0.00    +0.000 N 
ATOM     13  C   UNL     1       4.363   5.625  17.529  0.00  0.00    +0.000 A 
ATOM     14  O   UNL     1       5.012   6.545  17.020  0.00  0.00    +0.000 OA
ENDBRANCH   1  12
BRANCH   1  15
ATOM     15  C   UNL     1       2.305   8.038  18.562  0.00  0.00    +0.000 C 
ATOM     16  O   UNL     1       2.117   8.082  17.344  0.00  0.00    +0.000 OA
ATOM     17  N   UNL     1       1.546   8.699  19.522  0.00  0.00    +0.000 N 
ATOM     18  H   UNL     1       1.844   8.605  20.490  0.00  0.00    +0.000 HD
BRANCH  17  19
ATOM     19  C   UNL     1       0.611   9.730  19.255  0.00  0.00    +0.000 A 
ATOM     20  C   UNL     1       0.298  10.736  20.174  0.00  0.00    +0.000 A 
ATOM     21  C   UNL     1      -0.842  11.527  20.010  0.00  0.00    +0.000 A 
ATOM     22  C   UNL     1      -1.677  11.306  18.923  0.00  0.00    +0.000 A 
ATOM     23  C   UNL     1      -1.279  10.421  17.924  0.00  0.00    +0.000 A 
ATOM     24  C   UNL     1      -0.114   9.658  18.061  0.00  0.00    +0.000 A 
ATOM     25  O   UNL     1      -2.061  10.200  16.819  0.00  0.00    +0.000 OA
ATOM     26  C   UNL     1      -3.416  10.140  17.268  0.00  0.00    +0.000 C 
ATOM     27  C   UNL     1      -3.834  11.416  17.993  0.00  0.00    +0.000 C 
ATOM     28  O   UNL     1      -2.889  11.932  18.938  0.00  0.00    +0.000 OA
ENDBRANCH  17  19
ENDBRANCH   1  15
TORSDOF 3
ENDMDL
MODEL 9
REMARK VINA RESULT:      -7.8      6.003      8.026
REMARK  Name = 
REMARK  4 active torsions:
REMARK  status: ('A' for Active; 'I' for Inactive)
REMARK    1  A    between atoms: C_1  and  N_2
REMARK    2  A    between atoms: N_11  and  C_12
REMARK    3  A    between atoms: C_12  and  C_13
REMARK    4  A    between atoms: N_15  and  C_16
REMARK                            x       y       z     vdW  Elec       q    Type
REMARK                         _______ _______ _______ _____ _____    ______ ____
ROOT
ATOM      1  C   UNL     1       2.892   6.663  20.072  0.00  0.00    +0.000 C 
ENDROOT
BRANCH   1  12
ATOM      2  C   UNL     1       0.730   2.457  19.020  0.00  0.00    +0.000 C 
ATOM      3  N   UNL     1       1.751   3.437  18.677  0.00  0.00    +0.000 N 
ATOM      4  C   UNL     1       2.532   3.207  17.561  0.00  0.00    +0.000 A 
ATOM      5  O   UNL     1       2.397   2.247  16.810  0.00  0.00    +0.000 OA
ATOM      6  C   UNL     1       3.596   4.188  17.295  0.00  0.00    +0.000 A 
ATOM      7  C   UNL     1       4.512   3.934  16.261  0.00  0.00    +0.000 A 
ATOM      8  C   UNL     1       5.545   4.831  16.009  0.00  0.00    +0.000 A 
ATOM      9  C   UNL     1       5.632   5.997  16.761  0.00  0.00    +0.000 A 
ATOM     10  C   UNL     1       4.706   6.254  17.778  0.00  0.00    +0.000 A 
ATOM     11  C   UNL     1       3.691   5.335  18.087  0.00  0.00    +0.000 A 
ATOM     12  N   UNL     1       2.805   5.497  19.190  0.00  0.00    +0.000 N 
ATOM     13  C   UNL     1       1.859   4.536  19.521  0.00  0.00    +0.000 A 
ATOM     14  O   UNL     1       1.155   4.656  20.529  0.00  0.00    +0.000 OA
ENDBRANCH   1  12
BRANCH   1  15
ATOM     15  C   UNL     1       1.998   7.822  19.619  0.00  0.00    +0.000 C 
ATOM     16  O   UNL     1       2.055   8.223  18.454  0.00  0.00    +0.000 OA
ATOM     17  N   UNL     1       1.188   8.353  20.619  0.00  0.00    +0.000 N 
ATOM     18  H   UNL     1       1.278   7.948  21.548  0.00  0.00    +0.000 HD
BRANCH  17  19
ATOM     19  C   UNL     1       0.503   9.591  20.542  0.00  0.00    +0.000 A 
ATOM     20  C   UNL     1       0.285  10.414  21.651  0.00  0.00    +0.000 A 
ATOM     21  C   UNL     1      -0.658  11.444  21.604  0.00  0.00    +0.000 A 
ATOM     22  C   UNL     1      -1.390  11.649  20.442  0.00  0.00    +0.000 A 
ATOM     23  C   UNL     1      -1.056  10.940  19.290  0.00  0.00    +0.000 A 
ATOM     24  C   UNL     1      -0.081   9.938  19.319  0.00  0.00    +0.000 A 
ATOM     25  O   UNL     1      -1.735  11.138  18.115  0.00  0.00    +0.000 OA
ATOM     26  C   UNL     1      -3.118  11.268  18.445  0.00  0.00    +0.000 C 
ATOM     27  C   UNL     1      -3.366  12.414  19.422  0.00  0.00    +0.000 C 
ATOM     28  O   UNL     1      -2.454  12.498  20.524  0.00  0.00    +0.000 OA
ENDBRANCH  17  19
ENDBRANCH   1  15
TORSDOF 3
ENDMDL
