MODEL 1
REMARK VINA RESULT:      -7.8      0.000      0.000
REMARK  Name = 
REMARK  4 active torsions:
REMARK  status: ('A' for Active; 'I' for Inactive)
REMARK    1  A    between atoms: N_3  and  C_4
REMARK    2  A    between atoms: N_13  and  C_14
REMARK    3  A    between atoms: N_13  and  C_20
REMARK    4  A    between atoms: C_14  and  C_15
REMARK                            x       y       z     vdW  Elec       q    Type
REMARK                         _______ _______ _______ _____ _____    ______ ____
ROOT
ATOM      1  O   UNL     1       3.279   7.918  17.468  0.00  0.00    +0.000 OA
ATOM      2  C   UNL     1       2.780   7.181  18.317  0.00  0.00    +0.000 C 
ATOM      3  N   UNL     1       1.875   7.632  19.250  0.00  0.00    +0.000 N 
ATOM      4  N   UNL     1       3.122   5.818  18.388  0.00  0.00    +0.000 N 
ATOM      5  H   UNL     1       1.620   7.016  20.007  0.00  0.00    +0.000 HD
ENDROOT
BRANCH   3   6
ATOM      6  C   UNL     1       1.380   8.918  19.391  0.00  0.00    +0.000 A 
ATOM      7  C   UNL     1       1.249   9.837  18.409  0.00  0.00    +0.000 A 
ATOM      8  C   UNL     1       0.767  11.191  18.661  0.00  0.00    +0.000 A 
ATOM      9  C   UNL     1       0.432  11.538  19.912  0.00  0.00    +0.000 A 
ATOM     10  N   UNL     1       0.540  10.589  20.919  0.00  0.00    +0.000 N 
ATOM     11  C   UNL     1       0.261  10.665  22.252  0.00  0.00    +0.000 A 
ATOM     12  N   UNL     1       0.502   9.510  22.832  0.00  0.00    +0.000 NA
ATOM     13  N   UNL     1       0.962   8.640  21.863  0.00  0.00    +0.000 NA
ATOM     14  C   UNL     1       0.988   9.293  20.717  0.00  0.00    +0.000 A 
ENDBRANCH   3   6
BRANCH   4  15
ATOM     15  C   UNL     1       2.298   4.795  19.107  0.00  0.00    +0.000 C 
ATOM     16  C   UNL     1       1.518   3.896  18.126  0.00  0.00    +0.000 C 
ATOM     17  C   UNL     1       2.420   2.877  17.441  0.00  0.00    +0.000 C 
ATOM     18  C   UNL     1       3.134   1.983  18.451  0.00  0.00    +0.000 C 
ATOM     19  C   UNL     1       3.821   2.745  19.578  0.00  0.00    +0.000 C 
ATOM     20  C   UNL     1       2.986   3.891  20.151  0.00  0.00    +0.000 C 
ENDBRANCH   4  15
BRANCH   4  21
ATOM     21  C   UNL     1       4.170   5.409  17.436  0.00  0.00    +0.000 C 
BRANCH  21  22
ATOM     22  C   UNL     1       5.556   5.759  17.910  0.00  0.00    +0.000 A 
ATOM     23  C   UNL     1       6.417   6.697  17.239  0.00  0.00    +0.000 A 
ATOM     24  C   UNL     1       7.650   6.819  17.841  0.00  0.00    +0.000 A 
ATOM     25  S   UNL     1       7.764   5.865  19.252  0.00  0.00    +0.000 S 
ATOM     26  C   UNL     1       6.169   5.277  19.053  0.00  0.00    +0.000 A 
ENDBRANCH  21  22
ENDBRANCH   4  21
TORSDOF 4
ENDMDL
MODEL 2
REMARK VINA RESULT:      -7.7      1.810      2.300
REMARK  Name = 
REMARK  4 active torsions:
REMARK  status: ('A' for Active; 'I' for Inactive)
REMARK    1  A    between atoms: N_3  and  C_4
REMARK    2  A    between atoms: N_13  and  C_14
REMARK    3  A    between atoms: N_13  and  C_20
REMARK    4  A    between atoms: C_14  and  C_15
REMARK                            x       y       z     vdW  Elec       q    Type
REMARK                         _______ _______ _______ _____ _____    ______ ____
ROOT
ATOM      1  O   UNL     1       4.661   6.849  18.256  0.00  0.00    +0.000 OA
ATOM      2  C   UNL     1       3.732   6.110  18.579  0.00  0.00    +0.000 C 
ATOM      3  N   UNL     1       2.471   6.586  18.856  0.00  0.00    +0.000 N 
ATOM      4  N   UNL     1       3.914   4.720  18.695  0.00  0.00    +0.000 N 
ATOM      5  H   UNL     1       1.798   5.951  19.258  0.00  0.00    +0.000 HD
ENDROOT
BRANCH   3   6
ATOM      6  C   UNL     1       2.038   7.901  18.816  0.00  0.00    +0.000 A 
ATOM      7  C   UNL     1       2.082   8.725  17.746  0.00  0.00    +0.000 A 
ATOM      8  C   UNL     1       1.652  10.118  17.810  0.00  0.00    +0.000 A 
ATOM      9  C   UNL     1       1.188  10.600  18.972  0.00  0.00    +0.000 A 
ATOM     10  N   UNL     1       1.116   9.750  20.067  0.00  0.00    +0.000 N 
ATOM     11  C   UNL     1       0.681   9.968  21.341  0.00  0.00    +0.000 A 
ATOM     12  N   UNL     1       0.782   8.865  22.049  0.00  0.00    +0.000 NA
ATOM     13  N   UNL     1       1.306   7.884  21.230  0.00  0.00    +0.000 NA
ATOM     14  C   UNL     1       1.510   8.420  20.042  0.00  0.00    +0.000 A 
ENDBRANCH   3   6
BRANCH   4  15
ATOM     15  C   UNL     1       2.786   3.735  18.694  0.00  0.00    +0.000 C 
ATOM     16  C   UNL     1       3.231   2.355  19.217  0.00  0.00    +0.000 C 
ATOM     17  C   UNL     1       3.410   2.346  20.730  0.00  0.00    +0.000 C 
ATOM     18  C   UNL     1       2.128   2.746  21.455  0.00  0.00    +0.000 C 
ATOM     19  C   UNL     1       1.488   4.024  20.924  0.00  0.00    +0.000 C 
ATOM     20  C   UNL     1       1.468   4.120  19.398  0.00  0.00    +0.000 C 
ENDBRANCH   4  15
BRANCH   4  21
ATOM     21  C   UNL     1       5.304   4.275  18.488  0.00  0.00    +0.000 C 
BRANCH  21  22
ATOM     22  C   UNL     1       5.731   4.349  17.046  0.00  0.00    +0.000 A 
ATOM     23  C   UNL     1       7.042   4.763  16.621  0.00  0.00    +0.000 A 
ATOM     24  C   UNL     1       7.180   4.786  15.251  0.00  0.00    +0.000 A 
ATOM     25  S   UNL     1       5.765   4.247  14.462  0.00  0.00    +0.000 S 
ATOM     26  C   UNL     1       4.961   3.994  15.952  0.00  0.00    +0.000 A 
ENDBRANCH  21  22
ENDBRANCH   4  21
TORSDOF 4
ENDMDL
MODEL 3
REMARK VINA RESULT:      -7.5      1.201      1.545
REMARK  Name = 
REMARK  4 active torsions:
REMARK  status: ('A' for Active; 'I' for Inactive)
REMARK    1  A    between atoms: N_3  and  C_4
REMARK    2  A    between atoms: N_13  and  C_14
REMARK    3  A    between atoms: N_13  and  C_20
REMARK    4  A    between atoms: C_14  and  C_15
REMARK                            x       y       z     vdW  Elec       q    Type
REMARK                         _______ _______ _______ _____ _____    ______ ____
ROOT
ATOM      1  O   UNL     1       1.938   7.394  17.447  0.00  0.00    +0.000 OA
ATOM      2  C   UNL     1       2.255   7.029  18.578  0.00  0.00    +0.000 C 
ATOM      3  N   UNL     1       2.009   7.791  19.698  0.00  0.00    +0.000 N 
ATOM      4  N   UNL     1       2.907   5.801  18.791  0.00  0.00    +0.000 N 
ATOM      5  H   UNL     1       2.425   7.506  20.571  0.00  0.00    +0.000 HD
ENDROOT
BRANCH   3   6
ATOM      6  C   UNL     1       1.387   9.027  19.756  0.00  0.00    +0.000 A 
ATOM      7  C   UNL     1       1.334   9.944  18.765  0.00  0.00    +0.000 A 
ATOM      8  C   UNL     1       0.701  11.248  18.935  0.00  0.00    +0.000 A 
ATOM      9  C   UNL     1       0.141  11.548  20.116  0.00  0.00    +0.000 A 
ATOM     10  N   UNL     1       0.170  10.599  21.128  0.00  0.00    +0.000 N 
ATOM     11  C   UNL     1      -0.324  10.633  22.399  0.00  0.00    +0.000 A 
ATOM     12  N   UNL     1      -0.077   9.496  23.012  0.00  0.00    +0.000 NA
ATOM     13  N   UNL     1       0.606   8.682  22.130  0.00  0.00    +0.000 NA
ATOM     14  C   UNL     1       0.757   9.349  21.002  0.00  0.00    +0.000 A 
ENDBRANCH   3   6
BRANCH   4  15
ATOM     15  C   UNL     1       2.972   5.118  20.122  0.00  0.00    +0.000 C 
ATOM     16  C   UNL     1       1.571   4.923  20.735  0.00  0.00    +0.000 C 
ATOM     17  C   UNL     1       0.799   3.800  20.051  0.00  0.00    +0.000 C 
ATOM     18  C   UNL     1       1.547   2.472  20.124  0.00  0.00    +0.000 C 
ATOM     19  C   UNL     1       3.007   2.558  19.694  0.00  0.00    +0.000 C 
ATOM     20  C   UNL     1       3.742   3.786  20.233  0.00  0.00    +0.000 C 
ENDBRANCH   4  15
BRANCH   4  21
ATOM     21  C   UNL     1       3.239   5.073  17.553  0.00  0.00    +0.000 C 
BRANCH  21  22
ATOM     22  C   UNL     1       4.693   5.198  17.177  0.00  0.00    +0.000 A 
ATOM     23  C   UNL     1       5.382   4.260  16.330  0.00  0.00    +0.000 A 
ATOM     24  C   UNL     1       6.714   4.566  16.163  0.00  0.00    +0.000 A 
ATOM     25  S   UNL     1       7.137   6.015  16.962  0.00  0.00    +0.000 S 
ATOM     26  C   UNL     1       5.541   6.228  17.542  0.00  0.00    +0.000 A 
ENDBRANCH  21  22
ENDBRANCH   4  21
TORSDOF 4
ENDMDL
MODEL 4
REMARK VINA RESULT:      -7.3      0.763      1.279
REMARK  Name = 
REMARK  4 active torsions:
REMARK  status: ('A' for Active; 'I' for Inactive)
REMARK    1  A    between atoms: N_3  and  C_4
REMARK    2  A    between atoms: N_13  and  C_14
REMARK    3  A    between atoms: N_13  and  C_20
REMARK    4  A    between atoms: C_14  and  C_15
REMARK                            x       y       z     vdW  Elec       q    Type
REMARK                         _______ _______ _______ _____ _____    ______ ____
ROOT
ATOM      1  O   UNL     1       3.299   7.741  17.494  0.00  0.00    +0.000 OA
ATOM      2  C   UNL     1       2.609   7.063  18.255  0.00  0.00    +0.000 C 
ATOM      3  N   UNL     1       1.702   7.622  19.127  0.00  0.00    +0.000 N 
ATOM      4  N   UNL     1       2.720   5.661  18.283  0.00  0.00    +0.000 N 
ATOM      5  H   UNL     1       1.280   7.028  19.823  0.00  0.00    +0.000 HD
ENDROOT
BRANCH   3   6
ATOM      6  C   UNL     1       1.409   8.966  19.291  0.00  0.00    +0.000 A 
ATOM      7  C   UNL     1       1.677   9.957  18.413  0.00  0.00    +0.000 A 
ATOM      8  C   UNL     1       1.380  11.357  18.695  0.00  0.00    +0.000 A 
ATOM      9  C   UNL     1       0.811  11.675  19.867  0.00  0.00    +0.000 A 
ATOM     10  N   UNL     1       0.509  10.658  20.761  0.00  0.00    +0.000 N 
ATOM     11  C   UNL     1      -0.072  10.695  21.994  0.00  0.00    +0.000 A 
ATOM     12  N   UNL     1      -0.176   9.479  22.483  0.00  0.00    +0.000 NA
ATOM     13  N   UNL     1       0.357   8.605  21.555  0.00  0.00    +0.000 NA
ATOM     14  C   UNL     1       0.771   9.317  20.525  0.00  0.00    +0.000 A 
ENDBRANCH   3   6
BRANCH   4  15
ATOM     15  C   UNL     1       1.676   4.761  18.870  0.00  0.00    +0.000 C 
ATOM     16  C   UNL     1       1.897   3.289  18.468  0.00  0.00    +0.000 C 
ATOM     17  C   UNL     1       3.057   2.656  19.228  0.00  0.00    +0.000 C 
ATOM     18  C   UNL     1       2.846   2.716  20.737  0.00  0.00    +0.000 C 
ATOM     19  C   UNL     1       2.460   4.097  21.255  0.00  0.00    +0.000 C 
ATOM     20  C   UNL     1       1.423   4.816  20.391  0.00  0.00    +0.000 C 
ENDBRANCH   4  15
BRANCH   4  21
ATOM     21  C   UNL     1       3.775   5.122  17.408  0.00  0.00    +0.000 C 
BRANCH  21  22
ATOM     22  C   UNL     1       5.161   5.438  17.904  0.00  0.00    +0.000 A 
ATOM     23  C   UNL     1       5.627   5.124  19.228  0.00  0.00    +0.000 A 
ATOM     24  C   UNL     1       6.917   5.548  19.458  0.00  0.00    +0.000 A 
ATOM     25  S   UNL     1       7.607   6.263  18.069  0.00  0.00    +0.000 S 
ATOM     26  C   UNL     1       6.176   6.019  17.163  0.00  0.00    +0.000 A 
ENDBRANCH  21  22
ENDBRANCH   4  21
TORSDOF 4
ENDMDL
MODEL 5
REMARK VINA RESULT:      -7.1      1.555      2.001
REMARK  Name = 
REMARK  4 active torsions:
REMARK  status: ('A' for Active; 'I' for Inactive)
REMARK    1  A    between atoms: N_3  and  C_4
REMARK    2  A    between atoms: N_13  and  C_14
REMARK    3  A    between atoms: N_13  and  C_20
REMARK    4  A    between atoms: C_14  and  C_15
REMARK                            x       y       z     vdW  Elec       q    Type
REMARK                         _______ _______ _______ _____ _____    ______ ____
ROOT
ATOM      1  O   UNL     1       4.678   6.798  18.222  0.00  0.00    +0.000 OA
ATOM      2  C   UNL     1       3.928   6.129  18.932  0.00  0.00    +0.000 C 
ATOM      3  N   UNL     1       2.712   6.600  19.372  0.00  0.00    +0.000 N 
ATOM      4  N   UNL     1       4.283   4.833  19.347  0.00  0.00    +0.000 N 
ATOM      5  H   UNL     1       2.216   6.066  20.069  0.00  0.00    +0.000 HD
ENDROOT
BRANCH   3   6
ATOM      6  C   UNL     1       2.139   7.833  19.106  0.00  0.00    +0.000 A 
ATOM      7  C   UNL     1       2.129   8.470  17.915  0.00  0.00    +0.000 A 
ATOM      8  C   UNL     1       1.546   9.797  17.739  0.00  0.00    +0.000 A 
ATOM      9  C   UNL     1       0.991  10.406  18.797  0.00  0.00    +0.000 A 
ATOM     10  N   UNL     1       0.976   9.744  20.017  0.00  0.00    +0.000 N 
ATOM     11  C   UNL     1       0.475  10.116  21.229  0.00  0.00    +0.000 A 
ATOM     12  N   UNL     1       0.672   9.164  22.113  0.00  0.00    +0.000 NA
ATOM     13  N   UNL     1       1.329   8.128  21.477  0.00  0.00    +0.000 NA
ATOM     14  C   UNL     1       1.514   8.482  20.220  0.00  0.00    +0.000 A 
ENDBRANCH   3   6
BRANCH   4  15
ATOM     15  C   UNL     1       3.297   3.831  19.863  0.00  0.00    +0.000 C 
ATOM     16  C   UNL     1       1.923   3.974  19.177  0.00  0.00    +0.000 C 
ATOM     17  C   UNL     1       1.934   3.424  17.755  0.00  0.00    +0.000 C 
ATOM     18  C   UNL     1       2.341   1.955  17.718  0.00  0.00    +0.000 C 
ATOM     19  C   UNL     1       3.611   1.643  18.502  0.00  0.00    +0.000 C 
ATOM     20  C   UNL     1       3.688   2.339  19.861  0.00  0.00    +0.000 C 
ENDBRANCH   4  15
BRANCH   4  21
ATOM     21  C   UNL     1       5.635   4.417  18.935  0.00  0.00    +0.000 C 
BRANCH  21  22
ATOM     22  C   UNL     1       5.838   4.489  17.444  0.00  0.00    +0.000 A 
ATOM     23  C   UNL     1       4.808   4.195  16.483  0.00  0.00    +0.000 A 
ATOM     24  C   UNL     1       5.247   4.292  15.181  0.00  0.00    +0.000 A 
ATOM     25  S   UNL     1       6.873   4.805  15.096  0.00  0.00    +0.000 S 
ATOM     26  C   UNL     1       6.998   4.883  16.801  0.00  0.00    +0.000 A 
ENDBRANCH  21  22
ENDBRANCH   4  21
TORSDOF 4
ENDMDL
MODEL 6
REMARK VINA RESULT:      -7.0      1.020      1.850
REMARK  Name = 
REMARK  4 active torsions:
REMARK  status: ('A' for Active; 'I' for Inactive)
REMARK    1  A    between atoms: N_3  and  C_4
REMARK    2  A    between atoms: N_13  and  C_14
REMARK    3  A    between atoms: N_13  and  C_20
REMARK    4  A    between atoms: C_14  and  C_15
REMARK                            x       y       z     vdW  Elec       q    Type
REMARK                         _______ _______ _______ _____ _____    ______ ____
ROOT
ATOM      1  O   UNL     1       3.018   8.074  18.321  0.00  0.00    +0.000 OA
ATOM      2  C   UNL     1       2.563   7.118  18.948  0.00  0.00    +0.000 C 
ATOM      3  N   UNL     1       1.739   7.274  20.039  0.00  0.00    +0.000 N 
ATOM      4  N   UNL     1       2.875   5.795  18.586  0.00  0.00    +0.000 N 
ATOM      5  H   UNL     1       1.523   6.462  20.596  0.00  0.00    +0.000 HD
ENDROOT
BRANCH   3   6
ATOM      6  C   UNL     1       1.288   8.462  20.592  0.00  0.00    +0.000 A 
ATOM      7  C   UNL     1       1.429   8.850  21.879  0.00  0.00    +0.000 A 
ATOM      8  C   UNL     1       0.872  10.099  22.387  0.00  0.00    +0.000 A 
ATOM      9  C   UNL     1       0.201  10.899  21.546  0.00  0.00    +0.000 A 
ATOM     10  N   UNL     1       0.076  10.517  20.218  0.00  0.00    +0.000 N 
ATOM     11  C   UNL     1      -0.531  11.134  19.164  0.00  0.00    +0.000 A 
ATOM     12  N   UNL     1      -0.392  10.411  18.074  0.00  0.00    +0.000 NA
ATOM     13  N   UNL     1       0.321   9.277  18.409  0.00  0.00    +0.000 NA
ATOM     14  C   UNL     1       0.596   9.341  19.697  0.00  0.00    +0.000 A 
ENDBRANCH   3   6
BRANCH   4  15
ATOM     15  C   UNL     1       2.078   4.607  19.029  0.00  0.00    +0.000 C 
ATOM     16  C   UNL     1       1.599   3.760  17.833  0.00  0.00    +0.000 C 
ATOM     17  C   UNL     1       2.729   2.938  17.225  0.00  0.00    +0.000 C 
ATOM     18  C   UNL     1       3.369   2.007  18.250  0.00  0.00    +0.000 C 
ATOM     19  C   UNL     1       3.749   2.691  19.558  0.00  0.00    +0.000 C 
ATOM     20  C   UNL     1       2.688   3.659  20.083  0.00  0.00    +0.000 C 
ENDBRANCH   4  15
BRANCH   4  21
ATOM     21  C   UNL     1       3.841   5.685  17.479  0.00  0.00    +0.000 C 
BRANCH  21  22
ATOM     22  C   UNL     1       5.264   5.894  17.925  0.00  0.00    +0.000 A 
ATOM     23  C   UNL     1       6.179   6.798  17.280  0.00  0.00    +0.000 A 
ATOM     24  C   UNL     1       7.434   6.785  17.846  0.00  0.00    +0.000 A 
ATOM     25  S   UNL     1       7.511   5.743  19.196  0.00  0.00    +0.000 S 
ATOM     26  C   UNL     1       5.869   5.297  19.017  0.00  0.00    +0.000 A 
ENDBRANCH  21  22
ENDBRANCH   4  21
TORSDOF 4
ENDMDL
MODEL 7
REMARK VINA RESULT:      -6.9      2.064      2.977
REMARK  Name = 
REMARK  4 active torsions:
REMARK  status: ('A' for Active; 'I' for Inactive)
REMARK    1  A    between atoms: N_3  and  C_4
REMARK    2  A    between atoms: N_13  and  C_14
REMARK    3  A    between atoms: N_13  and  C_20
REMARK    4  A    between atoms: C_14  and  C_15
REMARK                            x       y       z     vdW  Elec       q    Type
REMARK                         _______ _______ _______ _____ _____    ______ ____
ROOT
ATOM      1  O   UNL     1       4.528   6.648  19.081  0.00  0.00    +0.000 OA
ATOM      2  C   UNL     1       3.576   5.898  18.872  0.00  0.00    +0.000 C 
ATOM      3  N   UNL     1       2.288   6.217  19.239  0.00  0.00    +0.000 N 
ATOM      4  N   UNL     1       3.756   4.651  18.247  0.00  0.00    +0.000 N 
ATOM      5  H   UNL     1       1.581   5.501  19.175  0.00  0.00    +0.000 HD
ENDROOT
BRANCH   3   6
ATOM      6  C   UNL     1       1.851   7.374  19.863  0.00  0.00    +0.000 A 
ATOM      7  C   UNL     1       1.472   7.492  21.155  0.00  0.00    +0.000 A 
ATOM      8  C   UNL     1       0.972   8.743  21.714  0.00  0.00    +0.000 A 
ATOM      9  C   UNL     1       0.893   9.822  20.922  0.00  0.00    +0.000 A 
ATOM     10  N   UNL     1       1.306   9.713  19.602  0.00  0.00    +0.000 N 
ATOM     11  C   UNL     1       1.345  10.635  18.598  0.00  0.00    +0.000 A 
ATOM     12  N   UNL     1       1.826  10.092  17.501  0.00  0.00    +0.000 NA
ATOM     13  N   UNL     1       2.109   8.768  17.776  0.00  0.00    +0.000 NA
ATOM     14  C   UNL     1       1.791   8.543  19.036  0.00  0.00    +0.000 A 
ENDBRANCH   3   6
BRANCH   4  15
ATOM     15  C   UNL     1       2.642   3.874  17.616  0.00  0.00    +0.000 C 
ATOM     16  C   UNL     1       2.984   2.375  17.499  0.00  0.00    +0.000 C 
ATOM     17  C   UNL     1       2.894   1.662  18.843  0.00  0.00    +0.000 C 
ATOM     18  C   UNL     1       1.506   1.793  19.463  0.00  0.00    +0.000 C 
ATOM     19  C   UNL     1       0.973   3.222  19.495  0.00  0.00    +0.000 C 
ATOM     20  C   UNL     1       1.222   4.005  18.205  0.00  0.00    +0.000 C 
ENDBRANCH   4  15
BRANCH   4  21
ATOM     21  C   UNL     1       5.163   4.314  17.968  0.00  0.00    +0.000 C 
BRANCH  21  22
ATOM     22  C   UNL     1       5.526   4.484  16.517  0.00  0.00    +0.000 A 
ATOM     23  C   UNL     1       5.390   5.723  15.798  0.00  0.00    +0.000 A 
ATOM     24  C   UNL     1       5.750   5.618  14.473  0.00  0.00    +0.000 A 
ATOM     25  S   UNL     1       6.320   4.055  14.093  0.00  0.00    +0.000 S 
ATOM     26  C   UNL     1       6.073   3.512  15.697  0.00  0.00    +0.000 A 
ENDBRANCH  21  22
ENDBRANCH   4  21
TORSDOF 4
ENDMDL
MODEL 8
REMARK VINA RESULT:      -6.8      3.224      7.663
REMARK  Name = 
REMARK  4 active torsions:
REMARK  status: ('A' for Active; 'I' for Inactive)
REMARK    1  A    between atoms: N_3  and  C_4
REMARK    2  A    between atoms: N_13  and  C_14
REMARK    3  A    between atoms: N_13  and  C_20
REMARK    4  A    between atoms: C_14  and  C_15
REMARK                            x       y       z     vdW  Elec       q    Type
REMARK                         _______ _______ _______ _____ _____    ______ ____
ROOT
ATOM      1  O   UNL     1       1.448   9.351  17.372  0.00  0.00    +0.000 OA
ATOM      2  C   UNL     1       1.391   9.341  18.600  0.00  0.00    +0.000 C 
ATOM      3  N   UNL     1       1.934   8.328  19.358  0.00  0.00    +0.000 N 
ATOM      4  N   UNL     1       0.749  10.373  19.308  0.00  0.00    +0.000 N 
ATOM      5  H   UNL     1       1.725   8.302  20.344  0.00  0.00    +0.000 HD
ENDROOT
BRANCH   3   6
ATOM      6  C   UNL     1       2.613   7.208  18.905  0.00  0.00    +0.000 A 
ATOM      7  C   UNL     1       3.437   7.150  17.837  0.00  0.00    +0.000 A 
ATOM      8  C   UNL     1       4.068   5.908  17.400  0.00  0.00    +0.000 A 
ATOM      9  C   UNL     1       3.830   4.783  18.088  0.00  0.00    +0.000 A 
ATOM     10  N   UNL     1       3.004   4.843  19.202  0.00  0.00    +0.000 N 
ATOM     11  C   UNL     1       2.609   3.873  20.076  0.00  0.00    +0.000 A 
ATOM     12  N   UNL     1       1.826   4.386  20.999  0.00  0.00    +0.000 NA
ATOM     13  N   UNL     1       1.688   5.734  20.732  0.00  0.00    +0.000 NA
ATOM     14  C   UNL     1       2.392   6.004  19.650  0.00  0.00    +0.000 A 
ENDBRANCH   3   6
BRANCH   4  15
ATOM     15  C   UNL     1       0.969  10.638  20.765  0.00  0.00    +0.000 C 
ATOM     16  C   UNL     1       1.406  12.094  21.024  0.00  0.00    +0.000 C 
ATOM     17  C   UNL     1       0.246  13.072  20.888  0.00  0.00    +0.000 C 
ATOM     18  C   UNL     1      -0.895  12.735  21.843  0.00  0.00    +0.000 C 
ATOM     19  C   UNL     1      -1.324  11.273  21.806  0.00  0.00    +0.000 C 
ATOM     20  C   UNL     1      -0.157  10.285  21.759  0.00  0.00    +0.000 C 
ENDBRANCH   4  15
BRANCH   4  21
ATOM     21  C   UNL     1       0.096  11.377  18.449  0.00  0.00    +0.000 C 
BRANCH  21  22
ATOM     22  C   UNL     1      -1.361  11.081  18.211  0.00  0.00    +0.000 A 
ATOM     23  C   UNL     1      -1.847   9.839  17.671  0.00  0.00    +0.000 A 
ATOM     24  C   UNL     1      -3.214   9.822  17.510  0.00  0.00    +0.000 A 
ATOM     25  S   UNL     1      -3.937  11.265  18.068  0.00  0.00    +0.000 S 
ATOM     26  C   UNL     1      -2.420  11.920  18.513  0.00  0.00    +0.000 A 
ENDBRANCH  21  22
ENDBRANCH   4  21
TORSDOF 4
ENDMDL
MODEL 9
REMARK VINA RESULT:      -6.7      2.471      4.037
REMARK  Name = 
REMARK  4 active torsions:
REMARK  status: ('A' for Active; 'I' for Inactive)
REMARK    1  A    between atoms: N_3  and  C_4
REMARK    2  A    between atoms: N_13  and  C_14
REMARK    3  A    between atoms: N_13  and  C_20
REMARK    4  A    between atoms: C_14  and  C_15
REMARK                            x       y       z     vdW  Elec       q    Type
REMARK                         _______ _______ _______ _____ _____    ______ ____
ROOT
ATOM      1  O   UNL     1       2.308   7.379  19.678  0.00  0.00    +0.000 OA
ATOM      2  C   UNL     1       2.820   7.612  18.584  0.00  0.00    +0.000 C 
ATOM      3  N   UNL     1       2.362   8.606  17.750  0.00  0.00    +0.000 N 
ATOM      4  N   UNL     1       3.911   6.857  18.116  0.00  0.00    +0.000 N 
ATOM      5  H   UNL     1       2.727   8.647  16.810  0.00  0.00    +0.000 HD
ENDROOT
BRANCH   3   6
ATOM      6  C   UNL     1       1.312   9.480  17.977  0.00  0.00    +0.000 A 
ATOM      7  C   UNL     1       0.000   9.160  18.025  0.00  0.00    +0.000 A 
ATOM      8  C   UNL     1      -1.045  10.160  18.216  0.00  0.00    +0.000 A 
ATOM      9  C   UNL     1      -0.693  11.446  18.357  0.00  0.00    +0.000 A 
ATOM     10  N   UNL     1       0.655  11.777  18.335  0.00  0.00    +0.000 N 
ATOM     11  C   UNL     1       1.282  12.980  18.466  0.00  0.00    +0.000 A 
ATOM     12  N   UNL     1       2.585  12.823  18.393  0.00  0.00    +0.000 NA
ATOM     13  N   UNL     1       2.837  11.478  18.200  0.00  0.00    +0.000 NA
ATOM     14  C   UNL     1       1.675  10.854  18.161  0.00  0.00    +0.000 A 
ENDBRANCH   3   6
BRANCH   4  15
ATOM     15  C   UNL     1       4.818   7.310  17.015  0.00  0.00    +0.000 C 
ATOM     16  C   UNL     1       6.287   7.387  17.478  0.00  0.00    +0.000 C 
ATOM     17  C   UNL     1       6.920   6.007  17.607  0.00  0.00    +0.000 C 
ATOM     18  C   UNL     1       6.869   5.235  16.292  0.00  0.00    +0.000 C 
ATOM     19  C   UNL     1       5.492   5.215  15.637  0.00  0.00    +0.000 C 
ATOM     20  C   UNL     1       4.773   6.565  15.665  0.00  0.00    +0.000 C 
ENDBRANCH   4  15
BRANCH   4  21
ATOM     21  C   UNL     1       4.295   5.742  18.999  0.00  0.00    +0.000 C 
BRANCH  21  22
ATOM     22  C   UNL     1       3.725   4.421  18.552  0.00  0.00    +0.000 A 
ATOM     23  C   UNL     1       2.548   4.295  17.734  0.00  0.00    +0.000 A 
ATOM     24  C   UNL     1       2.202   2.985  17.491  0.00  0.00    +0.000 A 
ATOM     25  S   UNL     1       3.321   1.894  18.180  0.00  0.00    +0.000 S 
ATOM     26  C   UNL     1       4.262   3.174  18.817  0.00  0.00    +0.000 A 
ENDBRANCH  21  22
ENDBRANCH   4  21
TORSDOF 4
ENDMDL
