MODEL 1
REMARK VINA RESULT:      -7.6      0.000      0.000
REMARK  Name = 
REMARK  8 active torsions:
REMARK  status: ('A' for Active; 'I' for Inactive)
REMARK    1  A    between atoms: C_1  and  C_2
REMARK    2  A    between atoms: C_2  and  C_3
REMARK    3  A    between atoms: C_2  and  C_25
REMARK    4  A    between atoms: C_3  and  N_4
REMARK    5  A    between atoms: N_9  and  C_10
REMARK    6  A    between atoms: C_10  and  C_11
REMARK    7  A    between atoms: N_14  and  C_15
REMARK    8  A    between atoms: C_16  and  C_17
REMARK                            x       y       z     vdW  Elec       q    Type
REMARK                         _______ _______ _______ _____ _____    ______ ____
ROOT
ATOM      1  N   UNL     1       5.525   4.189  17.319  0.00  0.00    +0.000 N 
ATOM      2  C   UNL     1       4.161   4.445  17.680  0.00  0.00    +0.000 C 
ATOM      3  C   UNL     1       4.308   5.554  18.723  0.00  0.00    +0.000 C 
ATOM      4  C   UNL     1       3.472   5.326  19.976  0.00  0.00    +0.000 C 
ATOM      5  C   UNL     1       1.997   5.574  19.705  0.00  0.00    +0.000 C 
ATOM      6  N   UNL     1       1.721   6.932  19.212  0.00  0.00    +0.000 NA
ATOM      7  C   UNL     1       2.499   7.202  17.991  0.00  0.00    +0.000 C 
ATOM      8  C   UNL     1       4.007   6.947  18.130  0.00  0.00    +0.000 C 
ATOM      9  O   UNL     1       5.695   5.490  19.123  0.00  0.00    +0.000 OA
ATOM     10  C   UNL     1       6.393   4.735  18.228  0.00  0.00    +0.000 C 
ATOM     11  O   UNL     1       7.604   4.608  18.247  0.00  0.00    +0.000 OA
ENDROOT
BRANCH   1  12
ATOM     12  C   UNL     1       5.942   3.614  16.055  0.00  0.00    +0.000 C 
BRANCH  12  14
ATOM     13  C   UNL     1       5.488   5.909  15.028  0.00  0.00    +0.000 C 
ATOM     14  C   UNL     1       6.291   4.608  14.928  0.00  0.00    +0.000 C 
BRANCH  14  15
ATOM     15  C   UNL     1       6.060   4.005  13.543  0.00  0.00    +0.000 A 
ATOM     16  C   UNL     1       4.750   3.781  13.092  0.00  0.00    +0.000 A 
ATOM     17  C   UNL     1       4.514   3.149  11.868  0.00  0.00    +0.000 A 
ATOM     18  C   UNL     1       5.585   2.737  11.074  0.00  0.00    +0.000 A 
ATOM     19  C   UNL     1       6.887   2.961  11.500  0.00  0.00    +0.000 A 
ATOM     20  C   UNL     1       7.125   3.582  12.727  0.00  0.00    +0.000 A 
ENDBRANCH  14  15
ENDBRANCH  12  14
ENDBRANCH   1  12
BRANCH   6  21
ATOM     21  C   UNL     1       1.911   7.999  20.217  0.00  0.00    +0.000 C 
BRANCH  21  22
ATOM     22  C   UNL     1       1.078   9.206  19.901  0.00  0.00    +0.000 A 
ATOM     23  C   UNL     1       1.158   9.979  18.722  0.00  0.00    +0.000 A 
ATOM     24  N   UNL     1       0.237  10.939  18.672  0.00  0.00    +0.000 NA
ATOM     25  N   UNL     1      -0.460  10.781  19.815  0.00  0.00    +0.000 N 
ATOM     26  C   UNL     1      -1.590  11.651  20.027  0.00  0.00    +0.000 C 
ATOM     27  C   UNL     1       0.034   9.780  20.617  0.00  0.00    +0.000 A 
BRANCH  27  28
ATOM     28  C   UNL     1      -0.436   9.259  21.973  0.00  0.00    +0.000 C 
ATOM     29  C   UNL     1       0.340   9.320  23.261  0.00  0.00    +0.000 C 
ATOM     30  C   UNL     1      -0.755  10.304  23.018  0.00  0.00    +0.000 C 
ENDBRANCH  27  28
ENDBRANCH  21  22
ENDBRANCH   6  21
TORSDOF 6
ENDMDL
MODEL 2
REMARK VINA RESULT:      -7.6      4.517      9.686
REMARK  Name = 
REMARK  8 active torsions:
REMARK  status: ('A' for Active; 'I' for Inactive)
REMARK    1  A    between atoms: C_1  and  C_2
REMARK    2  A    between atoms: C_2  and  C_3
REMARK    3  A    between atoms: C_2  and  C_25
REMARK    4  A    between atoms: C_3  and  N_4
REMARK    5  A    between atoms: N_9  and  C_10
REMARK    6  A    between atoms: C_10  and  C_11
REMARK    7  A    between atoms: N_14  and  C_15
REMARK    8  A    between atoms: C_16  and  C_17
REMARK                            x       y       z     vdW  Elec       q    Type
REMARK                         _______ _______ _______ _____ _____    ______ ____
ROOT
ATOM      1  N   UNL     1      -0.404  12.161  19.346  0.00  0.00    +0.000 N 
ATOM      2  C   UNL     1       0.696  11.310  19.694  0.00  0.00    +0.000 C 
ATOM      3  C   UNL     1       0.210   9.944  19.210  0.00  0.00    +0.000 C 
ATOM      4  C   UNL     1       0.421   8.828  20.226  0.00  0.00    +0.000 C 
ATOM      5  C   UNL     1       1.887   8.438  20.318  0.00  0.00    +0.000 C 
ATOM      6  N   UNL     1       2.449   7.998  19.032  0.00  0.00    +0.000 NA
ATOM      7  C   UNL     1       2.281   9.048  18.012  0.00  0.00    +0.000 C 
ATOM      8  C   UNL     1       0.839   9.554  17.856  0.00  0.00    +0.000 C 
ATOM      9  O   UNL     1      -1.217  10.105  19.049  0.00  0.00    +0.000 OA
ATOM     10  C   UNL     1      -1.529  11.432  19.062  0.00  0.00    +0.000 C 
ATOM     11  O   UNL     1      -2.642  11.869  18.828  0.00  0.00    +0.000 OA
ENDROOT
BRANCH   1  12
ATOM     12  C   UNL     1      -0.294  13.589  19.118  0.00  0.00    +0.000 C 
BRANCH  12  14
ATOM     13  C   UNL     1       0.293  15.162  21.043  0.00  0.00    +0.000 C 
ATOM     14  C   UNL     1       0.829  14.324  19.878  0.00  0.00    +0.000 C 
BRANCH  14  15
ATOM     15  C   UNL     1       1.637  15.239  18.959  0.00  0.00    +0.000 A 
ATOM     16  C   UNL     1       1.179  16.538  18.692  0.00  0.00    +0.000 A 
ATOM     17  C   UNL     1       1.852  17.360  17.786  0.00  0.00    +0.000 A 
ATOM     18  C   UNL     1       2.998  16.899  17.137  0.00  0.00    +0.000 A 
ATOM     19  C   UNL     1       3.471  15.620  17.398  0.00  0.00    +0.000 A 
ATOM     20  C   UNL     1       2.795  14.793  18.295  0.00  0.00    +0.000 A 
ENDBRANCH  14  15
ENDBRANCH  12  14
ENDBRANCH   1  12
BRANCH   6  21
ATOM     21  C   UNL     1       1.937   6.696  18.552  0.00  0.00    +0.000 C 
BRANCH  21  22
ATOM     22  C   UNL     1       2.930   5.597  18.784  0.00  0.00    +0.000 A 
ATOM     23  C   UNL     1       4.309   5.767  19.038  0.00  0.00    +0.000 A 
ATOM     24  N   UNL     1       4.932   4.620  19.293  0.00  0.00    +0.000 NA
ATOM     25  N   UNL     1       3.953   3.695  19.226  0.00  0.00    +0.000 N 
ATOM     26  C   UNL     1       4.309   2.331  19.525  0.00  0.00    +0.000 C 
ATOM     27  C   UNL     1       2.733   4.223  18.875  0.00  0.00    +0.000 A 
BRANCH  27  28
ATOM     28  C   UNL     1       1.371   3.560  18.689  0.00  0.00    +0.000 C 
ATOM     29  C   UNL     1       1.061   2.102  18.893  0.00  0.00    +0.000 C 
ATOM     30  C   UNL     1       0.679   3.086  19.947  0.00  0.00    +0.000 C 
ENDBRANCH  27  28
ENDBRANCH  21  22
ENDBRANCH   6  21
TORSDOF 6
ENDMDL
MODEL 3
REMARK VINA RESULT:      -7.4      3.921      9.821
REMARK  Name = 
REMARK  8 active torsions:
REMARK  status: ('A' for Active; 'I' for Inactive)
REMARK    1  A    between atoms: C_1  and  C_2
REMARK    2  A    between atoms: C_2  and  C_3
REMARK    3  A    between atoms: C_2  and  C_25
REMARK    4  A    between atoms: C_3  and  N_4
REMARK    5  A    between atoms: N_9  and  C_10
REMARK    6  A    between atoms: C_10  and  C_11
REMARK    7  A    between atoms: N_14  and  C_15
REMARK    8  A    between atoms: C_16  and  C_17
REMARK                            x       y       z     vdW  Elec       q    Type
REMARK                         _______ _______ _______ _____ _____    ______ ____
ROOT
ATOM      1  N   UNL     1       0.513  11.849  20.033  0.00  0.00    +0.000 N 
ATOM      2  C   UNL     1       1.431  10.758  20.180  0.00  0.00    +0.000 C 
ATOM      3  C   UNL     1       0.723   9.638  19.416  0.00  0.00    +0.000 C 
ATOM      4  C   UNL     1       0.699   8.312  20.165  0.00  0.00    +0.000 C 
ATOM      5  C   UNL     1       2.068   7.651  20.158  0.00  0.00    +0.000 C 
ATOM      6  N   UNL     1       2.582   7.401  18.803  0.00  0.00    +0.000 NA
ATOM      7  C   UNL     1       2.636   8.657  18.035  0.00  0.00    +0.000 C 
ATOM      8  C   UNL     1       1.314   9.439  18.004  0.00  0.00    +0.000 C 
ATOM      9  O   UNL     1      -0.646  10.086  19.306  0.00  0.00    +0.000 OA
ATOM     10  C   UNL     1      -0.715  11.414  19.608  0.00  0.00    +0.000 C 
ATOM     11  O   UNL     1      -1.724  12.086  19.483  0.00  0.00    +0.000 OA
ENDROOT
BRANCH   1  12
ATOM     12  C   UNL     1       0.885  13.248  20.117  0.00  0.00    +0.000 C 
BRANCH  12  14
ATOM     13  C   UNL     1       2.929  13.903  18.733  0.00  0.00    +0.000 C 
ATOM     14  C   UNL     1       1.400  13.904  18.819  0.00  0.00    +0.000 C 
BRANCH  14  15
ATOM     15  C   UNL     1       0.910  15.344  18.674  0.00  0.00    +0.000 A 
ATOM     16  C   UNL     1       1.829  16.366  18.393  0.00  0.00    +0.000 A 
ATOM     17  C   UNL     1       1.419  17.701  18.344  0.00  0.00    +0.000 A 
ATOM     18  C   UNL     1       0.083  18.033  18.570  0.00  0.00    +0.000 A 
ATOM     19  C   UNL     1      -0.841  17.033  18.840  0.00  0.00    +0.000 A 
ATOM     20  C   UNL     1      -0.432  15.700  18.899  0.00  0.00    +0.000 A 
ENDBRANCH  14  15
ENDBRANCH  12  14
ENDBRANCH   1  12
BRANCH   6  21
ATOM     21  C   UNL     1       1.859   6.348  18.058  0.00  0.00    +0.000 C 
BRANCH  21  22
ATOM     22  C   UNL     1       2.617   5.054  18.064  0.00  0.00    +0.000 A 
ATOM     23  C   UNL     1       3.692   4.721  17.211  0.00  0.00    +0.000 A 
ATOM     24  N   UNL     1       4.233   3.539  17.499  0.00  0.00    +0.000 NA
ATOM     25  N   UNL     1       3.520   3.105  18.557  0.00  0.00    +0.000 N 
ATOM     26  C   UNL     1       3.915   1.852  19.153  0.00  0.00    +0.000 C 
ATOM     27  C   UNL     1       2.501   3.957  18.911  0.00  0.00    +0.000 A 
BRANCH  27  28
ATOM     28  C   UNL     1       1.466   3.871  20.030  0.00  0.00    +0.000 C 
ATOM     29  C   UNL     1       1.337   2.757  21.034  0.00  0.00    +0.000 C 
ATOM     30  C   UNL     1       1.987   4.038  21.439  0.00  0.00    +0.000 C 
ENDBRANCH  27  28
ENDBRANCH  21  22
ENDBRANCH   6  21
TORSDOF 6
ENDMDL
MODEL 4
REMARK VINA RESULT:      -7.3      2.314      9.001
REMARK  Name = 
REMARK  8 active torsions:
REMARK  status: ('A' for Active; 'I' for Inactive)
REMARK    1  A    between atoms: C_1  and  C_2
REMARK    2  A    between atoms: C_2  and  C_3
REMARK    3  A    between atoms: C_2  and  C_25
REMARK    4  A    between atoms: C_3  and  N_4
REMARK    5  A    between atoms: N_9  and  C_10
REMARK    6  A    between atoms: C_10  and  C_11
REMARK    7  A    between atoms: N_14  and  C_15
REMARK    8  A    between atoms: C_16  and  C_17
REMARK                            x       y       z     vdW  Elec       q    Type
REMARK                         _______ _______ _______ _____ _____    ______ ____
ROOT
ATOM      1  N   UNL     1       1.979   5.523  20.514  0.00  0.00    +0.000 N 
ATOM      2  C   UNL     1       3.317   5.674  20.021  0.00  0.00    +0.000 C 
ATOM      3  C   UNL     1       3.365   4.635  18.901  0.00  0.00    +0.000 C 
ATOM      4  C   UNL     1       4.619   3.770  18.927  0.00  0.00    +0.000 C 
ATOM      5  C   UNL     1       5.835   4.551  18.454  0.00  0.00    +0.000 C 
ATOM      6  N   UNL     1       5.681   5.093  17.096  0.00  0.00    +0.000 NA
ATOM      7  C   UNL     1       4.484   5.948  17.017  0.00  0.00    +0.000 C 
ATOM      8  C   UNL     1       3.192   5.278  17.509  0.00  0.00    +0.000 C 
ATOM      9  O   UNL     1       2.246   3.762  19.171  0.00  0.00    +0.000 OA
ATOM     10  C   UNL     1       1.414   4.355  20.074  0.00  0.00    +0.000 C 
ATOM     11  O   UNL     1       0.330   3.903  20.396  0.00  0.00    +0.000 OA
ENDROOT
BRANCH   1  12
ATOM     12  C   UNL     1       1.243   6.560  21.212  0.00  0.00    +0.000 C 
BRANCH  12  14
ATOM     13  C   UNL     1       1.624   8.805  22.368  0.00  0.00    +0.000 C 
ATOM     14  C   UNL     1       1.781   7.999  21.075  0.00  0.00    +0.000 C 
BRANCH  14  15
ATOM     15  C   UNL     1       1.090   8.761  19.945  0.00  0.00    +0.000 A 
ATOM     16  C   UNL     1       1.635   8.735  18.653  0.00  0.00    +0.000 A 
ATOM     17  C   UNL     1       1.072   9.496  17.625  0.00  0.00    +0.000 A 
ATOM     18  C   UNL     1      -0.049  10.288  17.872  0.00  0.00    +0.000 A 
ATOM     19  C   UNL     1      -0.608  10.317  19.143  0.00  0.00    +0.000 A 
ATOM     20  C   UNL     1      -0.041   9.567  20.174  0.00  0.00    +0.000 A 
ENDBRANCH  14  15
ENDBRANCH  12  14
ENDBRANCH   1  12
BRANCH   6  21
ATOM     21  C   UNL     1       5.683   4.073  16.025  0.00  0.00    +0.000 C 
BRANCH  21  22
ATOM     22  C   UNL     1       6.437   4.545  14.818  0.00  0.00    +0.000 A 
ATOM     23  C   UNL     1       7.566   5.394  14.828  0.00  0.00    +0.000 A 
ATOM     24  N   UNL     1       8.085   5.577  13.617  0.00  0.00    +0.000 NA
ATOM     25  N   UNL     1       7.304   4.830  12.811  0.00  0.00    +0.000 N 
ATOM     26  C   UNL     1       7.657   4.770  11.415  0.00  0.00    +0.000 C 
ATOM     27  C   UNL     1       6.265   4.223  13.477  0.00  0.00    +0.000 A 
BRANCH  27  28
ATOM     28  C   UNL     1       5.157   3.299  12.975  0.00  0.00    +0.000 C 
ATOM     29  C   UNL     1       4.432   3.418  11.662  0.00  0.00    +0.000 C 
ATOM     30  C   UNL     1       5.511   2.399  11.813  0.00  0.00    +0.000 C 
ENDBRANCH  27  28
ENDBRANCH  21  22
ENDBRANCH   6  21
TORSDOF 6
ENDMDL
MODEL 5
REMARK VINA RESULT:      -7.2      2.216      9.578
REMARK  Name = 
REMARK  8 active torsions:
REMARK  status: ('A' for Active; 'I' for Inactive)
REMARK    1  A    between atoms: C_1  and  C_2
REMARK    2  A    between atoms: C_2  and  C_3
REMARK    3  A    between atoms: C_2  and  C_25
REMARK    4  A    between atoms: C_3  and  N_4
REMARK    5  A    between atoms: N_9  and  C_10
REMARK    6  A    between atoms: C_10  and  C_11
REMARK    7  A    between atoms: N_14  and  C_15
REMARK    8  A    between atoms: C_16  and  C_17
REMARK                            x       y       z     vdW  Elec       q    Type
REMARK                         _______ _______ _______ _____ _____    ______ ____
ROOT
ATOM      1  N   UNL     1       2.300   5.561  20.343  0.00  0.00    +0.000 N 
ATOM      2  C   UNL     1       3.661   5.629  19.899  0.00  0.00    +0.000 C 
ATOM      3  C   UNL     1       3.675   4.615  18.754  0.00  0.00    +0.000 C 
ATOM      4  C   UNL     1       4.865   3.664  18.799  0.00  0.00    +0.000 C 
ATOM      5  C   UNL     1       6.147   4.369  18.386  0.00  0.00    +0.000 C 
ATOM      6  N   UNL     1       6.078   4.952  17.038  0.00  0.00    +0.000 NA
ATOM      7  C   UNL     1       4.947   5.890  16.942  0.00  0.00    +0.000 C 
ATOM      8  C   UNL     1       3.596   5.301  17.374  0.00  0.00    +0.000 C 
ATOM      9  O   UNL     1       2.490   3.817  18.964  0.00  0.00    +0.000 OA
ATOM     10  C   UNL     1       1.670   4.446  19.854  0.00  0.00    +0.000 C 
ATOM     11  O   UNL     1       0.547   4.063  20.129  0.00  0.00    +0.000 OA
ENDROOT
BRANCH   1  12
ATOM     12  C   UNL     1       1.613   6.630  21.043  0.00  0.00    +0.000 C 
BRANCH  12  14
ATOM     13  C   UNL     1       2.010   8.283  19.137  0.00  0.00    +0.000 C 
ATOM     14  C   UNL     1       1.012   7.750  20.169  0.00  0.00    +0.000 C 
BRANCH  14  15
ATOM     15  C   UNL     1       0.517   8.926  21.010  0.00  0.00    +0.000 A 
ATOM     16  C   UNL     1       0.188   8.726  22.360  0.00  0.00    +0.000 A 
ATOM     17  C   UNL     1      -0.351   9.764  23.125  0.00  0.00    +0.000 A 
ATOM     18  C   UNL     1      -0.563  11.019  22.553  0.00  0.00    +0.000 A 
ATOM     19  C   UNL     1      -0.233  11.236  21.222  0.00  0.00    +0.000 A 
ATOM     20  C   UNL     1       0.295  10.199  20.453  0.00  0.00    +0.000 A 
ENDBRANCH  14  15
ENDBRANCH  12  14
ENDBRANCH   1  12
BRANCH   6  21
ATOM     21  C   UNL     1       6.047   3.960  15.942  0.00  0.00    +0.000 C 
BRANCH  21  22
ATOM     22  C   UNL     1       6.668   4.504  14.691  0.00  0.00    +0.000 A 
ATOM     23  C   UNL     1       7.790   5.360  14.629  0.00  0.00    +0.000 A 
ATOM     24  N   UNL     1       8.178   5.614  13.382  0.00  0.00    +0.000 NA
ATOM     25  N   UNL     1       7.318   4.905  12.623  0.00  0.00    +0.000 N 
ATOM     26  C   UNL     1       7.522   4.924  11.196  0.00  0.00    +0.000 C 
ATOM     27  C   UNL     1       6.356   4.254  13.359  0.00  0.00    +0.000 A 
BRANCH  27  28
ATOM     28  C   UNL     1       5.205   3.349  12.927  0.00  0.00    +0.000 C 
ATOM     29  C   UNL     1       4.482   3.406  11.608  0.00  0.00    +0.000 C 
ATOM     30  C   UNL     1       5.512   2.350  11.834  0.00  0.00    +0.000 C 
ENDBRANCH  27  28
ENDBRANCH  21  22
ENDBRANCH   6  21
TORSDOF 6
ENDMDL
MODEL 6
REMARK VINA RESULT:      -7.2      4.430     10.319
REMARK  Name = 
REMARK  8 active torsions:
REMARK  status: ('A' for Active; 'I' for Inactive)
REMARK    1  A    between atoms: C_1  and  C_2
REMARK    2  A    between atoms: C_2  and  C_3
REMARK    3  A    between atoms: C_2  and  C_25
REMARK    4  A    between atoms: C_3  and  N_4
REMARK    5  A    between atoms: N_9  and  C_10
REMARK    6  A    between atoms: C_10  and  C_11
REMARK    7  A    between atoms: N_14  and  C_15
REMARK    8  A    between atoms: C_16  and  C_17
REMARK                            x       y       z     vdW  Elec       q    Type
REMARK                         _______ _______ _______ _____ _____    ______ ____
ROOT
ATOM      1  N   UNL     1      -0.424  12.058  19.443  0.00  0.00    +0.000 N 
ATOM      2  C   UNL     1       0.650  11.183  19.812  0.00  0.00    +0.000 C 
ATOM      3  C   UNL     1       0.227   9.865  19.163  0.00  0.00    +0.000 C 
ATOM      4  C   UNL     1       0.357   8.662  20.088  0.00  0.00    +0.000 C 
ATOM      5  C   UNL     1       1.813   8.270  20.279  0.00  0.00    +0.000 C 
ATOM      6  N   UNL     1       2.496   7.952  19.016  0.00  0.00    +0.000 NA
ATOM      7  C   UNL     1       2.409   9.090  18.085  0.00  0.00    +0.000 C 
ATOM      8  C   UNL     1       0.982   9.604  17.843  0.00  0.00    +0.000 C 
ATOM      9  O   UNL     1      -1.181  10.035  18.887  0.00  0.00    +0.000 OA
ATOM     10  C   UNL     1      -1.509  11.354  18.991  0.00  0.00    +0.000 C 
ATOM     11  O   UNL     1      -2.601  11.806  18.696  0.00  0.00    +0.000 OA
ENDROOT
BRANCH   1  12
ATOM     12  C   UNL     1      -0.310  13.502  19.356  0.00  0.00    +0.000 C 
BRANCH  12  14
ATOM     13  C   UNL     1       0.877  14.277  21.481  0.00  0.00    +0.000 C 
ATOM     14  C   UNL     1      -0.430  14.283  20.681  0.00  0.00    +0.000 C 
BRANCH  14  15
ATOM     15  C   UNL     1      -1.541  13.728  21.572  0.00  0.00    +0.000 A 
ATOM     16  C   UNL     1      -1.220  12.860  22.626  0.00  0.00    +0.000 A 
ATOM     17  C   UNL     1      -2.225  12.270  23.397  0.00  0.00    +0.000 A 
ATOM     18  C   UNL     1      -3.566  12.546  23.130  0.00  0.00    +0.000 A 
ATOM     19  C   UNL     1      -3.901  13.411  22.097  0.00  0.00    +0.000 A 
ATOM     20  C   UNL     1      -2.900  13.993  21.319  0.00  0.00    +0.000 A 
ENDBRANCH  14  15
ENDBRANCH  12  14
ENDBRANCH   1  12
BRANCH   6  21
ATOM     21  C   UNL     1       2.046   6.698  18.375  0.00  0.00    +0.000 C 
BRANCH  21  22
ATOM     22  C   UNL     1       2.993   5.569  18.651  0.00  0.00    +0.000 A 
ATOM     23  C   UNL     1       4.384   5.691  18.867  0.00  0.00    +0.000 A 
ATOM     24  N   UNL     1       4.962   4.532  19.177  0.00  0.00    +0.000 NA
ATOM     25  N   UNL     1       3.941   3.651  19.182  0.00  0.00    +0.000 N 
ATOM     26  C   UNL     1       4.242   2.291  19.553  0.00  0.00    +0.000 C 
ATOM     27  C   UNL     1       2.738   4.213  18.826  0.00  0.00    +0.000 A 
BRANCH  27  28
ATOM     28  C   UNL     1       1.344   3.604  18.705  0.00  0.00    +0.000 C 
ATOM     29  C   UNL     1       0.986   2.159  18.933  0.00  0.00    +0.000 C 
ATOM     30  C   UNL     1       0.690   3.164  19.995  0.00  0.00    +0.000 C 
ENDBRANCH  27  28
ENDBRANCH  21  22
ENDBRANCH   6  21
TORSDOF 6
ENDMDL
MODEL 7
REMARK VINA RESULT:      -7.2      4.086      9.541
REMARK  Name = 
REMARK  8 active torsions:
REMARK  status: ('A' for Active; 'I' for Inactive)
REMARK    1  A    between atoms: C_1  and  C_2
REMARK    2  A    between atoms: C_2  and  C_3
REMARK    3  A    between atoms: C_2  and  C_25
REMARK    4  A    between atoms: C_3  and  N_4
REMARK    5  A    between atoms: N_9  and  C_10
REMARK    6  A    between atoms: C_10  and  C_11
REMARK    7  A    between atoms: N_14  and  C_15
REMARK    8  A    between atoms: C_16  and  C_17
REMARK                            x       y       z     vdW  Elec       q    Type
REMARK                         _______ _______ _______ _____ _____    ______ ____
ROOT
ATOM      1  N   UNL     1       0.013  12.052  19.674  0.00  0.00    +0.000 N 
ATOM      2  C   UNL     1       1.035  11.076  19.917  0.00  0.00    +0.000 C 
ATOM      3  C   UNL     1       0.422   9.813  19.311  0.00  0.00    +0.000 C 
ATOM      4  C   UNL     1       0.542   8.588  20.210  0.00  0.00    +0.000 C 
ATOM      5  C   UNL     1       1.967   8.062  20.235  0.00  0.00    +0.000 C 
ATOM      6  N   UNL     1       2.474   7.702  18.902  0.00  0.00    +0.000 NA
ATOM      7  C   UNL     1       2.390   8.858  17.992  0.00  0.00    +0.000 C 
ATOM      8  C   UNL     1       0.999   9.504  17.914  0.00  0.00    +0.000 C 
ATOM      9  O   UNL     1      -0.986  10.115  19.195  0.00  0.00    +0.000 OA
ATOM     10  C   UNL     1      -1.176  11.457  19.344  0.00  0.00    +0.000 C 
ATOM     11  O   UNL     1      -2.247  12.012  19.174  0.00  0.00    +0.000 OA
ENDROOT
BRANCH   1  12
ATOM     12  C   UNL     1       0.250  13.480  19.583  0.00  0.00    +0.000 C 
BRANCH  12  14
ATOM     13  C   UNL     1       0.796  14.928  21.615  0.00  0.00    +0.000 C 
ATOM     14  C   UNL     1       1.358  14.053  20.490  0.00  0.00    +0.000 C 
BRANCH  14  15
ATOM     15  C   UNL     1       2.372  14.879  19.699  0.00  0.00    +0.000 A 
ATOM     16  C   UNL     1       3.100  15.890  20.344  0.00  0.00    +0.000 A 
ATOM     17  C   UNL     1       3.966  16.717  19.624  0.00  0.00    +0.000 A 
ATOM     18  C   UNL     1       4.122  16.540  18.249  0.00  0.00    +0.000 A 
ATOM     19  C   UNL     1       3.417  15.537  17.597  0.00  0.00    +0.000 A 
ATOM     20  C   UNL     1       2.543  14.718  18.312  0.00  0.00    +0.000 A 
ENDBRANCH  14  15
ENDBRANCH  12  14
ENDBRANCH   1  12
BRANCH   6  21
ATOM     21  C   UNL     1       1.841   6.505  18.308  0.00  0.00    +0.000 C 
BRANCH  21  22
ATOM     22  C   UNL     1       2.732   5.304  18.413  0.00  0.00    +0.000 A 
ATOM     23  C   UNL     1       3.840   5.021  17.583  0.00  0.00    +0.000 A 
ATOM     24  N   UNL     1       4.502   3.931  17.960  0.00  0.00    +0.000 NA
ATOM     25  N   UNL     1       3.837   3.507  19.054  0.00  0.00    +0.000 N 
ATOM     26  C   UNL     1       4.361   2.356  19.744  0.00  0.00    +0.000 C 
ATOM     27  C   UNL     1       2.732   4.272  19.344  0.00  0.00    +0.000 A 
BRANCH  27  28
ATOM     28  C   UNL     1       1.708   4.165  20.472  0.00  0.00    +0.000 C 
ATOM     29  C   UNL     1       1.098   2.892  20.996  0.00  0.00    +0.000 C 
ATOM     30  C   UNL     1       2.195   3.550  21.764  0.00  0.00    +0.000 C 
ENDBRANCH  27  28
ENDBRANCH  21  22
ENDBRANCH   6  21
TORSDOF 6
ENDMDL
MODEL 8
REMARK VINA RESULT:      -7.2      4.303      7.146
REMARK  Name = 
REMARK  8 active torsions:
REMARK  status: ('A' for Active; 'I' for Inactive)
REMARK    1  A    between atoms: C_1  and  C_2
REMARK    2  A    between atoms: C_2  and  C_3
REMARK    3  A    between atoms: C_2  and  C_25
REMARK    4  A    between atoms: C_3  and  N_4
REMARK    5  A    between atoms: N_9  and  C_10
REMARK    6  A    between atoms: C_10  and  C_11
REMARK    7  A    between atoms: N_14  and  C_15
REMARK    8  A    between atoms: C_16  and  C_17
REMARK                            x       y       z     vdW  Elec       q    Type
REMARK                         _______ _______ _______ _____ _____    ______ ____
ROOT
ATOM      1  N   UNL     1       1.490   9.632  18.650  0.00  0.00    +0.000 N 
ATOM      2  C   UNL     1       0.584   9.901  19.728  0.00  0.00    +0.000 C 
ATOM      3  C   UNL     1       0.396  11.414  19.618  0.00  0.00    +0.000 C 
ATOM      4  C   UNL     1       0.506  12.140  20.953  0.00  0.00    +0.000 C 
ATOM      5  C   UNL     1      -0.726  11.902  21.811  0.00  0.00    +0.000 C 
ATOM      6  N   UNL     1      -1.974  12.327  21.161  0.00  0.00    +0.000 NA
ATOM      7  C   UNL     1      -2.136  11.646  19.865  0.00  0.00    +0.000 C 
ATOM      8  C   UNL     1      -0.932  11.782  18.922  0.00  0.00    +0.000 C 
ATOM      9  O   UNL     1       1.505  11.857  18.804  0.00  0.00    +0.000 OA
ATOM     10  C   UNL     1       2.078  10.782  18.193  0.00  0.00    +0.000 C 
ATOM     11  O   UNL     1       2.958  10.868  17.355  0.00  0.00    +0.000 OA
ENDROOT
BRANCH   1  12
ATOM     12  C   UNL     1       1.615   8.347  17.988  0.00  0.00    +0.000 C 
BRANCH  12  14
ATOM     13  C   UNL     1       3.846   7.186  17.545  0.00  0.00    +0.000 C 
ATOM     14  C   UNL     1       2.696   7.392  18.535  0.00  0.00    +0.000 C 
BRANCH  14  15
ATOM     15  C   UNL     1       2.119   6.024  18.894  0.00  0.00    +0.000 A 
ATOM     16  C   UNL     1       1.826   5.721  20.232  0.00  0.00    +0.000 A 
ATOM     17  C   UNL     1       1.382   4.447  20.595  0.00  0.00    +0.000 A 
ATOM     18  C   UNL     1       1.218   3.458  19.625  0.00  0.00    +0.000 A 
ATOM     19  C   UNL     1       1.493   3.744  18.294  0.00  0.00    +0.000 A 
ATOM     20  C   UNL     1       1.947   5.013  17.930  0.00  0.00    +0.000 A 
ENDBRANCH  14  15
ENDBRANCH  12  14
ENDBRANCH   1  12
BRANCH   6  21
ATOM     21  C   UNL     1      -2.123  13.792  21.020  0.00  0.00    +0.000 C 
BRANCH  21  22
ATOM     22  C   UNL     1      -3.453  14.261  21.529  0.00  0.00    +0.000 A 
ATOM     23  C   UNL     1      -4.566  14.611  20.733  0.00  0.00    +0.000 A 
ATOM     24  N   UNL     1      -5.644  14.906  21.455  0.00  0.00    +0.000 NA
ATOM     25  N   UNL     1      -5.241  14.729  22.730  0.00  0.00    +0.000 N 
ATOM     26  C   UNL     1      -6.224  14.915  23.767  0.00  0.00    +0.000 C 
ATOM     27  C   UNL     1      -3.914  14.386  22.834  0.00  0.00    +0.000 A 
BRANCH  27  28
ATOM     28  C   UNL     1      -3.050  14.088  24.057  0.00  0.00    +0.000 C 
ATOM     29  C   UNL     1      -1.688  14.664  24.341  0.00  0.00    +0.000 C 
ATOM     30  C   UNL     1      -2.880  15.218  25.048  0.00  0.00    +0.000 C 
ENDBRANCH  27  28
ENDBRANCH  21  22
ENDBRANCH   6  21
TORSDOF 6
ENDMDL
MODEL 9
REMARK VINA RESULT:      -7.2      2.026      3.696
REMARK  Name = 
REMARK  8 active torsions:
REMARK  status: ('A' for Active; 'I' for Inactive)
REMARK    1  A    between atoms: C_1  and  C_2
REMARK    2  A    between atoms: C_2  and  C_3
REMARK    3  A    between atoms: C_2  and  C_25
REMARK    4  A    between atoms: C_3  and  N_4
REMARK    5  A    between atoms: N_9  and  C_10
REMARK    6  A    between atoms: C_10  and  C_11
REMARK    7  A    between atoms: N_14  and  C_15
REMARK    8  A    between atoms: C_16  and  C_17
REMARK                            x       y       z     vdW  Elec       q    Type
REMARK                         _______ _______ _______ _____ _____    ______ ____
ROOT
ATOM      1  N   UNL     1       3.708   3.614  18.236  0.00  0.00    +0.000 N 
ATOM      2  C   UNL     1       2.608   4.521  18.379  0.00  0.00    +0.000 C 
ATOM      3  C   UNL     1       2.853   5.106  19.770  0.00  0.00    +0.000 C 
ATOM      4  C   UNL     1       1.604   5.146  20.642  0.00  0.00    +0.000 C 
ATOM      5  C   UNL     1       0.652   6.241  20.189  0.00  0.00    +0.000 C 
ATOM      6  N   UNL     1       1.263   7.579  20.203  0.00  0.00    +0.000 NA
ATOM      7  C   UNL     1       2.474   7.599  19.364  0.00  0.00    +0.000 C 
ATOM      8  C   UNL     1       3.498   6.506  19.703  0.00  0.00    +0.000 C 
ATOM      9  O   UNL     1       3.772   4.181  20.392  0.00  0.00    +0.000 OA
ATOM     10  C   UNL     1       4.310   3.365  19.441  0.00  0.00    +0.000 C 
ATOM     11  O   UNL     1       5.205   2.569  19.660  0.00  0.00    +0.000 OA
ENDROOT
BRANCH   1  12
ATOM     12  C   UNL     1       4.248   3.177  16.963  0.00  0.00    +0.000 C 
BRANCH  12  14
ATOM     13  C   UNL     1       5.649   3.673  14.886  0.00  0.00    +0.000 C 
ATOM     14  C   UNL     1       4.887   4.265  16.075  0.00  0.00    +0.000 C 
BRANCH  14  15
ATOM     15  C   UNL     1       5.844   5.155  16.866  0.00  0.00    +0.000 A 
ATOM     16  C   UNL     1       5.740   6.551  16.766  0.00  0.00    +0.000 A 
ATOM     17  C   UNL     1       6.660   7.384  17.408  0.00  0.00    +0.000 A 
ATOM     18  C   UNL     1       7.694   6.834  18.165  0.00  0.00    +0.000 A 
ATOM     19  C   UNL     1       7.806   5.455  18.283  0.00  0.00    +0.000 A 
ATOM     20  C   UNL     1       6.895   4.621  17.634  0.00  0.00    +0.000 A 
ENDBRANCH  14  15
ENDBRANCH  12  14
ENDBRANCH   1  12
BRANCH   6  21
ATOM     21  C   UNL     1       1.537   8.114  21.554  0.00  0.00    +0.000 C 
BRANCH  21  22
ATOM     22  C   UNL     1       0.555   9.182  21.932  0.00  0.00    +0.000 A 
ATOM     23  C   UNL     1       0.185   9.538  23.247  0.00  0.00    +0.000 A 
ATOM     24  N   UNL     1      -0.641  10.581  23.288  0.00  0.00    +0.000 NA
ATOM     25  N   UNL     1      -0.797  10.922  21.992  0.00  0.00    +0.000 N 
ATOM     26  C   UNL     1      -1.604  12.082  21.706  0.00  0.00    +0.000 C 
ATOM     27  C   UNL     1      -0.136  10.082  21.128  0.00  0.00    +0.000 A 
BRANCH  27  28
ATOM     28  C   UNL     1      -0.032  10.092  19.605  0.00  0.00    +0.000 C 
ATOM     29  C   UNL     1      -0.552  11.167  18.689  0.00  0.00    +0.000 C 
ATOM     30  C   UNL     1       0.905  11.115  19.004  0.00  0.00    +0.000 C 
ENDBRANCH  27  28
ENDBRANCH  21  22
ENDBRANCH   6  21
TORSDOF 6
ENDMDL
