MODEL 1
REMARK VINA RESULT:      -7.9      0.000      0.000
REMARK  Name = 
REMARK  8 active torsions:
REMARK  status: ('A' for Active; 'I' for Inactive)
REMARK    1  A    between atoms: C_1  and  C_2
REMARK    2  A    between atoms: C_2  and  N_3
REMARK    3  A    between atoms: N_3  and  C_4
REMARK    4  A    between atoms: N_3  and  C_6
REMARK    5  A    between atoms: C_4  and  C_5
REMARK    6  A    between atoms: C_6  and  C_7
REMARK    7  A    between atoms: C_7  and  O_8
REMARK    8  A    between atoms: O_8  and  C_9
REMARK                            x       y       z     vdW  Elec       q    Type
REMARK                         _______ _______ _______ _____ _____    ______ ____
ROOT
ATOM      1  C   UNL     1       6.457   5.189  15.724  0.00  0.00    +0.000 A 
ATOM      2  C   UNL     1       5.708   6.369  15.663  0.00  0.00    +0.000 A 
ATOM      3  C   UNL     1       4.641   6.573  16.532  0.00  0.00    +0.000 A 
ATOM      4  C   UNL     1       4.318   5.592  17.467  0.00  0.00    +0.000 A 
ATOM      5  C   UNL     1       3.192   5.817  18.403  0.00  0.00    +0.000 A 
ATOM      6  O   UNL     1       2.545   6.858  18.364  0.00  0.00    +0.000 OA
ATOM      7  C   UNL     1       2.866   4.762  19.390  0.00  0.00    +0.000 A 
ATOM      8  C   UNL     1       1.808   4.954  20.286  0.00  0.00    +0.000 A 
ATOM      9  C   UNL     1       1.505   3.956  21.208  0.00  0.00    +0.000 A 
ATOM     10  C   UNL     1       2.260   2.789  21.220  0.00  0.00    +0.000 A 
ATOM     11  F   UNL     1       1.966   1.827  22.104  0.00  0.00    +0.000 F 
ATOM     12  C   UNL     1       3.317   2.591  20.328  0.00  0.00    +0.000 A 
ATOM     13  C   UNL     1       3.636   3.583  19.403  0.00  0.00    +0.000 A 
ATOM     14  N   UNL     1       4.686   3.417  18.484  0.00  0.00    +0.000 N 
ATOM     15  C   UNL     1       5.048   4.395  17.544  0.00  0.00    +0.000 A 
ATOM     16  C   UNL     1       6.119   4.202  16.663  0.00  0.00    +0.000 A 
ATOM     17  H   UNL     1       5.252   2.581  18.546  0.00  0.00    +0.000 HD
ENDROOT
BRANCH   1  18
ATOM     18  O   UNL     1       7.531   4.901  14.917  0.00  0.00    +0.000 OA
BRANCH  18  19
ATOM     19  C   UNL     1       7.212   4.694  13.534  0.00  0.00    +0.000 C 
BRANCH  19  20
ATOM     20  C   UNL     1       6.183   3.566  13.387  0.00  0.00    +0.000 C 
BRANCH  20  21
ATOM     21  N   UNL     1       5.716   3.342  12.000  0.00  0.00    +0.000 NA
BRANCH  21  23
ATOM     22  C   UNL     1       7.192   1.584  10.943  0.00  0.00    +0.000 C 
ATOM     23  C   UNL     1       5.882   1.919  11.652  0.00  0.00    +0.000 C 
ENDBRANCH  21  23
BRANCH  21  24
ATOM     24  C   UNL     1       4.370   3.871  11.726  0.00  0.00    +0.000 C 
ATOM     25  C   UNL     1       3.517   3.067  10.751  0.00  0.00    +0.000 C 
ENDBRANCH  21  24
ENDBRANCH  20  21
ENDBRANCH  19  20
ENDBRANCH  18  19
ENDBRANCH   1  18
TORSDOF 6
ENDMDL
MODEL 2
REMARK VINA RESULT:      -7.7      4.069      5.743
REMARK  Name = 
REMARK  8 active torsions:
REMARK  status: ('A' for Active; 'I' for Inactive)
REMARK    1  A    between atoms: C_1  and  C_2
REMARK    2  A    between atoms: C_2  and  N_3
REMARK    3  A    between atoms: N_3  and  C_4
REMARK    4  A    between atoms: N_3  and  C_6
REMARK    5  A    between atoms: C_4  and  C_5
REMARK    6  A    between atoms: C_6  and  C_7
REMARK    7  A    between atoms: C_7  and  O_8
REMARK    8  A    between atoms: O_8  and  C_9
REMARK                            x       y       z     vdW  Elec       q    Type
REMARK                         _______ _______ _______ _____ _____    ______ ____
ROOT
ATOM      1  C   UNL     1       3.771   5.780  18.680  0.00  0.00    +0.000 A 
ATOM      2  C   UNL     1       3.683   6.621  17.566  0.00  0.00    +0.000 A 
ATOM      3  C   UNL     1       2.910   7.778  17.614  0.00  0.00    +0.000 A 
ATOM      4  C   UNL     1       2.219   8.095  18.781  0.00  0.00    +0.000 A 
ATOM      5  C   UNL     1       1.410   9.334  18.837  0.00  0.00    +0.000 A 
ATOM      6  O   UNL     1       1.346  10.084  17.868  0.00  0.00    +0.000 OA
ATOM      7  C   UNL     1       0.684   9.654  20.087  0.00  0.00    +0.000 A 
ATOM      8  C   UNL     1      -0.085  10.821  20.163  0.00  0.00    +0.000 A 
ATOM      9  C   UNL     1      -0.768  11.113  21.341  0.00  0.00    +0.000 A 
ATOM     10  C   UNL     1      -0.673  10.238  22.417  0.00  0.00    +0.000 A 
ATOM     11  F   UNL     1      -1.333  10.516  23.548  0.00  0.00    +0.000 F 
ATOM     12  C   UNL     1       0.093   9.070  22.347  0.00  0.00    +0.000 A 
ATOM     13  C   UNL     1       0.787   8.769  21.177  0.00  0.00    +0.000 A 
ATOM     14  N   UNL     1       1.559   7.601  21.065  0.00  0.00    +0.000 N 
ATOM     15  C   UNL     1       2.282   7.264  19.911  0.00  0.00    +0.000 A 
ATOM     16  C   UNL     1       3.063   6.102  19.848  0.00  0.00    +0.000 A 
ATOM     17  H   UNL     1       1.653   7.006  21.878  0.00  0.00    +0.000 HD
ENDROOT
BRANCH   1  18
ATOM     18  O   UNL     1       4.512   4.624  18.732  0.00  0.00    +0.000 OA
BRANCH  18  19
ATOM     19  C   UNL     1       5.066   4.202  17.479  0.00  0.00    +0.000 C 
BRANCH  19  20
ATOM     20  C   UNL     1       6.594   4.341  17.498  0.00  0.00    +0.000 C 
BRANCH  20  21
ATOM     21  N   UNL     1       7.131   5.319  16.524  0.00  0.00    +0.000 NA
BRANCH  21  23
ATOM     22  C   UNL     1       6.992   4.752  14.066  0.00  0.00    +0.000 C 
ATOM     23  C   UNL     1       6.298   5.305  15.308  0.00  0.00    +0.000 C 
ENDBRANCH  21  23
BRANCH  21  24
ATOM     24  C   UNL     1       7.350   6.663  17.082  0.00  0.00    +0.000 C 
ATOM     25  C   UNL     1       7.878   6.720  18.512  0.00  0.00    +0.000 C 
ENDBRANCH  21  24
ENDBRANCH  20  21
ENDBRANCH  19  20
ENDBRANCH  18  19
ENDBRANCH   1  18
TORSDOF 6
ENDMDL
MODEL 3
REMARK VINA RESULT:      -7.5      0.813      1.457
REMARK  Name = 
REMARK  8 active torsions:
REMARK  status: ('A' for Active; 'I' for Inactive)
REMARK    1  A    between atoms: C_1  and  C_2
REMARK    2  A    between atoms: C_2  and  N_3
REMARK    3  A    between atoms: N_3  and  C_4
REMARK    4  A    between atoms: N_3  and  C_6
REMARK    5  A    between atoms: C_4  and  C_5
REMARK    6  A    between atoms: C_6  and  C_7
REMARK    7  A    between atoms: C_7  and  O_8
REMARK    8  A    between atoms: O_8  and  C_9
REMARK                            x       y       z     vdW  Elec       q    Type
REMARK                         _______ _______ _______ _____ _____    ______ ____
ROOT
ATOM      1  C   UNL     1       6.167   4.556  15.158  0.00  0.00    +0.000 A 
ATOM      2  C   UNL     1       5.766   5.894  15.241  0.00  0.00    +0.000 A 
ATOM      3  C   UNL     1       4.912   6.313  16.256  0.00  0.00    +0.000 A 
ATOM      4  C   UNL     1       4.451   5.389  17.192  0.00  0.00    +0.000 A 
ATOM      5  C   UNL     1       3.554   5.839  18.281  0.00  0.00    +0.000 A 
ATOM      6  O   UNL     1       3.216   7.014  18.369  0.00  0.00    +0.000 OA
ATOM      7  C   UNL     1       3.077   4.842  19.267  0.00  0.00    +0.000 A 
ATOM      8  C   UNL     1       2.231   5.244  20.307  0.00  0.00    +0.000 A 
ATOM      9  C   UNL     1       1.784   4.300  21.227  0.00  0.00    +0.000 A 
ATOM     10  C   UNL     1       2.186   2.976  21.093  0.00  0.00    +0.000 A 
ATOM     11  F   UNL     1       1.753   2.067  21.976  0.00  0.00    +0.000 F 
ATOM     12  C   UNL     1       3.031   2.568  20.058  0.00  0.00    +0.000 A 
ATOM     13  C   UNL     1       3.491   3.503  19.133  0.00  0.00    +0.000 A 
ATOM     14  N   UNL     1       4.334   3.129  18.073  0.00  0.00    +0.000 N 
ATOM     15  C   UNL     1       4.830   4.039  17.126  0.00  0.00    +0.000 A 
ATOM     16  C   UNL     1       5.690   3.631  16.099  0.00  0.00    +0.000 A 
ATOM     17  H   UNL     1       4.654   2.170  18.026  0.00  0.00    +0.000 HD
ENDROOT
BRANCH   1  18
ATOM     18  O   UNL     1       7.013   4.051  14.200  0.00  0.00    +0.000 OA
BRANCH  18  19
ATOM     19  C   UNL     1       7.177   4.876  13.039  0.00  0.00    +0.000 C 
BRANCH  19  20
ATOM     20  C   UNL     1       6.975   4.047  11.764  0.00  0.00    +0.000 C 
BRANCH  20  21
ATOM     21  N   UNL     1       6.352   2.722  11.988  0.00  0.00    +0.000 NA
BRANCH  21  23
ATOM     22  C   UNL     1       4.263   3.525  10.814  0.00  0.00    +0.000 C 
ATOM     23  C   UNL     1       4.887   2.875  12.047  0.00  0.00    +0.000 C 
ENDBRANCH  21  23
BRANCH  21  24
ATOM     24  C   UNL     1       6.807   1.679  11.055  0.00  0.00    +0.000 C 
ATOM     25  C   UNL     1       6.130   0.318  11.186  0.00  0.00    +0.000 C 
ENDBRANCH  21  24
ENDBRANCH  20  21
ENDBRANCH  19  20
ENDBRANCH  18  19
ENDBRANCH   1  18
TORSDOF 6
ENDMDL
MODEL 4
REMARK VINA RESULT:      -7.5      4.260      6.126
REMARK  Name = 
REMARK  8 active torsions:
REMARK  status: ('A' for Active; 'I' for Inactive)
REMARK    1  A    between atoms: C_1  and  C_2
REMARK    2  A    between atoms: C_2  and  N_3
REMARK    3  A    between atoms: N_3  and  C_4
REMARK    4  A    between atoms: N_3  and  C_6
REMARK    5  A    between atoms: C_4  and  C_5
REMARK    6  A    between atoms: C_6  and  C_7
REMARK    7  A    between atoms: C_7  and  O_8
REMARK    8  A    between atoms: O_8  and  C_9
REMARK                            x       y       z     vdW  Elec       q    Type
REMARK                         _______ _______ _______ _____ _____    ______ ____
ROOT
ATOM      1  C   UNL     1       3.435   6.009  18.487  0.00  0.00    +0.000 A 
ATOM      2  C   UNL     1       3.428   6.959  17.460  0.00  0.00    +0.000 A 
ATOM      3  C   UNL     1       2.744   8.161  17.616  0.00  0.00    +0.000 A 
ATOM      4  C   UNL     1       2.059   8.415  18.802  0.00  0.00    +0.000 A 
ATOM      5  C   UNL     1       1.344   9.700  18.972  0.00  0.00    +0.000 A 
ATOM      6  O   UNL     1       1.352  10.544  18.082  0.00  0.00    +0.000 OA
ATOM      7  C   UNL     1       0.624   9.951  20.242  0.00  0.00    +0.000 A 
ATOM      8  C   UNL     1      -0.056  11.160  20.426  0.00  0.00    +0.000 A 
ATOM      9  C   UNL     1      -0.734  11.387  21.620  0.00  0.00    +0.000 A 
ATOM     10  C   UNL     1      -0.723  10.406  22.605  0.00  0.00    +0.000 A 
ATOM     11  F   UNL     1      -1.379  10.622  23.753  0.00  0.00    +0.000 F 
ATOM     12  C   UNL     1      -0.046   9.196  22.428  0.00  0.00    +0.000 A 
ATOM     13  C   UNL     1       0.642   8.958  21.240  0.00  0.00    +0.000 A 
ATOM     14  N   UNL     1       1.326   7.751  21.020  0.00  0.00    +0.000 N 
ATOM     15  C   UNL     1       2.042   7.475  19.845  0.00  0.00    +0.000 A 
ATOM     16  C   UNL     1       2.734   6.269  19.675  0.00  0.00    +0.000 A 
ATOM     17  H   UNL     1       1.363   7.074  21.771  0.00  0.00    +0.000 HD
ENDROOT
BRANCH   1  18
ATOM     18  O   UNL     1       4.086   4.801  18.432  0.00  0.00    +0.000 OA
BRANCH  18  19
ATOM     19  C   UNL     1       5.249   4.700  19.266  0.00  0.00    +0.000 C 
BRANCH  19  20
ATOM     20  C   UNL     1       6.518   4.645  18.406  0.00  0.00    +0.000 C 
BRANCH  20  21
ATOM     21  N   UNL     1       6.707   5.817  17.520  0.00  0.00    +0.000 NA
BRANCH  21  23
ATOM     22  C   UNL     1       7.713   8.134  17.579  0.00  0.00    +0.000 C 
ATOM     23  C   UNL     1       7.746   6.695  18.088  0.00  0.00    +0.000 C 
ENDBRANCH  21  23
BRANCH  21  24
ATOM     24  C   UNL     1       6.924   5.472  16.106  0.00  0.00    +0.000 C 
ATOM     25  C   UNL     1       5.712   4.940  15.350  0.00  0.00    +0.000 C 
ENDBRANCH  21  24
ENDBRANCH  20  21
ENDBRANCH  19  20
ENDBRANCH  18  19
ENDBRANCH   1  18
TORSDOF 6
ENDMDL
MODEL 5
REMARK VINA RESULT:      -7.5      4.376      6.285
REMARK  Name = 
REMARK  8 active torsions:
REMARK  status: ('A' for Active; 'I' for Inactive)
REMARK    1  A    between atoms: C_1  and  C_2
REMARK    2  A    between atoms: C_2  and  N_3
REMARK    3  A    between atoms: N_3  and  C_4
REMARK    4  A    between atoms: N_3  and  C_6
REMARK    5  A    between atoms: C_4  and  C_5
REMARK    6  A    between atoms: C_6  and  C_7
REMARK    7  A    between atoms: C_7  and  O_8
REMARK    8  A    between atoms: O_8  and  C_9
REMARK                            x       y       z     vdW  Elec       q    Type
REMARK                         _______ _______ _______ _____ _____    ______ ____
ROOT
ATOM      1  C   UNL     1       4.432   5.640  18.341  0.00  0.00    +0.000 A 
ATOM      2  C   UNL     1       4.276   6.430  17.196  0.00  0.00    +0.000 A 
ATOM      3  C   UNL     1       3.415   7.523  17.206  0.00  0.00    +0.000 A 
ATOM      4  C   UNL     1       2.703   7.828  18.364  0.00  0.00    +0.000 A 
ATOM      5  C   UNL     1       1.799   9.001  18.377  0.00  0.00    +0.000 A 
ATOM      6  O   UNL     1       1.675   9.707  17.381  0.00  0.00    +0.000 OA
ATOM      7  C   UNL     1       1.053   9.309  19.618  0.00  0.00    +0.000 A 
ATOM      8  C   UNL     1       0.194  10.415  19.654  0.00  0.00    +0.000 A 
ATOM      9  C   UNL     1      -0.507  10.695  20.824  0.00  0.00    +0.000 A 
ATOM     10  C   UNL     1      -0.341   9.871  21.931  0.00  0.00    +0.000 A 
ATOM     11  F   UNL     1      -1.019  10.138  23.055  0.00  0.00    +0.000 F 
ATOM     12  C   UNL     1       0.513   8.766  21.900  0.00  0.00    +0.000 A 
ATOM     13  C   UNL     1       1.227   8.476  20.739  0.00  0.00    +0.000 A 
ATOM     14  N   UNL     1       2.088   7.369  20.667  0.00  0.00    +0.000 N 
ATOM     15  C   UNL     1       2.834   7.047  19.523  0.00  0.00    +0.000 A 
ATOM     16  C   UNL     1       3.704   5.949  19.499  0.00  0.00    +0.000 A 
ATOM     17  H   UNL     1       2.231   6.814  21.501  0.00  0.00    +0.000 HD
ENDROOT
BRANCH   1  18
ATOM     18  O   UNL     1       5.263   4.549  18.432  0.00  0.00    +0.000 OA
BRANCH  18  19
ATOM     19  C   UNL     1       4.645   3.290  18.132  0.00  0.00    +0.000 C 
BRANCH  19  20
ATOM     20  C   UNL     1       4.300   2.543  19.426  0.00  0.00    +0.000 C 
BRANCH  20  21
ATOM     21  N   UNL     1       2.852   2.318  19.634  0.00  0.00    +0.000 NA
BRANCH  21  23
ATOM     22  C   UNL     1       1.446   2.489  21.727  0.00  0.00    +0.000 C 
ATOM     23  C   UNL     1       2.376   3.179  20.732  0.00  0.00    +0.000 C 
ENDBRANCH  21  23
BRANCH  21  24
ATOM     24  C   UNL     1       2.046   2.417  18.406  0.00  0.00    +0.000 C 
ATOM     25  C   UNL     1       1.208   3.682  18.251  0.00  0.00    +0.000 C 
ENDBRANCH  21  24
ENDBRANCH  20  21
ENDBRANCH  19  20
ENDBRANCH  18  19
ENDBRANCH   1  18
TORSDOF 6
ENDMDL
MODEL 6
REMARK VINA RESULT:      -7.4      4.604      6.603
REMARK  Name = 
REMARK  8 active torsions:
REMARK  status: ('A' for Active; 'I' for Inactive)
REMARK    1  A    between atoms: C_1  and  C_2
REMARK    2  A    between atoms: C_2  and  N_3
REMARK    3  A    between atoms: N_3  and  C_4
REMARK    4  A    between atoms: N_3  and  C_6
REMARK    5  A    between atoms: C_4  and  C_5
REMARK    6  A    between atoms: C_6  and  C_7
REMARK    7  A    between atoms: C_7  and  O_8
REMARK    8  A    between atoms: O_8  and  C_9
REMARK                            x       y       z     vdW  Elec       q    Type
REMARK                         _______ _______ _______ _____ _____    ______ ____
ROOT
ATOM      1  C   UNL     1       3.619   6.101  18.265  0.00  0.00    +0.000 A 
ATOM      2  C   UNL     1       3.571   7.091  17.277  0.00  0.00    +0.000 A 
ATOM      3  C   UNL     1       2.848   8.261  17.486  0.00  0.00    +0.000 A 
ATOM      4  C   UNL     1       2.165   8.443  18.687  0.00  0.00    +0.000 A 
ATOM      5  C   UNL     1       1.409   9.696  18.914  0.00  0.00    +0.000 A 
ATOM      6  O   UNL     1       1.380  10.574  18.058  0.00  0.00    +0.000 OA
ATOM      7  C   UNL     1       0.692   9.871  20.197  0.00  0.00    +0.000 A 
ATOM      8  C   UNL     1      -0.028  11.048  20.435  0.00  0.00    +0.000 A 
ATOM      9  C   UNL     1      -0.703  11.202  21.643  0.00  0.00    +0.000 A 
ATOM     10  C   UNL     1      -0.650  10.184  22.588  0.00  0.00    +0.000 A 
ATOM     11  F   UNL     1      -1.302  10.331  23.748  0.00  0.00    +0.000 F 
ATOM     12  C   UNL     1       0.067   9.007  22.356  0.00  0.00    +0.000 A 
ATOM     13  C   UNL     1       0.752   8.840  21.155  0.00  0.00    +0.000 A 
ATOM     14  N   UNL     1       1.475   7.667  20.882  0.00  0.00    +0.000 N 
ATOM     15  C   UNL     1       2.189   7.462  19.691  0.00  0.00    +0.000 A 
ATOM     16  C   UNL     1       2.921   6.289  19.467  0.00  0.00    +0.000 A 
ATOM     17  H   UNL     1       1.541   6.962  21.605  0.00  0.00    +0.000 HD
ENDROOT
BRANCH   1  18
ATOM     18  O   UNL     1       4.311   4.919  18.156  0.00  0.00    +0.000 OA
BRANCH  18  19
ATOM     19  C   UNL     1       5.079   4.557  19.312  0.00  0.00    +0.000 C 
BRANCH  19  20
ATOM     20  C   UNL     1       4.745   3.123  19.745  0.00  0.00    +0.000 C 
BRANCH  20  21
ATOM     21  N   UNL     1       3.296   2.842  19.863  0.00  0.00    +0.000 NA
BRANCH  21  23
ATOM     22  C   UNL     1       2.307   2.251  17.614  0.00  0.00    +0.000 C 
ATOM     23  C   UNL     1       2.929   1.769  18.923  0.00  0.00    +0.000 C 
ENDBRANCH  21  23
BRANCH  21  24
ATOM     24  C   UNL     1       2.840   2.610  21.243  0.00  0.00    +0.000 C 
ATOM     25  C   UNL     1       1.342   2.761  21.491  0.00  0.00    +0.000 C 
ENDBRANCH  21  24
ENDBRANCH  20  21
ENDBRANCH  19  20
ENDBRANCH  18  19
ENDBRANCH   1  18
TORSDOF 6
ENDMDL
MODEL 7
REMARK VINA RESULT:      -7.4      4.123      6.405
REMARK  Name = 
REMARK  8 active torsions:
REMARK  status: ('A' for Active; 'I' for Inactive)
REMARK    1  A    between atoms: C_1  and  C_2
REMARK    2  A    between atoms: C_2  and  N_3
REMARK    3  A    between atoms: N_3  and  C_4
REMARK    4  A    between atoms: N_3  and  C_6
REMARK    5  A    between atoms: C_4  and  C_5
REMARK    6  A    between atoms: C_6  and  C_7
REMARK    7  A    between atoms: C_7  and  O_8
REMARK    8  A    between atoms: O_8  and  C_9
REMARK                            x       y       z     vdW  Elec       q    Type
REMARK                         _______ _______ _______ _____ _____    ______ ____
ROOT
ATOM      1  C   UNL     1       3.758   6.063  18.323  0.00  0.00    +0.000 A 
ATOM      2  C   UNL     1       3.617   6.987  17.282  0.00  0.00    +0.000 A 
ATOM      3  C   UNL     1       2.829   8.122  17.448  0.00  0.00    +0.000 A 
ATOM      4  C   UNL     1       2.174   8.333  18.659  0.00  0.00    +0.000 A 
ATOM      5  C   UNL     1       1.348   9.549  18.840  0.00  0.00    +0.000 A 
ATOM      6  O   UNL     1       1.237  10.371  17.937  0.00  0.00    +0.000 OA
ATOM      7  C   UNL     1       0.662   9.756  20.136  0.00  0.00    +0.000 A 
ATOM      8  C   UNL     1      -0.123  10.899  20.330  0.00  0.00    +0.000 A 
ATOM      9  C   UNL     1      -0.768  11.084  21.550  0.00  0.00    +0.000 A 
ATOM     10  C   UNL     1      -0.621  10.129  22.549  0.00  0.00    +0.000 A 
ATOM     11  F   UNL     1      -1.245  10.305  23.721  0.00  0.00    +0.000 F 
ATOM     12  C   UNL     1       0.159   8.986  22.361  0.00  0.00    +0.000 A 
ATOM     13  C   UNL     1       0.817   8.790  21.148  0.00  0.00    +0.000 A 
ATOM     14  N   UNL     1       1.603   7.649  20.918  0.00  0.00    +0.000 N 
ATOM     15  C   UNL     1       2.291   7.417  19.717  0.00  0.00    +0.000 A 
ATOM     16  C   UNL     1       3.087   6.279  19.536  0.00  0.00    +0.000 A 
ATOM     17  H   UNL     1       1.735   6.993  21.678  0.00  0.00    +0.000 HD
ENDROOT
BRANCH   1  18
ATOM     18  O   UNL     1       4.519   4.921  18.258  0.00  0.00    +0.000 OA
BRANCH  18  19
ATOM     19  C   UNL     1       4.330   4.132  17.075  0.00  0.00    +0.000 C 
BRANCH  19  20
ATOM     20  C   UNL     1       3.062   3.278  17.201  0.00  0.00    +0.000 C 
BRANCH  20  21
ATOM     21  N   UNL     1       2.764   2.827  18.580  0.00  0.00    +0.000 NA
BRANCH  21  23
ATOM     22  C   UNL     1       0.741   3.175  20.055  0.00  0.00    +0.000 C 
ATOM     23  C   UNL     1       1.307   2.659  18.734  0.00  0.00    +0.000 C 
ENDBRANCH  21  23
BRANCH  21  24
ATOM     24  C   UNL     1       3.549   1.661  19.014  0.00  0.00    +0.000 C 
ATOM     25  C   UNL     1       4.504   1.889  20.181  0.00  0.00    +0.000 C 
ENDBRANCH  21  24
ENDBRANCH  20  21
ENDBRANCH  19  20
ENDBRANCH  18  19
ENDBRANCH   1  18
TORSDOF 6
ENDMDL
MODEL 8
REMARK VINA RESULT:      -7.3      5.390      7.802
REMARK  Name = 
REMARK  8 active torsions:
REMARK  status: ('A' for Active; 'I' for Inactive)
REMARK    1  A    between atoms: C_1  and  C_2
REMARK    2  A    between atoms: C_2  and  N_3
REMARK    3  A    between atoms: N_3  and  C_4
REMARK    4  A    between atoms: N_3  and  C_6
REMARK    5  A    between atoms: C_4  and  C_5
REMARK    6  A    between atoms: C_6  and  C_7
REMARK    7  A    between atoms: C_7  and  O_8
REMARK    8  A    between atoms: O_8  and  C_9
REMARK                            x       y       z     vdW  Elec       q    Type
REMARK                         _______ _______ _______ _____ _____    ______ ____
ROOT
ATOM      1  C   UNL     1       2.456   7.378  19.253  0.00  0.00    +0.000 A 
ATOM      2  C   UNL     1       2.283   8.154  18.102  0.00  0.00    +0.000 A 
ATOM      3  C   UNL     1       1.471   9.283  18.128  0.00  0.00    +0.000 A 
ATOM      4  C   UNL     1       0.826   9.640  19.310  0.00  0.00    +0.000 A 
ATOM      5  C   UNL     1      -0.025  10.851  19.341  0.00  0.00    +0.000 A 
ATOM      6  O   UNL     1      -0.164  11.544  18.338  0.00  0.00    +0.000 OA
ATOM      7  C   UNL     1      -0.701  11.214  20.608  0.00  0.00    +0.000 A 
ATOM      8  C   UNL     1      -1.509  12.356  20.661  0.00  0.00    +0.000 A 
ATOM      9  C   UNL     1      -2.144  12.688  21.854  0.00  0.00    +0.000 A 
ATOM     10  C   UNL     1      -1.964  11.876  22.969  0.00  0.00    +0.000 A 
ATOM     11  F   UNL     1      -2.578  12.193  24.116  0.00  0.00    +0.000 F 
ATOM     12  C   UNL     1      -1.160  10.734  22.922  0.00  0.00    +0.000 A 
ATOM     13  C   UNL     1      -0.513  10.393  21.736  0.00  0.00    +0.000 A 
ATOM     14  N   UNL     1       0.296   9.248  21.648  0.00  0.00    +0.000 N 
ATOM     15  C   UNL     1       0.975   8.874  20.477  0.00  0.00    +0.000 A 
ATOM     16  C   UNL     1       1.794   7.739  20.437  0.00  0.00    +0.000 A 
ATOM     17  H   UNL     1       0.452   8.702  22.485  0.00  0.00    +0.000 HD
ENDROOT
BRANCH   1  18
ATOM     18  O   UNL     1       3.242   6.254  19.329  0.00  0.00    +0.000 OA
BRANCH  18  19
ATOM     19  C   UNL     1       3.166   5.382  18.192  0.00  0.00    +0.000 C 
BRANCH  19  20
ATOM     20  C   UNL     1       1.821   4.644  18.176  0.00  0.00    +0.000 C 
BRANCH  20  21
ATOM     21  N   UNL     1       1.762   3.463  19.068  0.00  0.00    +0.000 NA
BRANCH  21  23
ATOM     22  C   UNL     1       3.359   1.679  18.260  0.00  0.00    +0.000 C 
ATOM     23  C   UNL     1       3.107   2.870  19.182  0.00  0.00    +0.000 C 
ENDBRANCH  21  23
BRANCH  21  24
ATOM     24  C   UNL     1       1.112   3.721  20.363  0.00  0.00    +0.000 C 
ATOM     25  C   UNL     1       1.507   2.797  21.511  0.00  0.00    +0.000 C 
ENDBRANCH  21  24
ENDBRANCH  20  21
ENDBRANCH  19  20
ENDBRANCH  18  19
ENDBRANCH   1  18
TORSDOF 6
ENDMDL
MODEL 9
REMARK VINA RESULT:      -7.2      4.424      6.366
REMARK  Name = 
REMARK  8 active torsions:
REMARK  status: ('A' for Active; 'I' for Inactive)
REMARK    1  A    between atoms: C_1  and  C_2
REMARK    2  A    between atoms: C_2  and  N_3
REMARK    3  A    between atoms: N_3  and  C_4
REMARK    4  A    between atoms: N_3  and  C_6
REMARK    5  A    between atoms: C_4  and  C_5
REMARK    6  A    between atoms: C_6  and  C_7
REMARK    7  A    between atoms: C_7  and  O_8
REMARK    8  A    between atoms: O_8  and  C_9
REMARK                            x       y       z     vdW  Elec       q    Type
REMARK                         _______ _______ _______ _____ _____    ______ ____
ROOT
ATOM      1  C   UNL     1       2.779   5.564  19.259  0.00  0.00    +0.000 A 
ATOM      2  C   UNL     1       2.970   6.333  18.106  0.00  0.00    +0.000 A 
ATOM      3  C   UNL     1       2.502   7.642  18.046  0.00  0.00    +0.000 A 
ATOM      4  C   UNL     1       1.836   8.186  19.142  0.00  0.00    +0.000 A 
ATOM      5  C   UNL     1       1.353   9.584  19.082  0.00  0.00    +0.000 A 
ATOM      6  O   UNL     1       1.535  10.268  18.080  0.00  0.00    +0.000 OA
ATOM      7  C   UNL     1       0.649  10.144  20.259  0.00  0.00    +0.000 A 
ATOM      8  C   UNL     1       0.185  11.464  20.226  0.00  0.00    +0.000 A 
ATOM      9  C   UNL     1      -0.480  11.982  21.334  0.00  0.00    +0.000 A 
ATOM     10  C   UNL     1      -0.670  11.176  22.451  0.00  0.00    +0.000 A 
ATOM     11  F   UNL     1      -1.313  11.672  23.516  0.00  0.00    +0.000 F 
ATOM     12  C   UNL     1      -0.210   9.857  22.490  0.00  0.00    +0.000 A 
ATOM     13  C   UNL     1       0.462   9.327  21.390  0.00  0.00    +0.000 A 
ATOM     14  N   UNL     1       0.931   8.003  21.388  0.00  0.00    +0.000 N 
ATOM     15  C   UNL     1       1.623   7.433  20.308  0.00  0.00    +0.000 A 
ATOM     16  C   UNL     1       2.098   6.117  20.355  0.00  0.00    +0.000 A 
ATOM     17  H   UNL     1       0.825   7.453  22.230  0.00  0.00    +0.000 HD
ENDROOT
BRANCH   1  18
ATOM     18  O   UNL     1       3.211   4.269  19.417  0.00  0.00    +0.000 OA
BRANCH  18  19
ATOM     19  C   UNL     1       4.005   3.759  18.338  0.00  0.00    +0.000 C 
BRANCH  19  20
ATOM     20  C   UNL     1       5.490   4.060  18.580  0.00  0.00    +0.000 C 
BRANCH  20  21
ATOM     21  N   UNL     1       6.181   4.689  17.432  0.00  0.00    +0.000 NA
BRANCH  21  23
ATOM     22  C   UNL     1       7.818   5.774  19.021  0.00  0.00    +0.000 C 
ATOM     23  C   UNL     1       7.595   4.917  17.778  0.00  0.00    +0.000 C 
ENDBRANCH  21  23
BRANCH  21  24
ATOM     24  C   UNL     1       5.984   3.987  16.154  0.00  0.00    +0.000 C 
ATOM     25  C   UNL     1       6.727   4.558  14.951  0.00  0.00    +0.000 C 
ENDBRANCH  21  24
ENDBRANCH  20  21
ENDBRANCH  19  20
ENDBRANCH  18  19
ENDBRANCH   1  18
TORSDOF 6
ENDMDL
