MODEL 1
REMARK VINA RESULT:      -7.4      0.000      0.000
REMARK  Name = 
REMARK  7 active torsions:
REMARK  status: ('A' for Active; 'I' for Inactive)
REMARK    1  A    between atoms: C_1  and  N_2
REMARK    2  A    between atoms: N_2  and  C_3
REMARK    3  A    between atoms: N_2  and  C_13
REMARK    4  A    between atoms: C_3  and  C_4
REMARK    5  A    between atoms: C_4  and  C_5
REMARK    6  A    between atoms: C_6  and  C_7
REMARK    7  A    between atoms: C_13  and  C_14
REMARK                            x       y       z     vdW  Elec       q    Type
REMARK                         _______ _______ _______ _____ _____    ______ ____
ROOT
ATOM      1  C   UNL     1       3.709   1.378  19.027  0.00  0.00    +0.000 C 
ATOM      2  N   UNL     1       3.564   2.747  19.556  0.00  0.00    +0.000 NA
ENDROOT
BRANCH   2   3
ATOM      3  C   UNL     1       2.932   2.712  20.894  0.00  0.00    +0.000 C 
BRANCH   3   4
ATOM      4  C   UNL     1       1.666   3.582  20.970  0.00  0.00    +0.000 C 
BRANCH   4   5
ATOM      5  C   UNL     1       1.727   4.783  20.070  0.00  0.00    +0.000 C 
ATOM      6  C   UNL     1       2.054   6.007  20.511  0.00  0.00    +0.000 C 
BRANCH   6   7
ATOM      7  C   UNL     1       2.018   7.220  19.686  0.00  0.00    +0.000 A 
ATOM      8  C   UNL     1       1.347   8.351  20.171  0.00  0.00    +0.000 A 
ATOM      9  C   UNL     1       1.260   9.511  19.400  0.00  0.00    +0.000 A 
ATOM     10  C   UNL     1       1.856   9.557  18.142  0.00  0.00    +0.000 A 
ATOM     11  C   UNL     1       2.552   8.453  17.660  0.00  0.00    +0.000 A 
ATOM     12  C   UNL     1       2.643   7.294  18.431  0.00  0.00    +0.000 A 
ENDBRANCH   6   7
ENDBRANCH   4   5
ENDBRANCH   3   4
ENDBRANCH   2   3
BRANCH   2  13
ATOM     13  C   UNL     1       4.903   3.381  19.586  0.00  0.00    +0.000 C 
BRANCH  13  14
ATOM     14  C   UNL     1       5.187   4.318  18.438  0.00  0.00    +0.000 A 
ATOM     15  C   UNL     1       4.402   4.324  17.266  0.00  0.00    +0.000 A 
ATOM     16  C   UNL     1       4.629   5.232  16.228  0.00  0.00    +0.000 A 
ATOM     17  C   UNL     1       5.669   6.167  16.301  0.00  0.00    +0.000 A 
ATOM     18  C   UNL     1       6.510   6.147  17.426  0.00  0.00    +0.000 A 
ATOM     19  C   UNL     1       7.660   6.872  17.838  0.00  0.00    +0.000 A 
ATOM     20  C   UNL     1       8.029   6.353  19.057  0.00  0.00    +0.000 A 
ATOM     21  O   UNL     1       7.172   5.372  19.438  0.00  0.00    +0.000 OA
ATOM     22  C   UNL     1       6.246   5.236  18.443  0.00  0.00    +0.000 A 
ENDBRANCH  13  14
ENDBRANCH   2  13
TORSDOF 6
ENDMDL
MODEL 2
REMARK VINA RESULT:      -7.3      3.536      6.752
REMARK  Name = 
REMARK  7 active torsions:
REMARK  status: ('A' for Active; 'I' for Inactive)
REMARK    1  A    between atoms: C_1  and  N_2
REMARK    2  A    between atoms: N_2  and  C_3
REMARK    3  A    between atoms: N_2  and  C_13
REMARK    4  A    between atoms: C_3  and  C_4
REMARK    5  A    between atoms: C_4  and  C_5
REMARK    6  A    between atoms: C_6  and  C_7
REMARK    7  A    between atoms: C_13  and  C_14
REMARK                            x       y       z     vdW  Elec       q    Type
REMARK                         _______ _______ _______ _____ _____    ______ ____
ROOT
ATOM      1  C   UNL     1       7.909   5.604  19.664  0.00  0.00    +0.000 C 
ATOM      2  N   UNL     1       6.828   5.832  18.687  0.00  0.00    +0.000 NA
ENDROOT
BRANCH   2   3
ATOM      3  C   UNL     1       7.391   6.314  17.406  0.00  0.00    +0.000 C 
BRANCH   3   4
ATOM      4  C   UNL     1       7.265   7.839  17.245  0.00  0.00    +0.000 C 
BRANCH   4   5
ATOM      5  C   UNL     1       8.331   8.595  17.983  0.00  0.00    +0.000 C 
ATOM      6  C   UNL     1       8.320   9.931  18.112  0.00  0.00    +0.000 C 
BRANCH   6   7
ATOM      7  C   UNL     1       9.397  10.712  18.730  0.00  0.00    +0.000 A 
ATOM      8  C   UNL     1      10.423  11.214  17.918  0.00  0.00    +0.000 A 
ATOM      9  C   UNL     1      11.484  11.930  18.474  0.00  0.00    +0.000 A 
ATOM     10  C   UNL     1      11.523  12.163  19.846  0.00  0.00    +0.000 A 
ATOM     11  C   UNL     1      10.496  11.697  20.662  0.00  0.00    +0.000 A 
ATOM     12  C   UNL     1       9.433  10.985  20.106  0.00  0.00    +0.000 A 
ENDBRANCH   6   7
ENDBRANCH   4   5
ENDBRANCH   3   4
ENDBRANCH   2   3
BRANCH   2  13
ATOM     13  C   UNL     1       6.071   4.568  18.525  0.00  0.00    +0.000 C 
BRANCH  13  14
ATOM     14  C   UNL     1       4.579   4.737  18.371  0.00  0.00    +0.000 A 
ATOM     15  C   UNL     1       3.982   6.007  18.234  0.00  0.00    +0.000 A 
ATOM     16  C   UNL     1       2.606   6.160  18.032  0.00  0.00    +0.000 A 
ATOM     17  C   UNL     1       1.757   5.047  17.981  0.00  0.00    +0.000 A 
ATOM     18  C   UNL     1       2.310   3.772  18.177  0.00  0.00    +0.000 A 
ATOM     19  C   UNL     1       1.797   2.449  18.243  0.00  0.00    +0.000 A 
ATOM     20  C   UNL     1       2.873   1.626  18.479  0.00  0.00    +0.000 A 
ATOM     21  O   UNL     1       4.021   2.347  18.540  0.00  0.00    +0.000 OA
ATOM     22  C   UNL     1       3.684   3.659  18.364  0.00  0.00    +0.000 A 
ENDBRANCH  13  14
ENDBRANCH   2  13
TORSDOF 6
ENDMDL
MODEL 3
REMARK VINA RESULT:      -7.3      3.413      6.610
REMARK  Name = 
REMARK  7 active torsions:
REMARK  status: ('A' for Active; 'I' for Inactive)
REMARK    1  A    between atoms: C_1  and  N_2
REMARK    2  A    between atoms: N_2  and  C_3
REMARK    3  A    between atoms: N_2  and  C_13
REMARK    4  A    between atoms: C_3  and  C_4
REMARK    5  A    between atoms: C_4  and  C_5
REMARK    6  A    between atoms: C_6  and  C_7
REMARK    7  A    between atoms: C_13  and  C_14
REMARK                            x       y       z     vdW  Elec       q    Type
REMARK                         _______ _______ _______ _____ _____    ______ ____
ROOT
ATOM      1  C   UNL     1       5.305   6.109  17.076  0.00  0.00    +0.000 C 
ATOM      2  N   UNL     1       6.215   5.256  17.863  0.00  0.00    +0.000 NA
ENDROOT
BRANCH   2   3
ATOM      3  C   UNL     1       7.464   5.989  18.168  0.00  0.00    +0.000 C 
BRANCH   3   4
ATOM      4  C   UNL     1       7.524   7.362  17.477  0.00  0.00    +0.000 C 
BRANCH   4   5
ATOM      5  C   UNL     1       8.339   8.365  18.240  0.00  0.00    +0.000 C 
ATOM      6  C   UNL     1       8.395   9.664  17.905  0.00  0.00    +0.000 C 
BRANCH   6   7
ATOM      7  C   UNL     1       9.263  10.650  18.558  0.00  0.00    +0.000 A 
ATOM      8  C   UNL     1       9.452  10.576  19.944  0.00  0.00    +0.000 A 
ATOM      9  C   UNL     1      10.242  11.517  20.605  0.00  0.00    +0.000 A 
ATOM     10  C   UNL     1      10.861  12.536  19.885  0.00  0.00    +0.000 A 
ATOM     11  C   UNL     1      10.707  12.605  18.503  0.00  0.00    +0.000 A 
ATOM     12  C   UNL     1       9.922  11.662  17.841  0.00  0.00    +0.000 A 
ENDBRANCH   6   7
ENDBRANCH   4   5
ENDBRANCH   3   4
ENDBRANCH   2   3
BRANCH   2  13
ATOM     13  C   UNL     1       5.506   4.824  19.091  0.00  0.00    +0.000 C 
BRANCH  13  14
ATOM     14  C   UNL     1       4.276   3.983  18.851  0.00  0.00    +0.000 A 
ATOM     15  C   UNL     1       4.287   2.874  17.980  0.00  0.00    +0.000 A 
ATOM     16  C   UNL     1       3.164   2.061  17.803  0.00  0.00    +0.000 A 
ATOM     17  C   UNL     1       1.964   2.332  18.474  0.00  0.00    +0.000 A 
ATOM     18  C   UNL     1       1.899   3.465  19.300  0.00  0.00    +0.000 A 
ATOM     19  C   UNL     1       0.891   4.084  20.086  0.00  0.00    +0.000 A 
ATOM     20  C   UNL     1       1.468   5.196  20.653  0.00  0.00    +0.000 A 
ATOM     21  O   UNL     1       2.773   5.294  20.292  0.00  0.00    +0.000 OA
ATOM     22  C   UNL     1       3.041   4.244  19.460  0.00  0.00    +0.000 A 
ENDBRANCH  13  14
ENDBRANCH   2  13
TORSDOF 6
ENDMDL
MODEL 4
REMARK VINA RESULT:      -7.2      3.288      6.550
REMARK  Name = 
REMARK  7 active torsions:
REMARK  status: ('A' for Active; 'I' for Inactive)
REMARK    1  A    between atoms: C_1  and  N_2
REMARK    2  A    between atoms: N_2  and  C_3
REMARK    3  A    between atoms: N_2  and  C_13
REMARK    4  A    between atoms: C_3  and  C_4
REMARK    5  A    between atoms: C_4  and  C_5
REMARK    6  A    between atoms: C_6  and  C_7
REMARK    7  A    between atoms: C_13  and  C_14
REMARK                            x       y       z     vdW  Elec       q    Type
REMARK                         _______ _______ _______ _____ _____    ______ ____
ROOT
ATOM      1  C   UNL     1       6.429   4.303  15.897  0.00  0.00    +0.000 C 
ATOM      2  N   UNL     1       6.102   4.932  17.190  0.00  0.00    +0.000 NA
ENDROOT
BRANCH   2   3
ATOM      3  C   UNL     1       7.249   5.733  17.672  0.00  0.00    +0.000 C 
BRANCH   3   4
ATOM      4  C   UNL     1       7.115   7.224  17.317  0.00  0.00    +0.000 C 
BRANCH   4   5
ATOM      5  C   UNL     1       8.068   8.096  18.083  0.00  0.00    +0.000 C 
ATOM      6  C   UNL     1       8.172   9.418  17.877  0.00  0.00    +0.000 C 
BRANCH   6   7
ATOM      7  C   UNL     1       9.165  10.281  18.526  0.00  0.00    +0.000 A 
ATOM      8  C   UNL     1       9.159  10.390  19.923  0.00  0.00    +0.000 A 
ATOM      9  C   UNL     1      10.064  11.229  20.575  0.00  0.00    +0.000 A 
ATOM     10  C   UNL     1      10.994  11.957  19.836  0.00  0.00    +0.000 A 
ATOM     11  C   UNL     1      11.032  11.836  18.450  0.00  0.00    +0.000 A 
ATOM     12  C   UNL     1      10.131  10.994  17.799  0.00  0.00    +0.000 A 
ENDBRANCH   6   7
ENDBRANCH   4   5
ENDBRANCH   3   4
ENDBRANCH   2   3
BRANCH   2  13
ATOM     13  C   UNL     1       4.880   5.754  17.014  0.00  0.00    +0.000 C 
BRANCH  13  14
ATOM     14  C   UNL     1       3.794   5.501  18.031  0.00  0.00    +0.000 A 
ATOM     15  C   UNL     1       3.424   6.471  18.985  0.00  0.00    +0.000 A 
ATOM     16  C   UNL     1       2.378   6.259  19.888  0.00  0.00    +0.000 A 
ATOM     17  C   UNL     1       1.665   5.053  19.896  0.00  0.00    +0.000 A 
ATOM     18  C   UNL     1       2.049   4.041  19.001  0.00  0.00    +0.000 A 
ATOM     19  C   UNL     1       1.624   2.712  18.740  0.00  0.00    +0.000 A 
ATOM     20  C   UNL     1       2.430   2.237  17.731  0.00  0.00    +0.000 A 
ATOM     21  O   UNL     1       3.309   3.192  17.334  0.00  0.00    +0.000 OA
ATOM     22  C   UNL     1       3.087   4.294  18.110  0.00  0.00    +0.000 A 
ENDBRANCH  13  14
ENDBRANCH   2  13
TORSDOF 6
ENDMDL
MODEL 5
REMARK VINA RESULT:      -7.0      3.424      6.607
REMARK  Name = 
REMARK  7 active torsions:
REMARK  status: ('A' for Active; 'I' for Inactive)
REMARK    1  A    between atoms: C_1  and  N_2
REMARK    2  A    between atoms: N_2  and  C_3
REMARK    3  A    between atoms: N_2  and  C_13
REMARK    4  A    between atoms: C_3  and  C_4
REMARK    5  A    between atoms: C_4  and  C_5
REMARK    6  A    between atoms: C_6  and  C_7
REMARK    7  A    between atoms: C_13  and  C_14
REMARK                            x       y       z     vdW  Elec       q    Type
REMARK                         _______ _______ _______ _____ _____    ______ ____
ROOT
ATOM      1  C   UNL     1       7.375   4.465  17.115  0.00  0.00    +0.000 C 
ATOM      2  N   UNL     1       6.851   4.877  18.430  0.00  0.00    +0.000 NA
ENDROOT
BRANCH   2   3
ATOM      3  C   UNL     1       7.704   5.939  19.010  0.00  0.00    +0.000 C 
BRANCH   3   4
ATOM      4  C   UNL     1       7.867   7.142  18.066  0.00  0.00    +0.000 C 
BRANCH   4   5
ATOM      5  C   UNL     1       8.592   8.292  18.704  0.00  0.00    +0.000 C 
ATOM      6  C   UNL     1       8.573   9.535  18.198  0.00  0.00    +0.000 C 
BRANCH   6   7
ATOM      7  C   UNL     1       9.355  10.657  18.730  0.00  0.00    +0.000 A 
ATOM      8  C   UNL     1       9.585  10.729  20.111  0.00  0.00    +0.000 A 
ATOM      9  C   UNL     1      10.293  11.799  20.658  0.00  0.00    +0.000 A 
ATOM     10  C   UNL     1      10.790  12.802  19.829  0.00  0.00    +0.000 A 
ATOM     11  C   UNL     1      10.595  12.729  18.453  0.00  0.00    +0.000 A 
ATOM     12  C   UNL     1       9.891  11.657  17.905  0.00  0.00    +0.000 A 
ENDBRANCH   6   7
ENDBRANCH   4   5
ENDBRANCH   3   4
ENDBRANCH   2   3
BRANCH   2  13
ATOM     13  C   UNL     1       5.447   5.321  18.256  0.00  0.00    +0.000 C 
BRANCH  13  14
ATOM     14  C   UNL     1       4.432   4.544  19.059  0.00  0.00    +0.000 A 
ATOM     15  C   UNL     1       4.547   3.154  19.264  0.00  0.00    +0.000 A 
ATOM     16  C   UNL     1       3.639   2.445  20.056  0.00  0.00    +0.000 A 
ATOM     17  C   UNL     1       2.555   3.091  20.664  0.00  0.00    +0.000 A 
ATOM     18  C   UNL     1       2.374   4.463  20.428  0.00  0.00    +0.000 A 
ATOM     19  C   UNL     1       1.409   5.433  20.810  0.00  0.00    +0.000 A 
ATOM     20  C   UNL     1       1.798   6.617  20.228  0.00  0.00    +0.000 A 
ATOM     21  O   UNL     1       2.951   6.451  19.532  0.00  0.00    +0.000 OA
ATOM     22  C   UNL     1       3.305   5.136  19.644  0.00  0.00    +0.000 A 
ENDBRANCH  13  14
ENDBRANCH   2  13
TORSDOF 6
ENDMDL
MODEL 6
REMARK VINA RESULT:      -7.0      3.293      6.640
REMARK  Name = 
REMARK  7 active torsions:
REMARK  status: ('A' for Active; 'I' for Inactive)
REMARK    1  A    between atoms: C_1  and  N_2
REMARK    2  A    between atoms: N_2  and  C_3
REMARK    3  A    between atoms: N_2  and  C_13
REMARK    4  A    between atoms: C_3  and  C_4
REMARK    5  A    between atoms: C_4  and  C_5
REMARK    6  A    between atoms: C_6  and  C_7
REMARK    7  A    between atoms: C_13  and  C_14
REMARK                            x       y       z     vdW  Elec       q    Type
REMARK                         _______ _______ _______ _____ _____    ______ ____
ROOT
ATOM      1  C   UNL     1       6.972   5.044  15.833  0.00  0.00    +0.000 C 
ATOM      2  N   UNL     1       6.246   5.206  17.107  0.00  0.00    +0.000 NA
ENDROOT
BRANCH   2   3
ATOM      3  C   UNL     1       6.928   6.207  17.958  0.00  0.00    +0.000 C 
BRANCH   3   4
ATOM      4  C   UNL     1       7.228   7.514  17.203  0.00  0.00    +0.000 C 
BRANCH   4   5
ATOM      5  C   UNL     1       8.319   8.322  17.843  0.00  0.00    +0.000 C 
ATOM      6  C   UNL     1       8.156   9.601  18.216  0.00  0.00    +0.000 C 
BRANCH   6   7
ATOM      7  C   UNL     1       9.228  10.453  18.742  0.00  0.00    +0.000 A 
ATOM      8  C   UNL     1      10.197  10.947  17.859  0.00  0.00    +0.000 A 
ATOM      9  C   UNL     1      11.253  11.731  18.329  0.00  0.00    +0.000 A 
ATOM     10  C   UNL     1      11.341  12.040  19.684  0.00  0.00    +0.000 A 
ATOM     11  C   UNL     1      10.369  11.581  20.568  0.00  0.00    +0.000 A 
ATOM     12  C   UNL     1       9.312  10.802  20.099  0.00  0.00    +0.000 A 
ENDBRANCH   6   7
ENDBRANCH   4   5
ENDBRANCH   3   4
ENDBRANCH   2   3
BRANCH   2  13
ATOM     13  C   UNL     1       4.847   5.591  16.803  0.00  0.00    +0.000 C 
BRANCH  13  14
ATOM     14  C   UNL     1       3.914   5.579  17.988  0.00  0.00    +0.000 A 
ATOM     15  C   UNL     1       3.397   6.768  18.544  0.00  0.00    +0.000 A 
ATOM     16  C   UNL     1       2.486   6.754  19.604  0.00  0.00    +0.000 A 
ATOM     17  C   UNL     1       2.065   5.548  20.177  0.00  0.00    +0.000 A 
ATOM     18  C   UNL     1       2.608   4.348  19.690  0.00  0.00    +0.000 A 
ATOM     19  C   UNL     1       2.478   2.973  20.023  0.00  0.00    +0.000 A 
ATOM     20  C   UNL     1       3.303   2.286  19.164  0.00  0.00    +0.000 A 
ATOM     21  O   UNL     1       3.917   3.140  18.306  0.00  0.00    +0.000 OA
ATOM     22  C   UNL     1       3.503   4.401  18.627  0.00  0.00    +0.000 A 
ENDBRANCH  13  14
ENDBRANCH   2  13
TORSDOF 6
ENDMDL
MODEL 7
REMARK VINA RESULT:      -6.8      3.291      6.587
REMARK  Name = 
REMARK  7 active torsions:
REMARK  status: ('A' for Active; 'I' for Inactive)
REMARK    1  A    between atoms: C_1  and  N_2
REMARK    2  A    between atoms: N_2  and  C_3
REMARK    3  A    between atoms: N_2  and  C_13
REMARK    4  A    between atoms: C_3  and  C_4
REMARK    5  A    between atoms: C_4  and  C_5
REMARK    6  A    between atoms: C_6  and  C_7
REMARK    7  A    between atoms: C_13  and  C_14
REMARK                            x       y       z     vdW  Elec       q    Type
REMARK                         _______ _______ _______ _____ _____    ______ ____
ROOT
ATOM      1  C   UNL     1       3.896   7.035  16.999  0.00  0.00    +0.000 C 
ATOM      2  N   UNL     1       5.195   6.343  17.090  0.00  0.00    +0.000 NA
ENDROOT
BRANCH   2   3
ATOM      3  C   UNL     1       6.296   7.331  17.152  0.00  0.00    +0.000 C 
BRANCH   3   4
ATOM      4  C   UNL     1       7.547   6.773  17.852  0.00  0.00    +0.000 C 
BRANCH   4   5
ATOM      5  C   UNL     1       8.375   7.840  18.508  0.00  0.00    +0.000 C 
ATOM      6  C   UNL     1       8.307   9.134  18.156  0.00  0.00    +0.000 C 
BRANCH   6   7
ATOM      7  C   UNL     1       9.176  10.185  18.697  0.00  0.00    +0.000 A 
ATOM      8  C   UNL     1       9.991  10.910  17.817  0.00  0.00    +0.000 A 
ATOM      9  C   UNL     1      10.858  11.892  18.298  0.00  0.00    +0.000 A 
ATOM     10  C   UNL     1      10.909  12.169  19.662  0.00  0.00    +0.000 A 
ATOM     11  C   UNL     1      10.084  11.478  20.544  0.00  0.00    +0.000 A 
ATOM     12  C   UNL     1       9.214  10.499  20.064  0.00  0.00    +0.000 A 
ENDBRANCH   6   7
ENDBRANCH   4   5
ENDBRANCH   3   4
ENDBRANCH   2   3
BRANCH   2  13
ATOM     13  C   UNL     1       5.171   5.457  18.278  0.00  0.00    +0.000 C 
BRANCH  13  14
ATOM     14  C   UNL     1       4.026   4.476  18.315  0.00  0.00    +0.000 A 
ATOM     15  C   UNL     1       3.940   3.393  17.415  0.00  0.00    +0.000 A 
ATOM     16  C   UNL     1       2.910   2.451  17.488  0.00  0.00    +0.000 A 
ATOM     17  C   UNL     1       1.900   2.559  18.452  0.00  0.00    +0.000 A 
ATOM     18  C   UNL     1       1.919   3.660  19.323  0.00  0.00    +0.000 A 
ATOM     19  C   UNL     1       1.082   4.135  20.367  0.00  0.00    +0.000 A 
ATOM     20  C   UNL     1       1.654   5.298  20.825  0.00  0.00    +0.000 A 
ATOM     21  O   UNL     1       2.802   5.563  20.151  0.00  0.00    +0.000 OA
ATOM     22  C   UNL     1       2.966   4.571  19.228  0.00  0.00    +0.000 A 
ENDBRANCH  13  14
ENDBRANCH   2  13
TORSDOF 6
ENDMDL
MODEL 8
REMARK VINA RESULT:      -6.8      1.566      2.252
REMARK  Name = 
REMARK  7 active torsions:
REMARK  status: ('A' for Active; 'I' for Inactive)
REMARK    1  A    between atoms: C_1  and  N_2
REMARK    2  A    between atoms: N_2  and  C_3
REMARK    3  A    between atoms: N_2  and  C_13
REMARK    4  A    between atoms: C_3  and  C_4
REMARK    5  A    between atoms: C_4  and  C_5
REMARK    6  A    between atoms: C_6  and  C_7
REMARK    7  A    between atoms: C_13  and  C_14
REMARK                            x       y       z     vdW  Elec       q    Type
REMARK                         _______ _______ _______ _____ _____    ______ ____
ROOT
ATOM      1  C   UNL     1       2.111   3.448  17.512  0.00  0.00    +0.000 C 
ATOM      2  N   UNL     1       2.900   3.766  18.716  0.00  0.00    +0.000 NA
ENDROOT
BRANCH   2   3
ATOM      3  C   UNL     1       2.211   3.261  19.925  0.00  0.00    +0.000 C 
BRANCH   3   4
ATOM      4  C   UNL     1       2.194   4.293  21.066  0.00  0.00    +0.000 C 
BRANCH   4   5
ATOM      5  C   UNL     1       1.677   5.634  20.634  0.00  0.00    +0.000 C 
ATOM      6  C   UNL     1       2.379   6.468  19.851  0.00  0.00    +0.000 C 
BRANCH   6   7
ATOM      7  C   UNL     1       1.954   7.827  19.499  0.00  0.00    +0.000 A 
ATOM      8  C   UNL     1       1.286   8.599  20.458  0.00  0.00    +0.000 A 
ATOM      9  C   UNL     1       0.834   9.883  20.149  0.00  0.00    +0.000 A 
ATOM     10  C   UNL     1       1.057  10.412  18.880  0.00  0.00    +0.000 A 
ATOM     11  C   UNL     1       1.745   9.669  17.926  0.00  0.00    +0.000 A 
ATOM     12  C   UNL     1       2.201   8.388  18.236  0.00  0.00    +0.000 A 
ENDBRANCH   6   7
ENDBRANCH   4   5
ENDBRANCH   3   4
ENDBRANCH   2   3
BRANCH   2  13
ATOM     13  C   UNL     1       4.252   3.179  18.557  0.00  0.00    +0.000 C 
BRANCH  13  14
ATOM     14  C   UNL     1       5.332   4.165  18.183  0.00  0.00    +0.000 A 
ATOM     15  C   UNL     1       5.877   5.067  19.121  0.00  0.00    +0.000 A 
ATOM     16  C   UNL     1       6.918   5.940  18.789  0.00  0.00    +0.000 A 
ATOM     17  C   UNL     1       7.449   5.969  17.493  0.00  0.00    +0.000 A 
ATOM     18  C   UNL     1       6.886   5.130  16.518  0.00  0.00    +0.000 A 
ATOM     19  C   UNL     1       7.103   4.906  15.133  0.00  0.00    +0.000 A 
ATOM     20  C   UNL     1       6.196   3.947  14.747  0.00  0.00    +0.000 A 
ATOM     21  O   UNL     1       5.448   3.544  15.806  0.00  0.00    +0.000 OA
ATOM     22  C   UNL     1       5.860   4.267  16.889  0.00  0.00    +0.000 A 
ENDBRANCH  13  14
ENDBRANCH   2  13
TORSDOF 6
ENDMDL
MODEL 9
REMARK VINA RESULT:      -6.8      3.289      6.605
REMARK  Name = 
REMARK  7 active torsions:
REMARK  status: ('A' for Active; 'I' for Inactive)
REMARK    1  A    between atoms: C_1  and  N_2
REMARK    2  A    between atoms: N_2  and  C_3
REMARK    3  A    between atoms: N_2  and  C_13
REMARK    4  A    between atoms: C_3  and  C_4
REMARK    5  A    between atoms: C_4  and  C_5
REMARK    6  A    between atoms: C_6  and  C_7
REMARK    7  A    between atoms: C_13  and  C_14
REMARK                            x       y       z     vdW  Elec       q    Type
REMARK                         _______ _______ _______ _____ _____    ______ ____
ROOT
ATOM      1  C   UNL     1       6.974   4.836  16.893  0.00  0.00    +0.000 C 
ATOM      2  N   UNL     1       6.093   5.335  17.966  0.00  0.00    +0.000 NA
ENDROOT
BRANCH   2   3
ATOM      3  C   UNL     1       6.338   6.776  18.198  0.00  0.00    +0.000 C 
BRANCH   3   4
ATOM      4  C   UNL     1       7.491   7.322  17.340  0.00  0.00    +0.000 C 
BRANCH   4   5
ATOM      5  C   UNL     1       8.405   8.238  18.102  0.00  0.00    +0.000 C 
ATOM      6  C   UNL     1       8.359   9.575  17.985  0.00  0.00    +0.000 C 
BRANCH   6   7
ATOM      7  C   UNL     1       9.305  10.494  18.627  0.00  0.00    +0.000 A 
ATOM      8  C   UNL     1       9.280  10.628  20.022  0.00  0.00    +0.000 A 
ATOM      9  C   UNL     1      10.139  11.519  20.666  0.00  0.00    +0.000 A 
ATOM     10  C   UNL     1      11.042  12.276  19.923  0.00  0.00    +0.000 A 
ATOM     11  C   UNL     1      11.100  12.131  18.540  0.00  0.00    +0.000 A 
ATOM     12  C   UNL     1      10.244  11.238  17.896  0.00  0.00    +0.000 A 
ENDBRANCH   6   7
ENDBRANCH   4   5
ENDBRANCH   3   4
ENDBRANCH   2   3
BRANCH   2  13
ATOM     13  C   UNL     1       4.688   5.061  17.582  0.00  0.00    +0.000 C 
BRANCH  13  14
ATOM     14  C   UNL     1       3.679   5.258  18.686  0.00  0.00    +0.000 A 
ATOM     15  C   UNL     1       2.990   6.477  18.860  0.00  0.00    +0.000 A 
ATOM     16  C   UNL     1       2.013   6.640  19.846  0.00  0.00    +0.000 A 
ATOM     17  C   UNL     1       1.692   5.597  20.723  0.00  0.00    +0.000 A 
ATOM     18  C   UNL     1       2.403   4.390  20.619  0.00  0.00    +0.000 A 
ATOM     19  C   UNL     1       2.407   3.158  21.325  0.00  0.00    +0.000 A 
ATOM     20  C   UNL     1       3.365   2.372  20.729  0.00  0.00    +0.000 A 
ATOM     21  O   UNL     1       3.938   3.026  19.687  0.00  0.00    +0.000 OA
ATOM     22  C   UNL     1       3.360   4.261  19.619  0.00  0.00    +0.000 A 
ENDBRANCH  13  14
ENDBRANCH   2  13
TORSDOF 6
ENDMDL
