MODEL 1
REMARK VINA RESULT:      -8.1      0.000      0.000
REMARK  Name = 
REMARK  8 active torsions:
REMARK  status: ('A' for Active; 'I' for Inactive)
REMARK    1  A    between atoms: C_1  and  O_2
REMARK    2  A    between atoms: O_2  and  C_3
REMARK    3  A    between atoms: C_5  and  N_6
REMARK    4  A    between atoms: N_6  and  C_7
REMARK    5  A    between atoms: C_12  and  N_13
REMARK    6  A    between atoms: C_14  and  C_15
REMARK    7  A    between atoms: C_26  and  O_27
REMARK    8  A    between atoms: O_27  and  C_28
REMARK                            x       y       z     vdW  Elec       q    Type
REMARK                         _______ _______ _______ _____ _____    ______ ____
ROOT
ATOM      1  C   UNL     1       2.970   4.131  18.706  0.00  0.00    +0.000 A 
ATOM      2  N   UNL     1       3.061   2.803  18.981  0.00  0.00    +0.000 NA
ATOM      3  C   UNL     1       2.698   2.371  20.202  0.00  0.00    +0.000 A 
ATOM      4  C   UNL     1       2.253   3.209  21.203  0.00  0.00    +0.000 A 
ATOM      5  C   UNL     1       2.167   4.571  20.925  0.00  0.00    +0.000 A 
ATOM      6  C   UNL     1       2.548   5.077  19.671  0.00  0.00    +0.000 A 
ENDROOT
BRANCH   1   7
ATOM      7  N   UNL     1       3.380   4.586  17.418  0.00  0.00    +0.000 N 
ATOM      8  H   UNL     1       2.870   4.021  16.737  0.00  0.00    +0.000 HD
BRANCH   7  11
ATOM      9  C   UNL     1       7.125   4.676  17.559  0.00  0.00    +0.000 A 
ATOM     10  C   UNL     1       5.785   4.676  17.958  0.00  0.00    +0.000 A 
ATOM     11  C   UNL     1       4.742   4.683  17.023  0.00  0.00    +0.000 A 
ATOM     12  C   UNL     1       5.073   4.629  15.665  0.00  0.00    +0.000 A 
ATOM     13  C   UNL     1       6.412   4.632  15.247  0.00  0.00    +0.000 A 
ATOM     14  C   UNL     1       7.435   4.667  16.199  0.00  0.00    +0.000 A 
BRANCH   9  16
ATOM     15  C   UNL     1       7.875   5.670  19.590  0.00  0.00    +0.000 C 
ATOM     16  O   UNL     1       8.024   4.670  18.591  0.00  0.00    +0.000 OA
ENDBRANCH   9  16
BRANCH  13  17
ATOM     17  O   UNL     1       6.589   4.590  13.888  0.00  0.00    +0.000 OA
ATOM     18  C   UNL     1       5.837   3.618  13.170  0.00  0.00    +0.000 C 
ENDBRANCH  13  17
ENDBRANCH   7  11
ENDBRANCH   1   7
BRANCH   6  19
ATOM     19  N   UNL     1       2.403   6.456  19.336  0.00  0.00    +0.000 NA
ATOM     20  C   UNL     1       1.761   7.212  20.176  0.00  0.00    +0.000 C 
BRANCH  20  21
ATOM     21  C   UNL     1       1.436   8.604  19.972  0.00  0.00    +0.000 A 
ATOM     22  N   UNL     1       0.997   9.331  20.978  0.00  0.00    +0.000 NA
ATOM     23  C   UNL     1       0.703  10.612  20.547  0.00  0.00    +0.000 A 
ATOM     24  C   UNL     1       0.196  11.651  21.352  0.00  0.00    +0.000 A 
ATOM     25  C   UNL     1      -0.060  12.906  20.789  0.00  0.00    +0.000 A 
ATOM     26  C   UNL     1       0.188  13.126  19.439  0.00  0.00    +0.000 A 
ATOM     27 CL   UNL     1      -0.137  14.679  18.766  0.00  0.00    +0.000 Cl
ATOM     28  C   UNL     1       0.694  12.114  18.616  0.00  0.00    +0.000 A 
ATOM     29  C   UNL     1       0.944  10.854  19.193  0.00  0.00    +0.000 A 
ATOM     30  S   UNL     1       1.547   9.406  18.466  0.00  0.00    +0.000 S 
ENDBRANCH  20  21
ENDBRANCH   6  19
TORSDOF 6
ENDMDL
MODEL 2
REMARK VINA RESULT:      -8.0      1.402      2.555
REMARK  Name = 
REMARK  8 active torsions:
REMARK  status: ('A' for Active; 'I' for Inactive)
REMARK    1  A    between atoms: C_1  and  O_2
REMARK    2  A    between atoms: O_2  and  C_3
REMARK    3  A    between atoms: C_5  and  N_6
REMARK    4  A    between atoms: N_6  and  C_7
REMARK    5  A    between atoms: C_12  and  N_13
REMARK    6  A    between atoms: C_14  and  C_15
REMARK    7  A    between atoms: C_26  and  O_27
REMARK    8  A    between atoms: O_27  and  C_28
REMARK                            x       y       z     vdW  Elec       q    Type
REMARK                         _______ _______ _______ _____ _____    ______ ____
ROOT
ATOM      1  C   UNL     1       2.707   4.442  19.001  0.00  0.00    +0.000 A 
ATOM      2  N   UNL     1       2.884   3.094  19.006  0.00  0.00    +0.000 NA
ATOM      3  C   UNL     1       2.681   2.422  20.154  0.00  0.00    +0.000 A 
ATOM      4  C   UNL     1       2.319   3.031  21.337  0.00  0.00    +0.000 A 
ATOM      5  C   UNL     1       2.145   4.412  21.335  0.00  0.00    +0.000 A 
ATOM      6  C   UNL     1       2.359   5.164  20.168  0.00  0.00    +0.000 A 
ENDROOT
BRANCH   1   7
ATOM      7  N   UNL     1       2.947   5.153  17.788  0.00  0.00    +0.000 N 
ATOM      8  H   UNL     1       2.275   4.796  17.107  0.00  0.00    +0.000 HD
BRANCH   7  11
ATOM      9  C   UNL     1       5.879   4.468  15.554  0.00  0.00    +0.000 A 
ATOM     10  C   UNL     1       4.657   4.320  16.217  0.00  0.00    +0.000 A 
ATOM     11  C   UNL     1       4.229   5.243  17.179  0.00  0.00    +0.000 A 
ATOM     12  C   UNL     1       5.032   6.361  17.423  0.00  0.00    +0.000 A 
ATOM     13  C   UNL     1       6.262   6.524  16.770  0.00  0.00    +0.000 A 
ATOM     14  C   UNL     1       6.687   5.568  15.844  0.00  0.00    +0.000 A 
BRANCH   9  16
ATOM     15  C   UNL     1       6.398   3.885  13.303  0.00  0.00    +0.000 C 
ATOM     16  O   UNL     1       6.154   3.483  14.643  0.00  0.00    +0.000 OA
ENDBRANCH   9  16
BRANCH  13  17
ATOM     17  O   UNL     1       6.950   7.659  17.115  0.00  0.00    +0.000 OA
ATOM     18  C   UNL     1       7.969   7.521  18.099  0.00  0.00    +0.000 C 
ENDBRANCH  13  17
ENDBRANCH   7  11
ENDBRANCH   1   7
BRANCH   6  19
ATOM     19  N   UNL     1       2.119   6.570  20.119  0.00  0.00    +0.000 NA
ATOM     20  C   UNL     1       1.267   7.062  20.968  0.00  0.00    +0.000 C 
BRANCH  20  21
ATOM     21  C   UNL     1       0.828   8.436  21.015  0.00  0.00    +0.000 A 
ATOM     22  N   UNL     1       0.245   8.905  22.099  0.00  0.00    +0.000 NA
ATOM     23  C   UNL     1      -0.134  10.220  21.905  0.00  0.00    +0.000 A 
ATOM     24  C   UNL     1      -0.799  11.029  22.849  0.00  0.00    +0.000 A 
ATOM     25  C   UNL     1      -1.128  12.349  22.524  0.00  0.00    +0.000 A 
ATOM     26  C   UNL     1      -0.799  12.861  21.274  0.00  0.00    +0.000 A 
ATOM     27 CL   UNL     1      -1.217  14.490  20.895  0.00  0.00    +0.000 Cl
ATOM     28  C   UNL     1      -0.137  12.083  20.318  0.00  0.00    +0.000 A 
ATOM     29  C   UNL     1       0.186  10.754  20.656  0.00  0.00    +0.000 A 
ATOM     30  S   UNL     1       0.979   9.538  19.716  0.00  0.00    +0.000 S 
ENDBRANCH  20  21
ENDBRANCH   6  19
TORSDOF 6
ENDMDL
MODEL 3
REMARK VINA RESULT:      -8.0      1.262      1.532
REMARK  Name = 
REMARK  8 active torsions:
REMARK  status: ('A' for Active; 'I' for Inactive)
REMARK    1  A    between atoms: C_1  and  O_2
REMARK    2  A    between atoms: O_2  and  C_3
REMARK    3  A    between atoms: C_5  and  N_6
REMARK    4  A    between atoms: N_6  and  C_7
REMARK    5  A    between atoms: C_12  and  N_13
REMARK    6  A    between atoms: C_14  and  C_15
REMARK    7  A    between atoms: C_26  and  O_27
REMARK    8  A    between atoms: O_27  and  C_28
REMARK                            x       y       z     vdW  Elec       q    Type
REMARK                         _______ _______ _______ _____ _____    ______ ____
ROOT
ATOM      1  C   UNL     1       2.801   4.451  18.928  0.00  0.00    +0.000 A 
ATOM      2  N   UNL     1       2.956   3.105  19.045  0.00  0.00    +0.000 NA
ATOM      3  C   UNL     1       2.699   2.528  20.233  0.00  0.00    +0.000 A 
ATOM      4  C   UNL     1       2.303   3.232  21.350  0.00  0.00    +0.000 A 
ATOM      5  C   UNL     1       2.152   4.612  21.235  0.00  0.00    +0.000 A 
ATOM      6  C   UNL     1       2.422   5.267  20.021  0.00  0.00    +0.000 A 
ENDROOT
BRANCH   1   7
ATOM      7  N   UNL     1       3.099   5.061  17.674  0.00  0.00    +0.000 N 
ATOM      8  H   UNL     1       2.490   4.616  16.986  0.00  0.00    +0.000 HD
BRANCH   7  11
ATOM      9  C   UNL     1       6.732   5.906  17.311  0.00  0.00    +0.000 A 
ATOM     10  C   UNL     1       5.417   5.896  17.784  0.00  0.00    +0.000 A 
ATOM     11  C   UNL     1       4.415   5.153  17.146  0.00  0.00    +0.000 A 
ATOM     12  C   UNL     1       4.776   4.366  16.048  0.00  0.00    +0.000 A 
ATOM     13  C   UNL     1       6.090   4.368  15.558  0.00  0.00    +0.000 A 
ATOM     14  C   UNL     1       7.063   5.149  16.187  0.00  0.00    +0.000 A 
BRANCH   9  16
ATOM     15  C   UNL     1       7.765   8.030  17.630  0.00  0.00    +0.000 C 
ATOM     16  O   UNL     1       7.592   6.681  18.043  0.00  0.00    +0.000 OA
ENDBRANCH   9  16
BRANCH  13  17
ATOM     17  O   UNL     1       6.299   3.561  14.470  0.00  0.00    +0.000 OA
ATOM     18  C   UNL     1       6.697   4.199  13.261  0.00  0.00    +0.000 C 
ENDBRANCH  13  17
ENDBRANCH   7  11
ENDBRANCH   1   7
BRANCH   6  19
ATOM     19  N   UNL     1       2.207   6.668  19.854  0.00  0.00    +0.000 NA
ATOM     20  C   UNL     1       1.515   7.281  20.768  0.00  0.00    +0.000 C 
BRANCH  20  21
ATOM     21  C   UNL     1       1.119   8.668  20.729  0.00  0.00    +0.000 A 
ATOM     22  N   UNL     1       1.187   9.341  19.599  0.00  0.00    +0.000 NA
ATOM     23  C   UNL     1       0.809  10.655  19.804  0.00  0.00    +0.000 A 
ATOM     24  C   UNL     1       0.778  11.662  18.818  0.00  0.00    +0.000 A 
ATOM     25  C   UNL     1       0.375  12.958  19.160  0.00  0.00    +0.000 A 
ATOM     26  C   UNL     1       0.005  13.249  20.467  0.00  0.00    +0.000 A 
ATOM     27 CL   UNL     1      -0.486  14.853  20.866  0.00  0.00    +0.000 Cl
ATOM     28  C   UNL     1       0.023  12.270  21.466  0.00  0.00    +0.000 A 
ATOM     29  C   UNL     1       0.434  10.970  21.111  0.00  0.00    +0.000 A 
ATOM     30  S   UNL     1       0.581   9.552  22.091  0.00  0.00    +0.000 S 
ENDBRANCH  20  21
ENDBRANCH   6  19
TORSDOF 6
ENDMDL
MODEL 4
REMARK VINA RESULT:      -8.0      5.077      9.298
REMARK  Name = 
REMARK  8 active torsions:
REMARK  status: ('A' for Active; 'I' for Inactive)
REMARK    1  A    between atoms: C_1  and  O_2
REMARK    2  A    between atoms: O_2  and  C_3
REMARK    3  A    between atoms: C_5  and  N_6
REMARK    4  A    between atoms: N_6  and  C_7
REMARK    5  A    between atoms: C_12  and  N_13
REMARK    6  A    between atoms: C_14  and  C_15
REMARK    7  A    between atoms: C_26  and  O_27
REMARK    8  A    between atoms: O_27  and  C_28
REMARK                            x       y       z     vdW  Elec       q    Type
REMARK                         _______ _______ _______ _____ _____    ______ ____
ROOT
ATOM      1  C   UNL     1      -0.374  10.618  20.782  0.00  0.00    +0.000 A 
ATOM      2  N   UNL     1      -1.080  11.232  21.769  0.00  0.00    +0.000 NA
ATOM      3  C   UNL     1      -0.996  10.745  23.020  0.00  0.00    +0.000 A 
ATOM      4  C   UNL     1      -0.243   9.640  23.356  0.00  0.00    +0.000 A 
ATOM      5  C   UNL     1       0.475   9.005  22.346  0.00  0.00    +0.000 A 
ATOM      6  C   UNL     1       0.410   9.463  21.019  0.00  0.00    +0.000 A 
ENDROOT
BRANCH   1   7
ATOM      7  N   UNL     1      -0.486  11.123  19.453  0.00  0.00    +0.000 N 
ATOM      8  H   UNL     1      -0.176  12.095  19.487  0.00  0.00    +0.000 HD
BRANCH   7  11
ATOM      9  C   UNL     1      -4.004  11.667  18.278  0.00  0.00    +0.000 A 
ATOM     10  C   UNL     1      -2.862  11.677  19.083  0.00  0.00    +0.000 A 
ATOM     11  C   UNL     1      -1.680  11.037  18.686  0.00  0.00    +0.000 A 
ATOM     12  C   UNL     1      -1.650  10.433  17.426  0.00  0.00    +0.000 A 
ATOM     13  C   UNL     1      -2.787  10.411  16.606  0.00  0.00    +0.000 A 
ATOM     14  C   UNL     1      -3.967  11.020  17.043  0.00  0.00    +0.000 A 
BRANCH   9  16
ATOM     15  C   UNL     1      -4.864  13.054  20.014  0.00  0.00    +0.000 C 
ATOM     16  O   UNL     1      -5.077  12.335  18.807  0.00  0.00    +0.000 OA
ENDBRANCH   9  16
BRANCH  13  17
ATOM     17  O   UNL     1      -2.618   9.774  15.405  0.00  0.00    +0.000 OA
ATOM     18  C   UNL     1      -3.542  10.093  14.370  0.00  0.00    +0.000 C 
ENDBRANCH  13  17
ENDBRANCH   7  11
ENDBRANCH   1   7
BRANCH   6  19
ATOM     19  N   UNL     1       1.190   8.876  19.978  0.00  0.00    +0.000 NA
ATOM     20  C   UNL     1       1.643   7.674  20.174  0.00  0.00    +0.000 C 
BRANCH  20  21
ATOM     21  C   UNL     1       2.519   6.953  19.282  0.00  0.00    +0.000 A 
ATOM     22  N   UNL     1       3.117   7.585  18.293  0.00  0.00    +0.000 NA
ATOM     23  C   UNL     1       3.863   6.696  17.541  0.00  0.00    +0.000 A 
ATOM     24  C   UNL     1       4.620   7.022  16.398  0.00  0.00    +0.000 A 
ATOM     25  C   UNL     1       5.332   6.022  15.726  0.00  0.00    +0.000 A 
ATOM     26  C   UNL     1       5.294   4.711  16.187  0.00  0.00    +0.000 A 
ATOM     27 CL   UNL     1       6.176   3.496  15.343  0.00  0.00    +0.000 Cl
ATOM     28  C   UNL     1       4.553   4.358  17.321  0.00  0.00    +0.000 A 
ATOM     29  C   UNL     1       3.837   5.373  17.986  0.00  0.00    +0.000 A 
ATOM     30  S   UNL     1       2.828   5.274  19.387  0.00  0.00    +0.000 S 
ENDBRANCH  20  21
ENDBRANCH   6  19
TORSDOF 6
ENDMDL
MODEL 5
REMARK VINA RESULT:      -8.0      5.008      9.334
REMARK  Name = 
REMARK  8 active torsions:
REMARK  status: ('A' for Active; 'I' for Inactive)
REMARK    1  A    between atoms: C_1  and  O_2
REMARK    2  A    between atoms: O_2  and  C_3
REMARK    3  A    between atoms: C_5  and  N_6
REMARK    4  A    between atoms: N_6  and  C_7
REMARK    5  A    between atoms: C_12  and  N_13
REMARK    6  A    between atoms: C_14  and  C_15
REMARK    7  A    between atoms: C_26  and  O_27
REMARK    8  A    between atoms: O_27  and  C_28
REMARK                            x       y       z     vdW  Elec       q    Type
REMARK                         _______ _______ _______ _____ _____    ______ ____
ROOT
ATOM      1  C   UNL     1      -0.351  10.611  20.673  0.00  0.00    +0.000 A 
ATOM      2  N   UNL     1      -0.975  11.215  21.719  0.00  0.00    +0.000 NA
ATOM      3  C   UNL     1      -0.802  10.707  22.953  0.00  0.00    +0.000 A 
ATOM      4  C   UNL     1      -0.037   9.590  23.214  0.00  0.00    +0.000 A 
ATOM      5  C   UNL     1       0.596   8.966  22.144  0.00  0.00    +0.000 A 
ATOM      6  C   UNL     1       0.437   9.445  20.832  0.00  0.00    +0.000 A 
ENDROOT
BRANCH   1   7
ATOM      7  N   UNL     1      -0.558  11.138  19.364  0.00  0.00    +0.000 N 
ATOM      8  H   UNL     1      -0.285  12.121  19.403  0.00  0.00    +0.000 HD
BRANCH   7  11
ATOM      9  C   UNL     1      -4.105  11.695  18.289  0.00  0.00    +0.000 A 
ATOM     10  C   UNL     1      -2.927  11.744  19.039  0.00  0.00    +0.000 A 
ATOM     11  C   UNL     1      -1.788  11.020  18.662  0.00  0.00    +0.000 A 
ATOM     12  C   UNL     1      -1.838  10.285  17.473  0.00  0.00    +0.000 A 
ATOM     13  C   UNL     1      -3.012  10.222  16.711  0.00  0.00    +0.000 A 
ATOM     14  C   UNL     1      -4.149  10.920  17.129  0.00  0.00    +0.000 A 
BRANCH   9  16
ATOM     15  C   UNL     1      -4.966  12.984  20.098  0.00  0.00    +0.000 C 
ATOM     16  O   UNL     1      -5.128  12.457  18.788  0.00  0.00    +0.000 OA
ENDBRANCH   9  16
BRANCH  13  17
ATOM     17  O   UNL     1      -2.922   9.455  15.578  0.00  0.00    +0.000 OA
ATOM     18  C   UNL     1      -3.047  10.130  14.331  0.00  0.00    +0.000 C 
ENDBRANCH  13  17
ENDBRANCH   7  11
ENDBRANCH   1   7
BRANCH   6  19
ATOM     19  N   UNL     1       1.130   8.869  19.727  0.00  0.00    +0.000 NA
ATOM     20  C   UNL     1       1.771   7.757  19.935  0.00  0.00    +0.000 C 
BRANCH  20  21
ATOM     21  C   UNL     1       2.599   7.074  18.970  0.00  0.00    +0.000 A 
ATOM     22  N   UNL     1       2.751   5.767  19.041  0.00  0.00    +0.000 NA
ATOM     23  C   UNL     1       3.618   5.334  18.056  0.00  0.00    +0.000 A 
ATOM     24  C   UNL     1       4.022   4.000  17.847  0.00  0.00    +0.000 A 
ATOM     25  C   UNL     1       4.910   3.696  16.810  0.00  0.00    +0.000 A 
ATOM     26  C   UNL     1       5.391   4.707  15.987  0.00  0.00    +0.000 A 
ATOM     27 CL   UNL     1       6.486   4.310  14.717  0.00  0.00    +0.000 Cl
ATOM     28  C   UNL     1       5.006   6.040  16.168  0.00  0.00    +0.000 A 
ATOM     29  C   UNL     1       4.115   6.335  17.218  0.00  0.00    +0.000 A 
ATOM     30  S   UNL     1       3.459   7.856  17.716  0.00  0.00    +0.000 S 
ENDBRANCH  20  21
ENDBRANCH   6  19
TORSDOF 6
ENDMDL
MODEL 6
REMARK VINA RESULT:      -8.0      1.270      2.646
REMARK  Name = 
REMARK  8 active torsions:
REMARK  status: ('A' for Active; 'I' for Inactive)
REMARK    1  A    between atoms: C_1  and  O_2
REMARK    2  A    between atoms: O_2  and  C_3
REMARK    3  A    between atoms: C_5  and  N_6
REMARK    4  A    between atoms: N_6  and  C_7
REMARK    5  A    between atoms: C_12  and  N_13
REMARK    6  A    between atoms: C_14  and  C_15
REMARK    7  A    between atoms: C_26  and  O_27
REMARK    8  A    between atoms: O_27  and  C_28
REMARK                            x       y       z     vdW  Elec       q    Type
REMARK                         _______ _______ _______ _____ _____    ______ ____
ROOT
ATOM      1  C   UNL     1       2.866   4.487  18.934  0.00  0.00    +0.000 A 
ATOM      2  N   UNL     1       2.925   3.129  18.986  0.00  0.00    +0.000 NA
ATOM      3  C   UNL     1       2.559   2.510  20.122  0.00  0.00    +0.000 A 
ATOM      4  C   UNL     1       2.140   3.182  21.252  0.00  0.00    +0.000 A 
ATOM      5  C   UNL     1       2.086   4.572  21.204  0.00  0.00    +0.000 A 
ATOM      6  C   UNL     1       2.473   5.269  20.047  0.00  0.00    +0.000 A 
ENDROOT
BRANCH   1   7
ATOM      7  N   UNL     1       3.279   5.139  17.735  0.00  0.00    +0.000 N 
ATOM      8  H   UNL     1       2.651   4.814  16.999  0.00  0.00    +0.000 HD
BRANCH   7  11
ATOM      9  C   UNL     1       6.279   4.427  15.602  0.00  0.00    +0.000 A 
ATOM     10  C   UNL     1       4.983   4.374  16.123  0.00  0.00    +0.000 A 
ATOM     11  C   UNL     1       4.618   5.112  17.256  0.00  0.00    +0.000 A 
ATOM     12  C   UNL     1       5.572   5.959  17.827  0.00  0.00    +0.000 A 
ATOM     13  C   UNL     1       6.878   6.022  17.320  0.00  0.00    +0.000 A 
ATOM     14  C   UNL     1       7.230   5.244  16.213  0.00  0.00    +0.000 A 
BRANCH   9  16
ATOM     15  C   UNL     1       5.703   3.948  13.341  0.00  0.00    +0.000 C 
ATOM     16  O   UNL     1       6.477   3.648  14.494  0.00  0.00    +0.000 OA
ENDBRANCH   9  16
BRANCH  13  17
ATOM     17  O   UNL     1       7.712   6.884  17.984  0.00  0.00    +0.000 OA
ATOM     18  C   UNL     1       7.724   8.238  17.543  0.00  0.00    +0.000 C 
ENDBRANCH  13  17
ENDBRANCH   7  11
ENDBRANCH   1   7
BRANCH   6  19
ATOM     19  N   UNL     1       2.360   6.688  19.946  0.00  0.00    +0.000 NA
ATOM     20  C   UNL     1       1.455   7.270  20.674  0.00  0.00    +0.000 C 
BRANCH  20  21
ATOM     21  C   UNL     1       1.131   8.677  20.642  0.00  0.00    +0.000 A 
ATOM     22  N   UNL     1       1.251   9.355  19.520  0.00  0.00    +0.000 NA
ATOM     23  C   UNL     1       0.938  10.685  19.731  0.00  0.00    +0.000 A 
ATOM     24  C   UNL     1       0.974  11.701  18.755  0.00  0.00    +0.000 A 
ATOM     25  C   UNL     1       0.633  13.013  19.103  0.00  0.00    +0.000 A 
ATOM     26  C   UNL     1       0.257  13.311  20.408  0.00  0.00    +0.000 A 
ATOM     27 CL   UNL     1      -0.157  14.934  20.814  0.00  0.00    +0.000 Cl
ATOM     28  C   UNL     1       0.209  12.323  21.397  0.00  0.00    +0.000 A 
ATOM     29  C   UNL     1       0.559  11.007  21.036  0.00  0.00    +0.000 A 
ATOM     30  S   UNL     1       0.617   9.575  22.004  0.00  0.00    +0.000 S 
ENDBRANCH  20  21
ENDBRANCH   6  19
TORSDOF 6
ENDMDL
MODEL 7
REMARK VINA RESULT:      -7.9      0.636      2.503
REMARK  Name = 
REMARK  8 active torsions:
REMARK  status: ('A' for Active; 'I' for Inactive)
REMARK    1  A    between atoms: C_1  and  O_2
REMARK    2  A    between atoms: O_2  and  C_3
REMARK    3  A    between atoms: C_5  and  N_6
REMARK    4  A    between atoms: N_6  and  C_7
REMARK    5  A    between atoms: C_12  and  N_13
REMARK    6  A    between atoms: C_14  and  C_15
REMARK    7  A    between atoms: C_26  and  O_27
REMARK    8  A    between atoms: O_27  and  C_28
REMARK                            x       y       z     vdW  Elec       q    Type
REMARK                         _______ _______ _______ _____ _____    ______ ____
ROOT
ATOM      1  C   UNL     1       2.927   4.899  18.709  0.00  0.00    +0.000 A 
ATOM      2  N   UNL     1       2.959   3.558  18.937  0.00  0.00    +0.000 NA
ATOM      3  C   UNL     1       2.447   3.088  20.089  0.00  0.00    +0.000 A 
ATOM      4  C   UNL     1       1.904   3.898  21.065  0.00  0.00    +0.000 A 
ATOM      5  C   UNL     1       1.878   5.271  20.837  0.00  0.00    +0.000 A 
ATOM      6  C   UNL     1       2.414   5.816  19.658  0.00  0.00    +0.000 A 
ENDROOT
BRANCH   1   7
ATOM      7  N   UNL     1       3.494   5.393  17.498  0.00  0.00    +0.000 N 
ATOM      8  H   UNL     1       2.839   5.151  16.753  0.00  0.00    +0.000 HD
BRANCH   7  11
ATOM      9  C   UNL     1       6.491   4.837  15.315  0.00  0.00    +0.000 A 
ATOM     10  C   UNL     1       5.169   5.043  15.721  0.00  0.00    +0.000 A 
ATOM     11  C   UNL     1       4.817   5.089  17.076  0.00  0.00    +0.000 A 
ATOM     12  C   UNL     1       5.838   4.983  18.025  0.00  0.00    +0.000 A 
ATOM     13  C   UNL     1       7.168   4.773  17.636  0.00  0.00    +0.000 A 
ATOM     14  C   UNL     1       7.489   4.688  16.279  0.00  0.00    +0.000 A 
BRANCH   9  16
ATOM     15  C   UNL     1       6.128   3.713  13.246  0.00  0.00    +0.000 C 
ATOM     16  O   UNL     1       6.671   4.816  13.957  0.00  0.00    +0.000 OA
ENDBRANCH   9  16
BRANCH  13  17
ATOM     17  O   UNL     1       8.061   4.674  18.672  0.00  0.00    +0.000 OA
ATOM     18  C   UNL     1       8.018   5.698  19.660  0.00  0.00    +0.000 C 
ENDBRANCH  13  17
ENDBRANCH   7  11
ENDBRANCH   1   7
BRANCH   6  19
ATOM     19  N   UNL     1       2.337   7.210  19.366  0.00  0.00    +0.000 NA
ATOM     20  C   UNL     1       1.543   7.932  20.098  0.00  0.00    +0.000 C 
BRANCH  20  21
ATOM     21  C   UNL     1       1.264   9.335  19.901  0.00  0.00    +0.000 A 
ATOM     22  N   UNL     1       0.876  10.079  20.916  0.00  0.00    +0.000 NA
ATOM     23  C   UNL     1       0.619  11.369  20.491  0.00  0.00    +0.000 A 
ATOM     24  C   UNL     1       0.170  12.427  21.307  0.00  0.00    +0.000 A 
ATOM     25  C   UNL     1      -0.054  13.689  20.748  0.00  0.00    +0.000 A 
ATOM     26  C   UNL     1       0.169  13.900  19.392  0.00  0.00    +0.000 A 
ATOM     27 CL   UNL     1      -0.116  15.463  18.725  0.00  0.00    +0.000 Cl
ATOM     28  C   UNL     1       0.617  12.869  18.558  0.00  0.00    +0.000 A 
ATOM     29  C   UNL     1       0.835  11.601  19.131  0.00  0.00    +0.000 A 
ATOM     30  S   UNL     1       1.367  10.132  18.391  0.00  0.00    +0.000 S 
ENDBRANCH  20  21
ENDBRANCH   6  19
TORSDOF 6
ENDMDL
MODEL 8
REMARK VINA RESULT:      -7.9      5.041      9.517
REMARK  Name = 
REMARK  8 active torsions:
REMARK  status: ('A' for Active; 'I' for Inactive)
REMARK    1  A    between atoms: C_1  and  O_2
REMARK    2  A    between atoms: O_2  and  C_3
REMARK    3  A    between atoms: C_5  and  N_6
REMARK    4  A    between atoms: N_6  and  C_7
REMARK    5  A    between atoms: C_12  and  N_13
REMARK    6  A    between atoms: C_14  and  C_15
REMARK    7  A    between atoms: C_26  and  O_27
REMARK    8  A    between atoms: O_27  and  C_28
REMARK                            x       y       z     vdW  Elec       q    Type
REMARK                         _______ _______ _______ _____ _____    ______ ____
ROOT
ATOM      1  C   UNL     1      -0.318  10.811  20.759  0.00  0.00    +0.000 A 
ATOM      2  N   UNL     1      -0.988  11.455  21.753  0.00  0.00    +0.000 NA
ATOM      3  C   UNL     1      -0.978  10.921  22.987  0.00  0.00    +0.000 A 
ATOM      4  C   UNL     1      -0.338   9.740  23.299  0.00  0.00    +0.000 A 
ATOM      5  C   UNL     1       0.341   9.075  22.282  0.00  0.00    +0.000 A 
ATOM      6  C   UNL     1       0.350   9.581  20.971  0.00  0.00    +0.000 A 
ENDROOT
BRANCH   1   7
ATOM      7  N   UNL     1      -0.352  11.368  19.447  0.00  0.00    +0.000 N 
ATOM      8  H   UNL     1      -0.014  12.328  19.533  0.00  0.00    +0.000 HD
BRANCH   7  11
ATOM      9  C   UNL     1      -2.700  10.587  16.631  0.00  0.00    +0.000 A 
ATOM     10  C   UNL     1      -1.531  10.681  17.392  0.00  0.00    +0.000 A 
ATOM     11  C   UNL     1      -1.510  11.350  18.623  0.00  0.00    +0.000 A 
ATOM     12  C   UNL     1      -2.712  11.875  19.108  0.00  0.00    +0.000 A 
ATOM     13  C   UNL     1      -3.893  11.793  18.356  0.00  0.00    +0.000 A 
ATOM     14  C   UNL     1      -3.879  11.157  17.111  0.00  0.00    +0.000 A 
BRANCH   9  16
ATOM     15  C   UNL     1      -3.562  10.089  14.466  0.00  0.00    +0.000 C 
ATOM     16  O   UNL     1      -2.556   9.904  15.453  0.00  0.00    +0.000 OA
ENDBRANCH   9  16
BRANCH  13  17
ATOM     17  O   UNL     1      -4.991  12.362  18.947  0.00  0.00    +0.000 OA
ATOM     18  C   UNL     1      -4.905  12.631  20.342  0.00  0.00    +0.000 C 
ENDBRANCH  13  17
ENDBRANCH   7  11
ENDBRANCH   1   7
BRANCH   6  19
ATOM     19  N   UNL     1       1.096   8.959  19.926  0.00  0.00    +0.000 NA
ATOM     20  C   UNL     1       1.649   7.812  20.185  0.00  0.00    +0.000 C 
BRANCH  20  21
ATOM     21  C   UNL     1       2.512   7.076  19.292  0.00  0.00    +0.000 A 
ATOM     22  N   UNL     1       3.086   7.689  18.278  0.00  0.00    +0.000 NA
ATOM     23  C   UNL     1       3.822   6.788  17.531  0.00  0.00    +0.000 A 
ATOM     24  C   UNL     1       4.555   7.093  16.366  0.00  0.00    +0.000 A 
ATOM     25  C   UNL     1       5.259   6.083  15.702  0.00  0.00    +0.000 A 
ATOM     26  C   UNL     1       5.238   4.782  16.193  0.00  0.00    +0.000 A 
ATOM     27 CL   UNL     1       6.111   3.553  15.357  0.00  0.00    +0.000 Cl
ATOM     28  C   UNL     1       4.522   4.450  17.348  0.00  0.00    +0.000 A 
ATOM     29  C   UNL     1       3.813   5.475  18.006  0.00  0.00    +0.000 A 
ATOM     30  S   UNL     1       2.833   5.402  19.428  0.00  0.00    +0.000 S 
ENDBRANCH  20  21
ENDBRANCH   6  19
TORSDOF 6
ENDMDL
MODEL 9
REMARK VINA RESULT:      -7.8      4.960      9.507
REMARK  Name = 
REMARK  8 active torsions:
REMARK  status: ('A' for Active; 'I' for Inactive)
REMARK    1  A    between atoms: C_1  and  O_2
REMARK    2  A    between atoms: O_2  and  C_3
REMARK    3  A    between atoms: C_5  and  N_6
REMARK    4  A    between atoms: N_6  and  C_7
REMARK    5  A    between atoms: C_12  and  N_13
REMARK    6  A    between atoms: C_14  and  C_15
REMARK    7  A    between atoms: C_26  and  O_27
REMARK    8  A    between atoms: O_27  and  C_28
REMARK                            x       y       z     vdW  Elec       q    Type
REMARK                         _______ _______ _______ _____ _____    ______ ____
ROOT
ATOM      1  C   UNL     1      -0.228  10.721  20.743  0.00  0.00    +0.000 A 
ATOM      2  N   UNL     1      -0.948  11.267  21.760  0.00  0.00    +0.000 NA
ATOM      3  C   UNL     1      -0.859  10.711  22.982  0.00  0.00    +0.000 A 
ATOM      4  C   UNL     1      -0.089   9.602  23.258  0.00  0.00    +0.000 A 
ATOM      5  C   UNL     1       0.642   9.037  22.217  0.00  0.00    +0.000 A 
ATOM      6  C   UNL     1       0.574   9.568  20.918  0.00  0.00    +0.000 A 
ENDROOT
BRANCH   1   7
ATOM      7  N   UNL     1      -0.345  11.299  19.445  0.00  0.00    +0.000 N 
ATOM      8  H   UNL     1      -0.040  12.269  19.532  0.00  0.00    +0.000 HD
BRANCH   7  11
ATOM      9  C   UNL     1      -2.860  10.318  16.843  0.00  0.00    +0.000 A 
ATOM     10  C   UNL     1      -1.654  10.435  17.541  0.00  0.00    +0.000 A 
ATOM     11  C   UNL     1      -1.539  11.249  18.675  0.00  0.00    +0.000 A 
ATOM     12  C   UNL     1      -2.685  11.905  19.134  0.00  0.00    +0.000 A 
ATOM     13  C   UNL     1      -3.902  11.802  18.445  0.00  0.00    +0.000 A 
ATOM     14  C   UNL     1      -3.982  11.016  17.292  0.00  0.00    +0.000 A 
BRANCH   9  16
ATOM     15  C   UNL     1      -3.058  10.063  14.483  0.00  0.00    +0.000 C 
ATOM     16  O   UNL     1      -2.809   9.485  15.757  0.00  0.00    +0.000 OA
ENDBRANCH   9  16
BRANCH  13  17
ATOM     17  O   UNL     1      -4.938  12.507  19.000  0.00  0.00    +0.000 OA
ATOM     18  C   UNL     1      -5.228  12.255  20.371  0.00  0.00    +0.000 C 
ENDBRANCH  13  17
ENDBRANCH   7  11
ENDBRANCH   1   7
BRANCH   6  19
ATOM     19  N   UNL     1       1.367   9.054  19.848  0.00  0.00    +0.000 NA
ATOM     20  C   UNL     1       1.649   7.786  19.867  0.00  0.00    +0.000 C 
BRANCH  20  21
ATOM     21  C   UNL     1       2.507   7.104  18.928  0.00  0.00    +0.000 A 
ATOM     22  N   UNL     1       2.675   5.801  19.016  0.00  0.00    +0.000 NA
ATOM     23  C   UNL     1       3.569   5.369  18.054  0.00  0.00    +0.000 A 
ATOM     24  C   UNL     1       3.995   4.039  17.869  0.00  0.00    +0.000 A 
ATOM     25  C   UNL     1       4.909   3.736  16.854  0.00  0.00    +0.000 A 
ATOM     26  C   UNL     1       5.393   4.745  16.029  0.00  0.00    +0.000 A 
ATOM     27 CL   UNL     1       6.520   4.349  14.787  0.00  0.00    +0.000 Cl
ATOM     28  C   UNL     1       4.986   6.074  16.188  0.00  0.00    +0.000 A 
ATOM     29  C   UNL     1       4.069   6.367  17.216  0.00  0.00    +0.000 A 
ATOM     30  S   UNL     1       3.382   7.884  17.683  0.00  0.00    +0.000 S 
ENDBRANCH  20  21
ENDBRANCH   6  19
TORSDOF 6
ENDMDL
