MODEL 1
REMARK VINA RESULT:      -8.3      0.000      0.000
REMARK  Name = 
REMARK  5 active torsions:
REMARK  status: ('A' for Active; 'I' for Inactive)
REMARK    1  A    between atoms: C_1  and  O_2
REMARK    2  A    between atoms: O_2  and  C_3
REMARK    3  A    between atoms: C_6  and  N_7
REMARK    4  A    between atoms: N_7  and  C_8
REMARK    5  A    between atoms: C_10  and  C_11
REMARK                            x       y       z     vdW  Elec       q    Type
REMARK                         _______ _______ _______ _____ _____    ______ ____
ROOT
ATOM      1  C   UNL     1       3.104   5.593  19.100  0.00  0.00    +0.000 A 
ATOM      2  N   UNL     1       4.092   5.742  18.194  0.00  0.00    +0.000 NA
ATOM      3  C   UNL     1       4.312   4.746  17.326  0.00  0.00    +0.000 A 
ATOM      4  N   UNL     1       3.606   3.607  17.294  0.00  0.00    +0.000 NA
ATOM      5  C   UNL     1       2.628   3.464  18.199  0.00  0.00    +0.000 A 
ATOM      6  C   UNL     1       1.839   2.327  18.207  0.00  0.00    +0.000 A 
ATOM      7  N   UNL     1       0.818   2.070  19.065  0.00  0.00    +0.000 NA
ATOM      8  C   UNL     1       0.558   3.016  19.984  0.00  0.00    +0.000 A 
ATOM      9  C   UNL     1       1.270   4.197  20.075  0.00  0.00    +0.000 A 
ATOM     10  C   UNL     1       2.329   4.428  19.162  0.00  0.00    +0.000 A 
ENDROOT
BRANCH   3  11
ATOM     11  C   UNL     1       5.399   4.907  16.345  0.00  0.00    +0.000 A 
ATOM     12  C   UNL     1       6.514   5.719  16.606  0.00  0.00    +0.000 A 
ATOM     13  C   UNL     1       7.520   5.818  15.658  0.00  0.00    +0.000 A 
ATOM     14  N   UNL     1       7.498   5.179  14.469  0.00  0.00    +0.000 NA
ATOM     15  C   UNL     1       6.421   4.410  14.220  0.00  0.00    +0.000 A 
ATOM     16  C   UNL     1       5.370   4.247  15.107  0.00  0.00    +0.000 A 
ENDBRANCH   3  11
BRANCH   1  17
ATOM     17  N   UNL     1       2.827   6.671  19.979  0.00  0.00    +0.000 N 
ATOM     18  H   UNL     1       3.607   6.859  20.595  0.00  0.00    +0.000 HD
BRANCH  17  22
ATOM     19  C   UNL     1       0.487  10.059  19.005  0.00  0.00    +0.000 A 
ATOM     20  C   UNL     1       1.279   9.447  18.038  0.00  0.00    +0.000 A 
ATOM     21  C   UNL     1       2.040   8.324  18.360  0.00  0.00    +0.000 A 
ATOM     22  C   UNL     1       2.052   7.804  19.661  0.00  0.00    +0.000 A 
ATOM     23  C   UNL     1       1.246   8.421  20.624  0.00  0.00    +0.000 A 
ATOM     24  C   UNL     1       0.474   9.548  20.303  0.00  0.00    +0.000 A 
BRANCH  19  26
ATOM     25  C   UNL     1      -1.591  10.987  18.374  0.00  0.00    +0.000 C 
ATOM     26  O   UNL     1      -0.195  11.162  18.573  0.00  0.00    +0.000 OA
ENDBRANCH  19  26
ENDBRANCH  17  22
ENDBRANCH   1  17
TORSDOF 4
ENDMDL
MODEL 2
REMARK VINA RESULT:      -8.3      0.169      1.352
REMARK  Name = 
REMARK  5 active torsions:
REMARK  status: ('A' for Active; 'I' for Inactive)
REMARK    1  A    between atoms: C_1  and  O_2
REMARK    2  A    between atoms: O_2  and  C_3
REMARK    3  A    between atoms: C_6  and  N_7
REMARK    4  A    between atoms: N_7  and  C_8
REMARK    5  A    between atoms: C_10  and  C_11
REMARK                            x       y       z     vdW  Elec       q    Type
REMARK                         _______ _______ _______ _____ _____    ______ ____
ROOT
ATOM      1  C   UNL     1       3.129   5.527  19.056  0.00  0.00    +0.000 A 
ATOM      2  N   UNL     1       4.121   5.664  18.154  0.00  0.00    +0.000 NA
ATOM      3  C   UNL     1       4.342   4.658  17.297  0.00  0.00    +0.000 A 
ATOM      4  N   UNL     1       3.632   3.521  17.274  0.00  0.00    +0.000 NA
ATOM      5  C   UNL     1       2.649   3.391  18.175  0.00  0.00    +0.000 A 
ATOM      6  C   UNL     1       1.855   2.257  18.190  0.00  0.00    +0.000 A 
ATOM      7  N   UNL     1       0.830   2.013  19.046  0.00  0.00    +0.000 NA
ATOM      8  C   UNL     1       0.568   2.969  19.953  0.00  0.00    +0.000 A 
ATOM      9  C   UNL     1       1.284   4.148  20.036  0.00  0.00    +0.000 A 
ATOM     10  C   UNL     1       2.349   4.366  19.126  0.00  0.00    +0.000 A 
ENDROOT
BRANCH   3  11
ATOM     11  C   UNL     1       5.435   4.805  16.321  0.00  0.00    +0.000 A 
ATOM     12  C   UNL     1       5.369   4.220  15.046  0.00  0.00    +0.000 A 
ATOM     13  C   UNL     1       6.416   4.408  14.157  0.00  0.00    +0.000 A 
ATOM     14  N   UNL     1       7.524   5.125  14.441  0.00  0.00    +0.000 NA
ATOM     15  C   UNL     1       7.585   5.676  15.668  0.00  0.00    +0.000 A 
ATOM     16  C   UNL     1       6.589   5.545  16.621  0.00  0.00    +0.000 A 
ENDBRANCH   3  11
BRANCH   1  17
ATOM     17  N   UNL     1       2.851   6.615  19.923  0.00  0.00    +0.000 N 
ATOM     18  H   UNL     1       3.621   6.794  20.554  0.00  0.00    +0.000 HD
BRANCH  17  22
ATOM     19  C   UNL     1       0.618  10.066  18.918  0.00  0.00    +0.000 A 
ATOM     20  C   UNL     1       0.599   9.567  20.217  0.00  0.00    +0.000 A 
ATOM     21  C   UNL     1       1.345   8.436  20.547  0.00  0.00    +0.000 A 
ATOM     22  C   UNL     1       2.102   7.759  19.581  0.00  0.00    +0.000 A 
ATOM     23  C   UNL     1       2.123   8.274  18.281  0.00  0.00    +0.000 A 
ATOM     24  C   UNL     1       1.377   9.415  17.946  0.00  0.00    +0.000 A 
BRANCH  19  26
ATOM     25  C   UNL     1      -1.547  11.005  19.025  0.00  0.00    +0.000 C 
ATOM     26  O   UNL     1      -0.169  11.165  18.715  0.00  0.00    +0.000 OA
ENDBRANCH  19  26
ENDBRANCH  17  22
ENDBRANCH   1  17
TORSDOF 4
ENDMDL
MODEL 3
REMARK VINA RESULT:      -8.1      2.837      6.511
REMARK  Name = 
REMARK  5 active torsions:
REMARK  status: ('A' for Active; 'I' for Inactive)
REMARK    1  A    between atoms: C_1  and  O_2
REMARK    2  A    between atoms: O_2  and  C_3
REMARK    3  A    between atoms: C_6  and  N_7
REMARK    4  A    between atoms: N_7  and  C_8
REMARK    5  A    between atoms: C_10  and  C_11
REMARK                            x       y       z     vdW  Elec       q    Type
REMARK                         _______ _______ _______ _____ _____    ______ ____
ROOT
ATOM      1  C   UNL     1       4.202   4.901  19.326  0.00  0.00    +0.000 A 
ATOM      2  N   UNL     1       3.746   6.141  19.058  0.00  0.00    +0.000 NA
ATOM      3  C   UNL     1       2.577   6.516  19.593  0.00  0.00    +0.000 A 
ATOM      4  N   UNL     1       1.831   5.737  20.388  0.00  0.00    +0.000 NA
ATOM      5  C   UNL     1       2.288   4.505  20.648  0.00  0.00    +0.000 A 
ATOM      6  C   UNL     1       1.585   3.656  21.485  0.00  0.00    +0.000 A 
ATOM      7  N   UNL     1       1.948   2.393  21.828  0.00  0.00    +0.000 NA
ATOM      8  C   UNL     1       3.099   1.939  21.304  0.00  0.00    +0.000 A 
ATOM      9  C   UNL     1       3.894   2.692  20.461  0.00  0.00    +0.000 A 
ATOM     10  C   UNL     1       3.481   4.005  20.125  0.00  0.00    +0.000 A 
ENDROOT
BRANCH   3  11
ATOM     11  C   UNL     1       2.076   7.867  19.289  0.00  0.00    +0.000 A 
ATOM     12  C   UNL     1       2.311   8.479  18.048  0.00  0.00    +0.000 A 
ATOM     13  C   UNL     1       1.798   9.744  17.805  0.00  0.00    +0.000 A 
ATOM     14  N   UNL     1       1.075  10.447  18.702  0.00  0.00    +0.000 NA
ATOM     15  C   UNL     1       0.860   9.858  19.894  0.00  0.00    +0.000 A 
ATOM     16  C   UNL     1       1.331   8.598  20.226  0.00  0.00    +0.000 A 
ENDBRANCH   3  11
BRANCH   1  17
ATOM     17  N   UNL     1       5.469   4.523  18.813  0.00  0.00    +0.000 N 
ATOM     18  H   UNL     1       5.881   3.772  19.351  0.00  0.00    +0.000 HD
BRANCH  17  22
ATOM     19  C   UNL     1       6.535   4.548  14.717  0.00  0.00    +0.000 A 
ATOM     20  C   UNL     1       5.246   4.197  15.109  0.00  0.00    +0.000 A 
ATOM     21  C   UNL     1       4.896   4.201  16.458  0.00  0.00    +0.000 A 
ATOM     22  C   UNL     1       5.831   4.525  17.450  0.00  0.00    +0.000 A 
ATOM     23  C   UNL     1       7.121   4.886  17.046  0.00  0.00    +0.000 A 
ATOM     24  C   UNL     1       7.476   4.888  15.689  0.00  0.00    +0.000 A 
BRANCH  19  26
ATOM     25  C   UNL     1       6.082   3.449  12.676  0.00  0.00    +0.000 C 
ATOM     26  O   UNL     1       6.761   4.486  13.371  0.00  0.00    +0.000 OA
ENDBRANCH  19  26
ENDBRANCH  17  22
ENDBRANCH   1  17
TORSDOF 4
ENDMDL
MODEL 4
REMARK VINA RESULT:      -8.1      2.856      6.518
REMARK  Name = 
REMARK  5 active torsions:
REMARK  status: ('A' for Active; 'I' for Inactive)
REMARK    1  A    between atoms: C_1  and  O_2
REMARK    2  A    between atoms: O_2  and  C_3
REMARK    3  A    between atoms: C_6  and  N_7
REMARK    4  A    between atoms: N_7  and  C_8
REMARK    5  A    between atoms: C_10  and  C_11
REMARK                            x       y       z     vdW  Elec       q    Type
REMARK                         _______ _______ _______ _____ _____    ______ ____
ROOT
ATOM      1  C   UNL     1       4.231   4.914  19.262  0.00  0.00    +0.000 A 
ATOM      2  N   UNL     1       3.757   6.149  19.002  0.00  0.00    +0.000 NA
ATOM      3  C   UNL     1       2.598   6.515  19.566  0.00  0.00    +0.000 A 
ATOM      4  N   UNL     1       1.880   5.732  20.382  0.00  0.00    +0.000 NA
ATOM      5  C   UNL     1       2.355   4.505  20.634  0.00  0.00    +0.000 A 
ATOM      6  C   UNL     1       1.681   3.652  21.491  0.00  0.00    +0.000 A 
ATOM      7  N   UNL     1       2.064   2.394  21.829  0.00  0.00    +0.000 NA
ATOM      8  C   UNL     1       3.206   1.948  21.277  0.00  0.00    +0.000 A 
ATOM      9  C   UNL     1       3.972   2.706  20.412  0.00  0.00    +0.000 A 
ATOM     10  C   UNL     1       3.538   4.014  20.082  0.00  0.00    +0.000 A 
ENDROOT
BRANCH   3  11
ATOM     11  C   UNL     1       2.076   7.860  19.270  0.00  0.00    +0.000 A 
ATOM     12  C   UNL     1       1.337   8.589  20.215  0.00  0.00    +0.000 A 
ATOM     13  C   UNL     1       0.888   9.860  19.893  0.00  0.00    +0.000 A 
ATOM     14  N   UNL     1       1.112  10.458  18.704  0.00  0.00    +0.000 NA
ATOM     15  C   UNL     1       1.814   9.750  17.798  0.00  0.00    +0.000 A 
ATOM     16  C   UNL     1       2.305   8.476  18.030  0.00  0.00    +0.000 A 
ENDBRANCH   3  11
BRANCH   1  17
ATOM     17  N   UNL     1       5.488   4.546  18.718  0.00  0.00    +0.000 N 
ATOM     18  H   UNL     1       5.935   3.824  19.267  0.00  0.00    +0.000 HD
BRANCH  17  22
ATOM     19  C   UNL     1       6.452   4.413  14.599  0.00  0.00    +0.000 A 
ATOM     20  C   UNL     1       7.384   4.867  15.528  0.00  0.00    +0.000 A 
ATOM     21  C   UNL     1       7.067   4.899  16.885  0.00  0.00    +0.000 A 
ATOM     22  C   UNL     1       5.802   4.508  17.344  0.00  0.00    +0.000 A 
ATOM     23  C   UNL     1       4.875   4.043  16.404  0.00  0.00    +0.000 A 
ATOM     24  C   UNL     1       5.193   4.005  15.038  0.00  0.00    +0.000 A 
BRANCH  19  26
ATOM     25  C   UNL     1       6.271   3.504  12.427  0.00  0.00    +0.000 C 
ATOM     26  O   UNL     1       6.875   4.448  13.300  0.00  0.00    +0.000 OA
ENDBRANCH  19  26
ENDBRANCH  17  22
ENDBRANCH   1  17
TORSDOF 4
ENDMDL
MODEL 5
REMARK VINA RESULT:      -7.8      2.828      6.555
REMARK  Name = 
REMARK  5 active torsions:
REMARK  status: ('A' for Active; 'I' for Inactive)
REMARK    1  A    between atoms: C_1  and  O_2
REMARK    2  A    between atoms: O_2  and  C_3
REMARK    3  A    between atoms: C_6  and  N_7
REMARK    4  A    between atoms: N_7  and  C_8
REMARK    5  A    between atoms: C_10  and  C_11
REMARK                            x       y       z     vdW  Elec       q    Type
REMARK                         _______ _______ _______ _____ _____    ______ ____
ROOT
ATOM      1  C   UNL     1       4.142   5.302  19.314  0.00  0.00    +0.000 A 
ATOM      2  N   UNL     1       3.624   6.535  19.143  0.00  0.00    +0.000 NA
ATOM      3  C   UNL     1       2.403   6.783  19.637  0.00  0.00    +0.000 A 
ATOM      4  N   UNL     1       1.664   5.882  20.299  0.00  0.00    +0.000 NA
ATOM      5  C   UNL     1       2.184   4.659  20.463  0.00  0.00    +0.000 A 
ATOM      6  C   UNL     1       1.489   3.687  21.162  0.00  0.00    +0.000 A 
ATOM      7  N   UNL     1       1.912   2.419  21.399  0.00  0.00    +0.000 NA
ATOM      8  C   UNL     1       3.119   2.090  20.907  0.00  0.00    +0.000 A 
ATOM      9  C   UNL     1       3.911   2.972  20.198  0.00  0.00    +0.000 A 
ATOM     10  C   UNL     1       3.435   4.287  19.969  0.00  0.00    +0.000 A 
ENDROOT
BRANCH   3  11
ATOM     11  C   UNL     1       1.834   8.127  19.438  0.00  0.00    +0.000 A 
ATOM     12  C   UNL     1       1.137   8.791  20.459  0.00  0.00    +0.000 A 
ATOM     13  C   UNL     1       0.640  10.064  20.227  0.00  0.00    +0.000 A 
ATOM     14  N   UNL     1       0.778  10.723  19.058  0.00  0.00    +0.000 NA
ATOM     15  C   UNL     1       1.440  10.077  18.078  0.00  0.00    +0.000 A 
ATOM     16  C   UNL     1       1.973   8.806  18.218  0.00  0.00    +0.000 A 
ENDBRANCH   3  11
BRANCH   1  17
ATOM     17  N   UNL     1       5.459   5.054  18.847  0.00  0.00    +0.000 N 
ATOM     18  H   UNL     1       5.991   4.504  19.509  0.00  0.00    +0.000 HD
BRANCH  17  22
ATOM     19  C   UNL     1       6.536   4.473  14.796  0.00  0.00    +0.000 A 
ATOM     20  C   UNL     1       5.202   4.410  15.188  0.00  0.00    +0.000 A 
ATOM     21  C   UNL     1       4.850   4.613  16.521  0.00  0.00    +0.000 A 
ATOM     22  C   UNL     1       5.823   4.853  17.501  0.00  0.00    +0.000 A 
ATOM     23  C   UNL     1       7.161   4.924  17.096  0.00  0.00    +0.000 A 
ATOM     24  C   UNL     1       7.519   4.726  15.754  0.00  0.00    +0.000 A 
BRANCH  19  26
ATOM     25  C   UNL     1       5.749   3.490  12.798  0.00  0.00    +0.000 C 
ATOM     26  O   UNL     1       6.755   4.237  13.468  0.00  0.00    +0.000 OA
ENDBRANCH  19  26
ENDBRANCH  17  22
ENDBRANCH   1  17
TORSDOF 4
ENDMDL
MODEL 6
REMARK VINA RESULT:      -7.8      2.832      6.644
REMARK  Name = 
REMARK  5 active torsions:
REMARK  status: ('A' for Active; 'I' for Inactive)
REMARK    1  A    between atoms: C_1  and  O_2
REMARK    2  A    between atoms: O_2  and  C_3
REMARK    3  A    between atoms: C_6  and  N_7
REMARK    4  A    between atoms: N_7  and  C_8
REMARK    5  A    between atoms: C_10  and  C_11
REMARK                            x       y       z     vdW  Elec       q    Type
REMARK                         _______ _______ _______ _____ _____    ______ ____
ROOT
ATOM      1  C   UNL     1       4.199   5.386  19.202  0.00  0.00    +0.000 A 
ATOM      2  N   UNL     1       3.639   6.605  19.069  0.00  0.00    +0.000 NA
ATOM      3  C   UNL     1       2.443   6.818  19.633  0.00  0.00    +0.000 A 
ATOM      4  N   UNL     1       1.767   5.896  20.331  0.00  0.00    +0.000 NA
ATOM      5  C   UNL     1       2.327   4.686  20.457  0.00  0.00    +0.000 A 
ATOM      6  C   UNL     1       1.700   3.692  21.189  0.00  0.00    +0.000 A 
ATOM      7  N   UNL     1       2.168   2.434  21.393  0.00  0.00    +0.000 NA
ATOM      8  C   UNL     1       3.353   2.140  20.831  0.00  0.00    +0.000 A 
ATOM      9  C   UNL     1       4.080   3.046  20.083  0.00  0.00    +0.000 A 
ATOM     10  C   UNL     1       3.557   4.349  19.891  0.00  0.00    +0.000 A 
ENDROOT
BRANCH   3  11
ATOM     11  C   UNL     1       1.829   8.147  19.476  0.00  0.00    +0.000 A 
ATOM     12  C   UNL     1       1.883   8.846  18.260  0.00  0.00    +0.000 A 
ATOM     13  C   UNL     1       1.269  10.085  18.159  0.00  0.00    +0.000 A 
ATOM     14  N   UNL     1       0.612  10.683  19.176  0.00  0.00    +0.000 NA
ATOM     15  C   UNL     1       0.572  10.012  20.343  0.00  0.00    +0.000 A 
ATOM     16  C   UNL     1       1.153   8.770  20.537  0.00  0.00    +0.000 A 
ENDBRANCH   3  11
BRANCH   1  17
ATOM     17  N   UNL     1       5.493   5.175  18.660  0.00  0.00    +0.000 N 
ATOM     18  H   UNL     1       6.087   4.666  19.300  0.00  0.00    +0.000 HD
BRANCH  17  22
ATOM     19  C   UNL     1       6.372   4.474  14.580  0.00  0.00    +0.000 A 
ATOM     20  C   UNL     1       7.390   4.775  15.480  0.00  0.00    +0.000 A 
ATOM     21  C   UNL     1       7.098   4.994  16.825  0.00  0.00    +0.000 A 
ATOM     22  C   UNL     1       5.780   4.949  17.298  0.00  0.00    +0.000 A 
ATOM     23  C   UNL     1       4.764   4.637  16.388  0.00  0.00    +0.000 A 
ATOM     24  C   UNL     1       5.054   4.411  15.034  0.00  0.00    +0.000 A 
BRANCH  19  26
ATOM     25  C   UNL     1       6.041   3.358  12.525  0.00  0.00    +0.000 C 
ATOM     26  O   UNL     1       6.782   4.301  13.288  0.00  0.00    +0.000 OA
ENDBRANCH  19  26
ENDBRANCH  17  22
ENDBRANCH   1  17
TORSDOF 4
ENDMDL
MODEL 7
REMARK VINA RESULT:      -7.7      2.775      6.498
REMARK  Name = 
REMARK  5 active torsions:
REMARK  status: ('A' for Active; 'I' for Inactive)
REMARK    1  A    between atoms: C_1  and  O_2
REMARK    2  A    between atoms: O_2  and  C_3
REMARK    3  A    between atoms: C_6  and  N_7
REMARK    4  A    between atoms: N_7  and  C_8
REMARK    5  A    between atoms: C_10  and  C_11
REMARK                            x       y       z     vdW  Elec       q    Type
REMARK                         _______ _______ _______ _____ _____    ______ ____
ROOT
ATOM      1  C   UNL     1       3.147   4.538  18.258  0.00  0.00    +0.000 A 
ATOM      2  N   UNL     1       2.829   5.841  18.125  0.00  0.00    +0.000 NA
ATOM      3  C   UNL     1       2.340   6.487  19.191  0.00  0.00    +0.000 A 
ATOM      4  N   UNL     1       2.151   5.920  20.391  0.00  0.00    +0.000 NA
ATOM      5  C   UNL     1       2.466   4.624  20.516  0.00  0.00    +0.000 A 
ATOM      6  C   UNL     1       2.325   3.979  21.733  0.00  0.00    +0.000 A 
ATOM      7  N   UNL     1       2.616   2.677  21.985  0.00  0.00    +0.000 NA
ATOM      8  C   UNL     1       3.086   1.959  20.950  0.00  0.00    +0.000 A 
ATOM      9  C   UNL     1       3.277   2.488  19.689  0.00  0.00    +0.000 A 
ATOM     10  C   UNL     1       2.961   3.852  19.464  0.00  0.00    +0.000 A 
ENDROOT
BRANCH   3  11
ATOM     11  C   UNL     1       1.983   7.908  19.040  0.00  0.00    +0.000 A 
ATOM     12  C   UNL     1       2.239   8.610  17.852  0.00  0.00    +0.000 A 
ATOM     13  C   UNL     1       1.863   9.941  17.754  0.00  0.00    +0.000 A 
ATOM     14  N   UNL     1       1.258  10.626  18.747  0.00  0.00    +0.000 NA
ATOM     15  C   UNL     1       1.023   9.949  19.888  0.00  0.00    +0.000 A 
ATOM     16  C   UNL     1       1.361   8.619  20.077  0.00  0.00    +0.000 A 
ENDBRANCH   3  11
BRANCH   1  17
ATOM     17  N   UNL     1       3.723   3.868  17.149  0.00  0.00    +0.000 N 
ATOM     18  H   UNL     1       3.020   3.414  16.580  0.00  0.00    +0.000 HD
BRANCH  17  22
ATOM     19  C   UNL     1       7.108   5.190  14.979  0.00  0.00    +0.000 A 
ATOM     20  C   UNL     1       6.077   4.512  14.335  0.00  0.00    +0.000 A 
ATOM     21  C   UNL     1       4.958   4.088  15.050  0.00  0.00    +0.000 A 
ATOM     22  C   UNL     1       4.856   4.303  16.431  0.00  0.00    +0.000 A 
ATOM     23  C   UNL     1       5.893   4.993  17.069  0.00  0.00    +0.000 A 
ATOM     24  C   UNL     1       7.018   5.426  16.351  0.00  0.00    +0.000 A 
BRANCH  19  26
ATOM     25  C   UNL     1       7.954   5.350  12.780  0.00  0.00    +0.000 C 
ATOM     26  O   UNL     1       8.157   5.535  14.174  0.00  0.00    +0.000 OA
ENDBRANCH  19  26
ENDBRANCH  17  22
ENDBRANCH   1  17
TORSDOF 4
ENDMDL
MODEL 8
REMARK VINA RESULT:      -7.7      2.661      5.581
REMARK  Name = 
REMARK  5 active torsions:
REMARK  status: ('A' for Active; 'I' for Inactive)
REMARK    1  A    between atoms: C_1  and  O_2
REMARK    2  A    between atoms: O_2  and  C_3
REMARK    3  A    between atoms: C_6  and  N_7
REMARK    4  A    between atoms: N_7  and  C_8
REMARK    5  A    between atoms: C_10  and  C_11
REMARK                            x       y       z     vdW  Elec       q    Type
REMARK                         _______ _______ _______ _____ _____    ______ ____
ROOT
ATOM      1  C   UNL     1       0.587   9.954  18.975  0.00  0.00    +0.000 A 
ATOM      2  N   UNL     1       1.302   9.010  18.329  0.00  0.00    +0.000 NA
ATOM      3  C   UNL     1       1.924   8.076  19.060  0.00  0.00    +0.000 A 
ATOM      4  N   UNL     1       1.875   8.012  20.397  0.00  0.00    +0.000 NA
ATOM      5  C   UNL     1       1.165   8.954  21.033  0.00  0.00    +0.000 A 
ATOM      6  C   UNL     1       1.047   8.934  22.412  0.00  0.00    +0.000 A 
ATOM      7  N   UNL     1       0.353   9.825  23.166  0.00  0.00    +0.000 NA
ATOM      8  C   UNL     1      -0.274  10.810  22.501  0.00  0.00    +0.000 A 
ATOM      9  C   UNL     1      -0.237  10.935  21.125  0.00  0.00    +0.000 A 
ATOM     10  C   UNL     1       0.499   9.986  20.373  0.00  0.00    +0.000 A 
ENDROOT
BRANCH   3  11
ATOM     11  C   UNL     1       2.714   7.054  18.352  0.00  0.00    +0.000 A 
ATOM     12  C   UNL     1       3.844   7.391  17.591  0.00  0.00    +0.000 A 
ATOM     13  C   UNL     1       4.565   6.387  16.963  0.00  0.00    +0.000 A 
ATOM     14  N   UNL     1       4.244   5.078  17.028  0.00  0.00    +0.000 NA
ATOM     15  C   UNL     1       3.153   4.761  17.752  0.00  0.00    +0.000 A 
ATOM     16  C   UNL     1       2.373   5.694  18.416  0.00  0.00    +0.000 A 
ENDBRANCH   3  11
BRANCH   1  17
ATOM     17  N   UNL     1      -0.124  10.908  18.203  0.00  0.00    +0.000 N 
ATOM     18  H   UNL     1       0.416  11.220  17.407  0.00  0.00    +0.000 HD
BRANCH  17  22
ATOM     19  C   UNL     1      -4.308  10.956  17.573  0.00  0.00    +0.000 A 
ATOM     20  C   UNL     1      -3.710  11.892  18.411  0.00  0.00    +0.000 A 
ATOM     21  C   UNL     1      -2.330  11.880  18.608  0.00  0.00    +0.000 A 
ATOM     22  C   UNL     1      -1.518  10.915  17.997  0.00  0.00    +0.000 A 
ATOM     23  C   UNL     1      -2.127   9.984  17.148  0.00  0.00    +0.000 A 
ATOM     24  C   UNL     1      -3.515   9.996  16.943  0.00  0.00    +0.000 A 
BRANCH  19  26
ATOM     25  C   UNL     1      -6.400  10.657  18.627  0.00  0.00    +0.000 C 
ATOM     26  O   UNL     1      -5.667  11.058  17.478  0.00  0.00    +0.000 OA
ENDBRANCH  19  26
ENDBRANCH  17  22
ENDBRANCH   1  17
TORSDOF 4
ENDMDL
MODEL 9
REMARK VINA RESULT:      -7.6      2.726      6.724
REMARK  Name = 
REMARK  5 active torsions:
REMARK  status: ('A' for Active; 'I' for Inactive)
REMARK    1  A    between atoms: C_1  and  O_2
REMARK    2  A    between atoms: O_2  and  C_3
REMARK    3  A    between atoms: C_6  and  N_7
REMARK    4  A    between atoms: N_7  and  C_8
REMARK    5  A    between atoms: C_10  and  C_11
REMARK                            x       y       z     vdW  Elec       q    Type
REMARK                         _______ _______ _______ _____ _____    ______ ____
ROOT
ATOM      1  C   UNL     1       3.869   5.557  19.443  0.00  0.00    +0.000 A 
ATOM      2  N   UNL     1       3.355   6.782  19.674  0.00  0.00    +0.000 NA
ATOM      3  C   UNL     1       2.093   6.869  20.113  0.00  0.00    +0.000 A 
ATOM      4  N   UNL     1       1.306   5.810  20.348  0.00  0.00    +0.000 NA
ATOM      5  C   UNL     1       1.821   4.596  20.115  0.00  0.00    +0.000 A 
ATOM      6  C   UNL     1       1.075   3.456  20.362  0.00  0.00    +0.000 A 
ATOM      7  N   UNL     1       1.487   2.176  20.173  0.00  0.00    +0.000 NA
ATOM      8  C   UNL     1       2.736   2.014  19.705  0.00  0.00    +0.000 A 
ATOM      9  C   UNL     1       3.581   3.070  19.425  0.00  0.00    +0.000 A 
ATOM     10  C   UNL     1       3.114   4.392  19.634  0.00  0.00    +0.000 A 
ENDROOT
BRANCH   3  11
ATOM     11  C   UNL     1       1.531   8.209  20.352  0.00  0.00    +0.000 A 
ATOM     12  C   UNL     1       1.374   9.139  19.313  0.00  0.00    +0.000 A 
ATOM     13  C   UNL     1       0.819  10.379  19.588  0.00  0.00    +0.000 A 
ATOM     14  N   UNL     1       0.416  10.766  20.817  0.00  0.00    +0.000 NA
ATOM     15  C   UNL     1       0.579   9.873  21.812  0.00  0.00    +0.000 A 
ATOM     16  C   UNL     1       1.120   8.611  21.632  0.00  0.00    +0.000 A 
ENDBRANCH   3  11
BRANCH   1  17
ATOM     17  N   UNL     1       5.224   5.459  19.038  0.00  0.00    +0.000 N 
ATOM     18  H   UNL     1       5.789   4.991  19.735  0.00  0.00    +0.000 HD
BRANCH  17  22
ATOM     19  C   UNL     1       6.559   4.935  15.056  0.00  0.00    +0.000 A 
ATOM     20  C   UNL     1       5.378   5.623  15.320  0.00  0.00    +0.000 A 
ATOM     21  C   UNL     1       4.948   5.803  16.633  0.00  0.00    +0.000 A 
ATOM     22  C   UNL     1       5.668   5.275  17.713  0.00  0.00    +0.000 A 
ATOM     23  C   UNL     1       6.859   4.592  17.439  0.00  0.00    +0.000 A 
ATOM     24  C   UNL     1       7.298   4.413  16.118  0.00  0.00    +0.000 A 
BRANCH  19  26
ATOM     25  C   UNL     1       6.270   3.700  13.063  0.00  0.00    +0.000 C 
ATOM     26  O   UNL     1       6.863   4.807  13.730  0.00  0.00    +0.000 OA
ENDBRANCH  19  26
ENDBRANCH  17  22
ENDBRANCH   1  17
TORSDOF 4
ENDMDL
