MODEL 1
REMARK VINA RESULT:      -8.1      0.000      0.000
REMARK  Name = 
REMARK  9 active torsions:
REMARK  status: ('A' for Active; 'I' for Inactive)
REMARK    1  A    between atoms: C_1  and  O_2
REMARK    2  A    between atoms: O_2  and  C_3
REMARK    3  A    between atoms: C_6  and  C_7
REMARK    4  A    between atoms: N_13  and  C_14
REMARK    5  A    between atoms: C_14  and  C_15
REMARK    6  A    between atoms: C_15  and  C_16
REMARK    7  A    between atoms: C_16  and  C_17
REMARK    8  A    between atoms: C_17  and  C_18
REMARK    9  A    between atoms: N_20  and  O_21
REMARK                            x       y       z     vdW  Elec       q    Type
REMARK                         _______ _______ _______ _____ _____    ______ ____
ROOT
ATOM      1  C   UNL     1       1.037  11.228  18.916  0.00  0.00    +0.000 A 
ATOM      2  N   UNL     1      -0.192  11.362  19.519  0.00  0.00    +0.000 NA
ATOM      3  C   UNL     1      -0.815  12.501  19.701  0.00  0.00    +0.000 A 
ATOM      4  N   UNL     1      -2.084  12.669  19.135  0.00  0.00    +0.000 N 
ATOM      5  C   UNL     1      -2.763  11.631  18.562  0.00  0.00    +0.000 C 
ATOM      6  O   UNL     1      -2.457  10.442  18.564  0.00  0.00    +0.000 OA
ATOM      7  N   UNL     1      -3.926  12.045  17.961  0.00  0.00    +0.000 N 
ATOM      8  C   UNL     1      -0.087  13.604  19.946  0.00  0.00    +0.000 A 
ATOM      9  C   UNL     1       1.013  13.662  19.080  0.00  0.00    +0.000 A 
ATOM     10  C   UNL     1       1.608  12.491  18.551  0.00  0.00    +0.000 A 
ATOM     11  N   UNL     1       2.682  12.984  17.810  0.00  0.00    +0.000 N 
ATOM     12  C   UNL     1       2.816  14.376  17.954  0.00  0.00    +0.000 A 
ATOM     13  C   UNL     1       3.763  15.320  17.507  0.00  0.00    +0.000 A 
ATOM     14  C   UNL     1       3.599  16.673  17.898  0.00  0.00    +0.000 A 
ATOM     15  C   UNL     1       2.507  17.096  18.645  0.00  0.00    +0.000 A 
ATOM     16  C   UNL     1       1.566  16.164  19.054  0.00  0.00    +0.000 A 
ATOM     17  C   UNL     1       1.756  14.804  18.731  0.00  0.00    +0.000 A 
ATOM     18  H   UNL     1      -2.345  13.609  18.893  0.00  0.00    +0.000 HD
ATOM     19  H   UNL     1      -4.350  12.868  18.358  0.00  0.00    +0.000 HD
ATOM     20  H   UNL     1       3.289  12.426  17.230  0.00  0.00    +0.000 HD
ENDROOT
BRANCH   1  24
ATOM     21  C   UNL     1       2.291   7.049  19.358  0.00  0.00    +0.000 A 
ATOM     22  C   UNL     1       1.669   7.761  20.353  0.00  0.00    +0.000 A 
ATOM     23  C   UNL     1       1.199   9.041  20.089  0.00  0.00    +0.000 A 
ATOM     24  C   UNL     1       1.356   9.754  18.855  0.00  0.00    +0.000 A 
ATOM     25  C   UNL     1       1.897   8.970  17.831  0.00  0.00    +0.000 A 
ATOM     26  C   UNL     1       2.361   7.626  18.083  0.00  0.00    +0.000 A 
BRANCH  21  28
ATOM     27  C   UNL     1       2.027   5.083  20.703  0.00  0.00    +0.000 C 
ATOM     28  O   UNL     1       2.793   5.869  19.816  0.00  0.00    +0.000 OA
ENDBRANCH  21  28
ENDBRANCH   1  24
BRANCH   7  29
ATOM     29  C   UNL     1      -4.788  10.983  17.494  0.00  0.00    +0.000 C 
BRANCH  29  30
ATOM     30  C   UNL     1      -6.246  11.235  17.804  0.00  0.00    +0.000 C 
BRANCH  30  31
ATOM     31  C   UNL     1      -6.632  10.706  19.181  0.00  0.00    +0.000 C 
BRANCH  31  32
ATOM     32  C   UNL     1      -7.091  11.849  20.081  0.00  0.00    +0.000 C 
BRANCH  32  33
ATOM     33  C   UNL     1      -6.030  12.233  21.087  0.00  0.00    +0.000 C 
ATOM     34  O   UNL     1      -4.914  12.657  20.801  0.00  0.00    +0.000 OA
ATOM     35  N   UNL     1      -6.436  12.049  22.394  0.00  0.00    +0.000 N 
ATOM     36  H   UNL     1      -7.407  12.017  22.656  0.00  0.00    +0.000 HD
BRANCH  35  37
ATOM     37  O   UNL     1      -5.510  12.500  23.356  0.00  0.00    +0.000 OA
ATOM     38  H   UNL     1      -4.795  12.885  22.803  0.00  0.00    +0.000 HD
ENDBRANCH  35  37
ENDBRANCH  32  33
ENDBRANCH  31  32
ENDBRANCH  30  31
ENDBRANCH  29  30
ENDBRANCH   7  29
TORSDOF 8
ENDMDL
MODEL 2
REMARK VINA RESULT:      -8.0      2.657      4.131
REMARK  Name = 
REMARK  9 active torsions:
REMARK  status: ('A' for Active; 'I' for Inactive)
REMARK    1  A    between atoms: C_1  and  O_2
REMARK    2  A    between atoms: O_2  and  C_3
REMARK    3  A    between atoms: C_6  and  C_7
REMARK    4  A    between atoms: N_13  and  C_14
REMARK    5  A    between atoms: C_14  and  C_15
REMARK    6  A    between atoms: C_15  and  C_16
REMARK    7  A    between atoms: C_16  and  C_17
REMARK    8  A    between atoms: C_17  and  C_18
REMARK    9  A    between atoms: N_20  and  O_21
REMARK                            x       y       z     vdW  Elec       q    Type
REMARK                         _______ _______ _______ _____ _____    ______ ____
ROOT
ATOM      1  C   UNL     1       1.293  11.114  18.856  0.00  0.00    +0.000 A 
ATOM      2  N   UNL     1      -0.001  11.264  19.300  0.00  0.00    +0.000 NA
ATOM      3  C   UNL     1      -0.619  12.413  19.422  0.00  0.00    +0.000 A 
ATOM      4  N   UNL     1      -1.801  12.618  18.701  0.00  0.00    +0.000 N 
ATOM      5  C   UNL     1      -2.421  11.604  18.025  0.00  0.00    +0.000 C 
ATOM      6  O   UNL     1      -2.141  10.410  18.043  0.00  0.00    +0.000 OA
ATOM      7  N   UNL     1      -3.489  12.053  17.288  0.00  0.00    +0.000 N 
ATOM      8  C   UNL     1       0.092  13.496  19.780  0.00  0.00    +0.000 A 
ATOM      9  C   UNL     1       1.296  13.545  19.063  0.00  0.00    +0.000 A 
ATOM     10  C   UNL     1       1.931  12.369  18.592  0.00  0.00    +0.000 A 
ATOM     11  N   UNL     1       3.100  12.852  18.005  0.00  0.00    +0.000 N 
ATOM     12  C   UNL     1       3.242  14.237  18.192  0.00  0.00    +0.000 A 
ATOM     13  C   UNL     1       4.257  15.168  17.889  0.00  0.00    +0.000 A 
ATOM     14  C   UNL     1       4.070  16.518  18.281  0.00  0.00    +0.000 A 
ATOM     15  C   UNL     1       2.899  16.952  18.891  0.00  0.00    +0.000 A 
ATOM     16  C   UNL     1       1.896  16.034  19.157  0.00  0.00    +0.000 A 
ATOM     17  C   UNL     1       2.099  14.676  18.835  0.00  0.00    +0.000 A 
ATOM     18  H   UNL     1      -2.011  13.567  18.446  0.00  0.00    +0.000 HD
ATOM     19  H   UNL     1      -3.944  12.880  17.644  0.00  0.00    +0.000 HD
ATOM     20  H   UNL     1       3.766  12.290  17.496  0.00  0.00    +0.000 HD
ENDROOT
BRANCH   1  24
ATOM     21  C   UNL     1       2.445   6.911  19.354  0.00  0.00    +0.000 A 
ATOM     22  C   UNL     1       1.779   7.631  20.314  0.00  0.00    +0.000 A 
ATOM     23  C   UNL     1       1.348   8.921  20.028  0.00  0.00    +0.000 A 
ATOM     24  C   UNL     1       1.589   9.634  18.808  0.00  0.00    +0.000 A 
ATOM     25  C   UNL     1       2.175   8.844  17.814  0.00  0.00    +0.000 A 
ATOM     26  C   UNL     1       2.599   7.491  18.087  0.00  0.00    +0.000 A 
BRANCH  21  28
ATOM     27  C   UNL     1       2.032   4.897  20.586  0.00  0.00    +0.000 C 
ATOM     28  O   UNL     1       2.898   5.721  19.836  0.00  0.00    +0.000 OA
ENDBRANCH  21  28
ENDBRANCH   1  24
BRANCH   7  29
ATOM     29  C   UNL     1      -4.304  11.019  16.694  0.00  0.00    +0.000 C 
BRANCH  29  30
ATOM     30  C   UNL     1      -4.164  10.957  15.190  0.00  0.00    +0.000 C 
BRANCH  30  31
ATOM     31  C   UNL     1      -3.330   9.760  14.747  0.00  0.00    +0.000 C 
BRANCH  31  32
ATOM     32  C   UNL     1      -3.188   9.743  13.228  0.00  0.00    +0.000 C 
BRANCH  32  33
ATOM     33  C   UNL     1      -4.530   9.636  12.540  0.00  0.00    +0.000 C 
ATOM     34  O   UNL     1      -5.475   8.966  12.947  0.00  0.00    +0.000 OA
ATOM     35  N   UNL     1      -4.597  10.372  11.374  0.00  0.00    +0.000 N 
ATOM     36  H   UNL     1      -3.986  11.151  11.193  0.00  0.00    +0.000 HD
BRANCH  35  37
ATOM     37  O   UNL     1      -5.869  10.380  10.766  0.00  0.00    +0.000 OA
ATOM     38  H   UNL     1      -6.407   9.841  11.388  0.00  0.00    +0.000 HD
ENDBRANCH  35  37
ENDBRANCH  32  33
ENDBRANCH  31  32
ENDBRANCH  30  31
ENDBRANCH  29  30
ENDBRANCH   7  29
TORSDOF 8
ENDMDL
MODEL 3
REMARK VINA RESULT:      -7.8      1.717      1.969
REMARK  Name = 
REMARK  9 active torsions:
REMARK  status: ('A' for Active; 'I' for Inactive)
REMARK    1  A    between atoms: C_1  and  O_2
REMARK    2  A    between atoms: O_2  and  C_3
REMARK    3  A    between atoms: C_6  and  C_7
REMARK    4  A    between atoms: N_13  and  C_14
REMARK    5  A    between atoms: C_14  and  C_15
REMARK    6  A    between atoms: C_15  and  C_16
REMARK    7  A    between atoms: C_16  and  C_17
REMARK    8  A    between atoms: C_17  and  C_18
REMARK    9  A    between atoms: N_20  and  O_21
REMARK                            x       y       z     vdW  Elec       q    Type
REMARK                         _______ _______ _______ _____ _____    ______ ____
ROOT
ATOM      1  C   UNL     1       1.212  11.116  18.893  0.00  0.00    +0.000 A 
ATOM      2  N   UNL     1      -0.048  11.284  19.421  0.00  0.00    +0.000 NA
ATOM      3  C   UNL     1      -0.648  12.440  19.566  0.00  0.00    +0.000 A 
ATOM      4  N   UNL     1      -1.876  12.642  18.924  0.00  0.00    +0.000 N 
ATOM      5  C   UNL     1      -2.548  11.622  18.311  0.00  0.00    +0.000 C 
ATOM      6  O   UNL     1      -2.275  10.426  18.330  0.00  0.00    +0.000 OA
ATOM      7  N   UNL     1      -3.661  12.067  17.641  0.00  0.00    +0.000 N 
ATOM      8  C   UNL     1       0.093  13.523  19.855  0.00  0.00    +0.000 A 
ATOM      9  C   UNL     1       1.245  13.550  19.056  0.00  0.00    +0.000 A 
ATOM     10  C   UNL     1       1.838  12.362  18.563  0.00  0.00    +0.000 A 
ATOM     11  N   UNL     1       2.968  12.825  17.889  0.00  0.00    +0.000 N 
ATOM     12  C   UNL     1       3.131  14.212  18.041  0.00  0.00    +0.000 A 
ATOM     13  C   UNL     1       4.129  15.130  17.653  0.00  0.00    +0.000 A 
ATOM     14  C   UNL     1       3.979  16.488  18.033  0.00  0.00    +0.000 A 
ATOM     15  C   UNL     1       2.855  16.941  18.714  0.00  0.00    +0.000 A 
ATOM     16  C   UNL     1       1.867  16.036  19.065  0.00  0.00    +0.000 A 
ATOM     17  C   UNL     1       2.038  14.671  18.753  0.00  0.00    +0.000 A 
ATOM     18  H   UNL     1      -2.096  13.588  18.668  0.00  0.00    +0.000 HD
ATOM     19  H   UNL     1      -4.085  12.903  18.013  0.00  0.00    +0.000 HD
ATOM     20  H   UNL     1       3.593  12.249  17.346  0.00  0.00    +0.000 HD
ENDROOT
BRANCH   1  24
ATOM     21  C   UNL     1       2.352   6.911  19.392  0.00  0.00    +0.000 A 
ATOM     22  C   UNL     1       1.736   7.648  20.372  0.00  0.00    +0.000 A 
ATOM     23  C   UNL     1       1.302   8.938  20.090  0.00  0.00    +0.000 A 
ATOM     24  C   UNL     1       1.493   9.633  18.850  0.00  0.00    +0.000 A 
ATOM     25  C   UNL     1       2.027   8.826  17.842  0.00  0.00    +0.000 A 
ATOM     26  C   UNL     1       2.453   7.473  18.112  0.00  0.00    +0.000 A 
BRANCH  21  28
ATOM     27  C   UNL     1       1.964   4.893  20.626  0.00  0.00    +0.000 C 
ATOM     28  O   UNL     1       2.817   5.723  19.868  0.00  0.00    +0.000 OA
ENDBRANCH  21  28
ENDBRANCH   1  24
BRANCH   7  29
ATOM     29  C   UNL     1      -4.522  11.029  17.122  0.00  0.00    +0.000 C 
BRANCH  29  30
ATOM     30  C   UNL     1      -5.799  10.880  17.916  0.00  0.00    +0.000 C 
BRANCH  30  31
ATOM     31  C   UNL     1      -6.215  12.192  18.573  0.00  0.00    +0.000 C 
BRANCH  31  32
ATOM     32  C   UNL     1      -7.238  12.919  17.707  0.00  0.00    +0.000 C 
BRANCH  32  33
ATOM     33  C   UNL     1      -6.769  14.305  17.327  0.00  0.00    +0.000 C 
ATOM     34  O   UNL     1      -6.728  14.740  16.180  0.00  0.00    +0.000 OA
ATOM     35  N   UNL     1      -6.371  15.056  18.415  0.00  0.00    +0.000 N 
ATOM     36  H   UNL     1      -6.684  14.857  19.350  0.00  0.00    +0.000 HD
BRANCH  35  37
ATOM     37  O   UNL     1      -6.031  16.389  18.105  0.00  0.00    +0.000 OA
ATOM     38  H   UNL     1      -5.343  16.280  17.412  0.00  0.00    +0.000 HD
ENDBRANCH  35  37
ENDBRANCH  32  33
ENDBRANCH  31  32
ENDBRANCH  30  31
ENDBRANCH  29  30
ENDBRANCH   7  29
TORSDOF 8
ENDMDL
MODEL 4
REMARK VINA RESULT:      -7.5      3.218      4.507
REMARK  Name = 
REMARK  9 active torsions:
REMARK  status: ('A' for Active; 'I' for Inactive)
REMARK    1  A    between atoms: C_1  and  O_2
REMARK    2  A    between atoms: O_2  and  C_3
REMARK    3  A    between atoms: C_6  and  C_7
REMARK    4  A    between atoms: N_13  and  C_14
REMARK    5  A    between atoms: C_14  and  C_15
REMARK    6  A    between atoms: C_15  and  C_16
REMARK    7  A    between atoms: C_16  and  C_17
REMARK    8  A    between atoms: C_17  and  C_18
REMARK    9  A    between atoms: N_20  and  O_21
REMARK                            x       y       z     vdW  Elec       q    Type
REMARK                         _______ _______ _______ _____ _____    ______ ____
ROOT
ATOM      1  C   UNL     1       1.144  10.899  18.542  0.00  0.00    +0.000 A 
ATOM      2  N   UNL     1      -0.228  10.984  18.596  0.00  0.00    +0.000 NA
ATOM      3  C   UNL     1      -0.911  12.098  18.491  0.00  0.00    +0.000 A 
ATOM      4  N   UNL     1      -1.848  12.214  17.458  0.00  0.00    +0.000 N 
ATOM      5  C   UNL     1      -2.201  11.148  16.678  0.00  0.00    +0.000 C 
ATOM      6  O   UNL     1      -1.879   9.973  16.825  0.00  0.00    +0.000 OA
ATOM      7  N   UNL     1      -3.037  11.514  15.652  0.00  0.00    +0.000 N 
ATOM      8  C   UNL     1      -0.384  13.230  18.989  0.00  0.00    +0.000 A 
ATOM      9  C   UNL     1       0.969  13.330  18.639  0.00  0.00    +0.000 A 
ATOM     10  C   UNL     1       1.768  12.182  18.415  0.00  0.00    +0.000 A 
ATOM     11  N   UNL     1       3.031  12.717  18.162  0.00  0.00    +0.000 N 
ATOM     12  C   UNL     1       3.047  14.113  18.323  0.00  0.00    +0.000 A 
ATOM     13  C   UNL     1       4.059  15.093  18.279  0.00  0.00    +0.000 A 
ATOM     14  C   UNL     1       3.703  16.440  18.546  0.00  0.00    +0.000 A 
ATOM     15  C   UNL     1       2.387  16.819  18.782  0.00  0.00    +0.000 A 
ATOM     16  C   UNL     1       1.396  15.852  18.794  0.00  0.00    +0.000 A 
ATOM     17  C   UNL     1       1.748  14.500  18.599  0.00  0.00    +0.000 A 
ATOM     18  H   UNL     1      -2.024  13.142  17.115  0.00  0.00    +0.000 HD
ATOM     19  H   UNL     1      -3.614  12.321  15.830  0.00  0.00    +0.000 HD
ATOM     20  H   UNL     1       3.841  12.182  17.886  0.00  0.00    +0.000 HD
ENDROOT
BRANCH   1  24
ATOM     21  C   UNL     1       2.503   6.829  19.454  0.00  0.00    +0.000 A 
ATOM     22  C   UNL     1       1.800   7.608  20.339  0.00  0.00    +0.000 A 
ATOM     23  C   UNL     1       1.305   8.839  19.927  0.00  0.00    +0.000 A 
ATOM     24  C   UNL     1       1.514   9.438  18.641  0.00  0.00    +0.000 A 
ATOM     25  C   UNL     1       2.140   8.582  17.730  0.00  0.00    +0.000 A 
ATOM     26  C   UNL     1       2.631   7.287  18.135  0.00  0.00    +0.000 A 
BRANCH  21  28
ATOM     27  C   UNL     1       2.164   4.875  20.798  0.00  0.00    +0.000 C 
ATOM     28  O   UNL     1       3.014   5.717  20.051  0.00  0.00    +0.000 OA
ENDBRANCH  21  28
ENDBRANCH   1  24
BRANCH   7  29
ATOM     29  C   UNL     1      -3.598  10.418  14.896  0.00  0.00    +0.000 C 
BRANCH  29  30
ATOM     30  C   UNL     1      -2.570   9.710  14.044  0.00  0.00    +0.000 C 
BRANCH  30  31
ATOM     31  C   UNL     1      -3.121   9.357  12.667  0.00  0.00    +0.000 C 
BRANCH  31  32
ATOM     32  C   UNL     1      -4.414  10.121  12.400  0.00  0.00    +0.000 C 
BRANCH  32  33
ATOM     33  C   UNL     1      -5.435   9.266  11.685  0.00  0.00    +0.000 C 
ATOM     34  O   UNL     1      -5.282   8.776  10.570  0.00  0.00    +0.000 OA
ATOM     35  N   UNL     1      -6.594   9.088  12.415  0.00  0.00    +0.000 N 
ATOM     36  H   UNL     1      -6.622   9.197  13.416  0.00  0.00    +0.000 HD
BRANCH  35  37
ATOM     37  O   UNL     1      -7.521   8.207  11.824  0.00  0.00    +0.000 OA
ATOM     38  H   UNL     1      -8.296   8.275  12.425  0.00  0.00    +0.000 HD
ENDBRANCH  35  37
ENDBRANCH  32  33
ENDBRANCH  31  32
ENDBRANCH  30  31
ENDBRANCH  29  30
ENDBRANCH   7  29
TORSDOF 8
ENDMDL
MODEL 5
REMARK VINA RESULT:      -7.5      1.097      1.230
REMARK  Name = 
REMARK  9 active torsions:
REMARK  status: ('A' for Active; 'I' for Inactive)
REMARK    1  A    between atoms: C_1  and  O_2
REMARK    2  A    between atoms: O_2  and  C_3
REMARK    3  A    between atoms: C_6  and  C_7
REMARK    4  A    between atoms: N_13  and  C_14
REMARK    5  A    between atoms: C_14  and  C_15
REMARK    6  A    between atoms: C_15  and  C_16
REMARK    7  A    between atoms: C_16  and  C_17
REMARK    8  A    between atoms: C_17  and  C_18
REMARK    9  A    between atoms: N_20  and  O_21
REMARK                            x       y       z     vdW  Elec       q    Type
REMARK                         _______ _______ _______ _____ _____    ______ ____
ROOT
ATOM      1  C   UNL     1       1.081  11.226  18.901  0.00  0.00    +0.000 A 
ATOM      2  N   UNL     1      -0.177  11.365  19.440  0.00  0.00    +0.000 NA
ATOM      3  C   UNL     1      -0.803  12.506  19.591  0.00  0.00    +0.000 A 
ATOM      4  N   UNL     1      -2.040  12.680  18.960  0.00  0.00    +0.000 N 
ATOM      5  C   UNL     1      -2.694  11.646  18.351  0.00  0.00    +0.000 C 
ATOM      6  O   UNL     1      -2.393  10.456  18.367  0.00  0.00    +0.000 OA
ATOM      7  N   UNL     1      -3.822  12.066  17.692  0.00  0.00    +0.000 N 
ATOM      8  C   UNL     1      -0.084  13.606  19.875  0.00  0.00    +0.000 A 
ATOM      9  C   UNL     1       1.060  13.660  19.067  0.00  0.00    +0.000 A 
ATOM     10  C   UNL     1       1.676  12.486  18.568  0.00  0.00    +0.000 A 
ATOM     11  N   UNL     1       2.789  12.976  17.884  0.00  0.00    +0.000 N 
ATOM     12  C   UNL     1       2.922  14.366  18.036  0.00  0.00    +0.000 A 
ATOM     13  C   UNL     1       3.895  15.307  17.641  0.00  0.00    +0.000 A 
ATOM     14  C   UNL     1       3.717  16.661  18.024  0.00  0.00    +0.000 A 
ATOM     15  C   UNL     1       2.589  17.087  18.715  0.00  0.00    +0.000 A 
ATOM     16  C   UNL     1       1.625  16.159  19.074  0.00  0.00    +0.000 A 
ATOM     17  C   UNL     1       1.824  14.799  18.759  0.00  0.00    +0.000 A 
ATOM     18  H   UNL     1      -2.285  13.622  18.707  0.00  0.00    +0.000 HD
ATOM     19  H   UNL     1      -4.262  12.891  18.068  0.00  0.00    +0.000 HD
ATOM     20  H   UNL     1       3.422  12.415  17.335  0.00  0.00    +0.000 HD
ENDROOT
BRANCH   1  24
ATOM     21  C   UNL     1       2.313   7.045  19.390  0.00  0.00    +0.000 A 
ATOM     22  C   UNL     1       1.673   7.764  20.369  0.00  0.00    +0.000 A 
ATOM     23  C   UNL     1       1.212   9.045  20.089  0.00  0.00    +0.000 A 
ATOM     24  C   UNL     1       1.397   9.750  18.854  0.00  0.00    +0.000 A 
ATOM     25  C   UNL     1       1.955   8.959  17.846  0.00  0.00    +0.000 A 
ATOM     26  C   UNL     1       2.410   7.615  18.114  0.00  0.00    +0.000 A 
BRANCH  21  28
ATOM     27  C   UNL     1       4.069   5.415  19.442  0.00  0.00    +0.000 C 
ATOM     28  O   UNL     1       2.801   5.866  19.865  0.00  0.00    +0.000 OA
ENDBRANCH  21  28
ENDBRANCH   1  24
BRANCH   7  29
ATOM     29  C   UNL     1      -4.663  11.009  17.179  0.00  0.00    +0.000 C 
BRANCH  29  30
ATOM     30  C   UNL     1      -5.921  10.815  17.996  0.00  0.00    +0.000 C 
BRANCH  30  31
ATOM     31  C   UNL     1      -6.786  12.071  18.009  0.00  0.00    +0.000 C 
BRANCH  31  32
ATOM     32  C   UNL     1      -7.081  12.498  19.444  0.00  0.00    +0.000 C 
BRANCH  32  33
ATOM     33  C   UNL     1      -6.201  13.648  19.879  0.00  0.00    +0.000 C 
ATOM     34  O   UNL     1      -4.988  13.574  20.057  0.00  0.00    +0.000 OA
ATOM     35  N   UNL     1      -6.904  14.820  20.076  0.00  0.00    +0.000 N 
ATOM     36  H   UNL     1      -7.798  14.990  19.645  0.00  0.00    +0.000 HD
BRANCH  35  37
ATOM     37  O   UNL     1      -6.097  15.936  20.377  0.00  0.00    +0.000 OA
ATOM     38  H   UNL     1      -5.816  15.755  21.301  0.00  0.00    +0.000 HD
ENDBRANCH  35  37
ENDBRANCH  32  33
ENDBRANCH  31  32
ENDBRANCH  30  31
ENDBRANCH  29  30
ENDBRANCH   7  29
TORSDOF 8
ENDMDL
MODEL 6
REMARK VINA RESULT:      -7.4      8.572     12.194
REMARK  Name = 
REMARK  9 active torsions:
REMARK  status: ('A' for Active; 'I' for Inactive)
REMARK    1  A    between atoms: C_1  and  O_2
REMARK    2  A    between atoms: O_2  and  C_3
REMARK    3  A    between atoms: C_6  and  C_7
REMARK    4  A    between atoms: N_13  and  C_14
REMARK    5  A    between atoms: C_14  and  C_15
REMARK    6  A    between atoms: C_15  and  C_16
REMARK    7  A    between atoms: C_16  and  C_17
REMARK    8  A    between atoms: C_17  and  C_18
REMARK    9  A    between atoms: N_20  and  O_21
REMARK                            x       y       z     vdW  Elec       q    Type
REMARK                         _______ _______ _______ _____ _____    ______ ____
ROOT
ATOM      1  C   UNL     1       5.102   4.977  15.858  0.00  0.00    +0.000 A 
ATOM      2  N   UNL     1       5.177   6.334  16.075  0.00  0.00    +0.000 NA
ATOM      3  C   UNL     1       4.704   6.947  17.132  0.00  0.00    +0.000 A 
ATOM      4  N   UNL     1       5.586   7.686  17.929  0.00  0.00    +0.000 N 
ATOM      5  C   UNL     1       6.873   7.936  17.543  0.00  0.00    +0.000 C 
ATOM      6  O   UNL     1       7.392   7.687  16.459  0.00  0.00    +0.000 OA
ATOM      7  N   UNL     1       7.593   8.566  18.527  0.00  0.00    +0.000 N 
ATOM      8  C   UNL     1       3.585   6.475  17.708  0.00  0.00    +0.000 A 
ATOM      9  C   UNL     1       3.645   5.078  17.812  0.00  0.00    +0.000 A 
ATOM     10  C   UNL     1       4.390   4.295  16.896  0.00  0.00    +0.000 A 
ATOM     11  N   UNL     1       4.133   2.988  17.312  0.00  0.00    +0.000 N 
ATOM     12  C   UNL     1       3.197   2.950  18.360  0.00  0.00    +0.000 A 
ATOM     13  C   UNL     1       2.544   1.911  19.054  0.00  0.00    +0.000 A 
ATOM     14  C   UNL     1       1.597   2.259  20.050  0.00  0.00    +0.000 A 
ATOM     15  C   UNL     1       1.347   3.581  20.397  0.00  0.00    +0.000 A 
ATOM     16  C   UNL     1       2.016   4.594  19.729  0.00  0.00    +0.000 A 
ATOM     17  C   UNL     1       2.909   4.263  18.689  0.00  0.00    +0.000 A 
ATOM     18  H   UNL     1       5.350   7.765  18.903  0.00  0.00    +0.000 HD
ATOM     19  H   UNL     1       7.055   9.136  19.161  0.00  0.00    +0.000 HD
ATOM     20  H   UNL     1       4.566   2.163  16.925  0.00  0.00    +0.000 HD
ENDROOT
BRANCH   1  24
ATOM     21  C   UNL     1       6.961   3.460  12.186  0.00  0.00    +0.000 A 
ATOM     22  C   UNL     1       5.656   3.212  12.531  0.00  0.00    +0.000 A 
ATOM     23  C   UNL     1       5.113   3.829  13.651  0.00  0.00    +0.000 A 
ATOM     24  C   UNL     1       5.818   4.684  14.561  0.00  0.00    +0.000 A 
ATOM     25  C   UNL     1       7.110   5.001  14.130  0.00  0.00    +0.000 A 
ATOM     26  C   UNL     1       7.676   4.392  12.950  0.00  0.00    +0.000 A 
BRANCH  21  28
ATOM     27  C   UNL     1       6.830   1.391  10.983  0.00  0.00    +0.000 C 
ATOM     28  O   UNL     1       7.364   2.688  11.140  0.00  0.00    +0.000 OA
ENDBRANCH  21  28
ENDBRANCH   1  24
BRANCH   7  29
ATOM     29  C   UNL     1       8.904   9.027  18.129  0.00  0.00    +0.000 C 
BRANCH  29  30
ATOM     30  C   UNL     1       8.963  10.525  17.940  0.00  0.00    +0.000 C 
BRANCH  30  31
ATOM     31  C   UNL     1      10.123  11.148  18.710  0.00  0.00    +0.000 C 
BRANCH  31  32
ATOM     32  C   UNL     1      11.144  11.743  17.745  0.00  0.00    +0.000 C 
BRANCH  32  33
ATOM     33  C   UNL     1      10.947  13.231  17.565  0.00  0.00    +0.000 C 
ATOM     34  O   UNL     1      10.690  14.018  18.471  0.00  0.00    +0.000 OA
ATOM     35  N   UNL     1      11.075  13.636  16.251  0.00  0.00    +0.000 N 
ATOM     36  H   UNL     1      11.582  13.097  15.568  0.00  0.00    +0.000 HD
BRANCH  35  37
ATOM     37  O   UNL     1      11.005  15.031  16.066  0.00  0.00    +0.000 OA
ATOM     38  H   UNL     1      10.064  15.168  15.817  0.00  0.00    +0.000 HD
ENDBRANCH  35  37
ENDBRANCH  32  33
ENDBRANCH  31  32
ENDBRANCH  30  31
ENDBRANCH  29  30
ENDBRANCH   7  29
TORSDOF 8
ENDMDL
MODEL 7
REMARK VINA RESULT:      -7.4      3.026      6.167
REMARK  Name = 
REMARK  9 active torsions:
REMARK  status: ('A' for Active; 'I' for Inactive)
REMARK    1  A    between atoms: C_1  and  O_2
REMARK    2  A    between atoms: O_2  and  C_3
REMARK    3  A    between atoms: C_6  and  C_7
REMARK    4  A    between atoms: N_13  and  C_14
REMARK    5  A    between atoms: C_14  and  C_15
REMARK    6  A    between atoms: C_15  and  C_16
REMARK    7  A    between atoms: C_16  and  C_17
REMARK    8  A    between atoms: C_17  and  C_18
REMARK    9  A    between atoms: N_20  and  O_21
REMARK                            x       y       z     vdW  Elec       q    Type
REMARK                         _______ _______ _______ _____ _____    ______ ____
ROOT
ATOM      1  C   UNL     1       0.512  10.366  20.324  0.00  0.00    +0.000 A 
ATOM      2  N   UNL     1       0.256  10.872  19.070  0.00  0.00    +0.000 NA
ATOM      3  C   UNL     1       0.390  10.201  17.953  0.00  0.00    +0.000 A 
ATOM      4  N   UNL     1      -0.729  10.042  17.128  0.00  0.00    +0.000 N 
ATOM      5  C   UNL     1      -1.898  10.712  17.357  0.00  0.00    +0.000 C 
ATOM      6  O   UNL     1      -2.105  11.596  18.182  0.00  0.00    +0.000 OA
ATOM      7  N   UNL     1      -2.897  10.313  16.505  0.00  0.00    +0.000 N 
ATOM      8  C   UNL     1       1.371   9.286  17.861  0.00  0.00    +0.000 A 
ATOM      9  C   UNL     1       1.422   8.510  19.028  0.00  0.00    +0.000 A 
ATOM     10  C   UNL     1       1.007   9.023  20.282  0.00  0.00    +0.000 A 
ATOM     11  N   UNL     1       1.277   7.974  21.160  0.00  0.00    +0.000 N 
ATOM     12  C   UNL     1       1.922   6.906  20.513  0.00  0.00    +0.000 A 
ATOM     13  C   UNL     1       2.479   5.687  20.950  0.00  0.00    +0.000 A 
ATOM     14  C   UNL     1       3.112   4.855  19.992  0.00  0.00    +0.000 A 
ATOM     15  C   UNL     1       3.139   5.178  18.640  0.00  0.00    +0.000 A 
ATOM     16  C   UNL     1       2.563   6.364  18.217  0.00  0.00    +0.000 A 
ATOM     17  C   UNL     1       1.992   7.233  19.170  0.00  0.00    +0.000 A 
ATOM     18  H   UNL     1      -0.751   9.214  16.558  0.00  0.00    +0.000 HD
ATOM     19  H   UNL     1      -2.591   9.968  15.609  0.00  0.00    +0.000 HD
ATOM     20  H   UNL     1       1.035   7.963  22.139  0.00  0.00    +0.000 HD
ENDROOT
BRANCH   1  24
ATOM     21  C   UNL     1      -1.144  13.269  23.165  0.00  0.00    +0.000 A 
ATOM     22  C   UNL     1      -1.427  11.927  23.204  0.00  0.00    +0.000 A 
ATOM     23  C   UNL     1      -0.767  11.060  22.341  0.00  0.00    +0.000 A 
ATOM     24  C   UNL     1       0.172  11.443  21.327  0.00  0.00    +0.000 A 
ATOM     25  C   UNL     1       0.519  12.796  21.380  0.00  0.00    +0.000 A 
ATOM     26  C   UNL     1      -0.136  13.702  22.293  0.00  0.00    +0.000 A 
BRANCH  21  28
ATOM     27  C   UNL     1      -1.438  15.077  24.710  0.00  0.00    +0.000 C 
ATOM     28  O   UNL     1      -1.960  13.984  23.987  0.00  0.00    +0.000 OA
ENDBRANCH  21  28
ENDBRANCH   1  24
BRANCH   7  29
ATOM     29  C   UNL     1      -4.106  11.102  16.563  0.00  0.00    +0.000 C 
BRANCH  29  30
ATOM     30  C   UNL     1      -4.938  10.807  17.791  0.00  0.00    +0.000 C 
BRANCH  30  31
ATOM     31  C   UNL     1      -5.773  12.011  18.212  0.00  0.00    +0.000 C 
BRANCH  31  32
ATOM     32  C   UNL     1      -7.148  11.560  18.696  0.00  0.00    +0.000 C 
BRANCH  32  33
ATOM     33  C   UNL     1      -7.066  10.816  20.010  0.00  0.00    +0.000 C 
ATOM     34  O   UNL     1      -6.614  11.281  21.051  0.00  0.00    +0.000 OA
ATOM     35  N   UNL     1      -7.549   9.525  19.928  0.00  0.00    +0.000 N 
ATOM     36  H   UNL     1      -8.194   9.236  19.211  0.00  0.00    +0.000 HD
BRANCH  35  37
ATOM     37  O   UNL     1      -7.586   8.842  21.160  0.00  0.00    +0.000 OA
ATOM     38  H   UNL     1      -7.933   7.958  20.906  0.00  0.00    +0.000 HD
ENDBRANCH  35  37
ENDBRANCH  32  33
ENDBRANCH  31  32
ENDBRANCH  30  31
ENDBRANCH  29  30
ENDBRANCH   7  29
TORSDOF 8
ENDMDL
MODEL 8
REMARK VINA RESULT:      -7.4      3.322      8.103
REMARK  Name = 
REMARK  9 active torsions:
REMARK  status: ('A' for Active; 'I' for Inactive)
REMARK    1  A    between atoms: C_1  and  O_2
REMARK    2  A    between atoms: O_2  and  C_3
REMARK    3  A    between atoms: C_6  and  C_7
REMARK    4  A    between atoms: N_13  and  C_14
REMARK    5  A    between atoms: C_14  and  C_15
REMARK    6  A    between atoms: C_15  and  C_16
REMARK    7  A    between atoms: C_16  and  C_17
REMARK    8  A    between atoms: C_17  and  C_18
REMARK    9  A    between atoms: N_20  and  O_21
REMARK                            x       y       z     vdW  Elec       q    Type
REMARK                         _______ _______ _______ _____ _____    ______ ____
ROOT
ATOM      1  C   UNL     1       0.844  12.496  20.335  0.00  0.00    +0.000 A 
ATOM      2  N   UNL     1       0.761  11.774  19.166  0.00  0.00    +0.000 NA
ATOM      3  C   UNL     1       1.644  11.816  18.199  0.00  0.00    +0.000 A 
ATOM      4  N   UNL     1       2.284  10.629  17.824  0.00  0.00    +0.000 N 
ATOM      5  C   UNL     1       1.890   9.412  18.304  0.00  0.00    +0.000 C 
ATOM      6  O   UNL     1       0.902   9.160  18.987  0.00  0.00    +0.000 OA
ATOM      7  N   UNL     1       2.732   8.403  17.906  0.00  0.00    +0.000 N 
ATOM      8  C   UNL     1       2.278  12.975  17.951  0.00  0.00    +0.000 A 
ATOM      9  C   UNL     1       2.686  13.571  19.152  0.00  0.00    +0.000 A 
ATOM     10  C   UNL     1       1.986  13.360  20.364  0.00  0.00    +0.000 A 
ATOM     11  N   UNL     1       2.671  14.168  21.273  0.00  0.00    +0.000 N 
ATOM     12  C   UNL     1       3.674  14.923  20.643  0.00  0.00    +0.000 A 
ATOM     13  C   UNL     1       4.560  15.930  21.077  0.00  0.00    +0.000 A 
ATOM     14  C   UNL     1       5.428  16.519  20.123  0.00  0.00    +0.000 A 
ATOM     15  C   UNL     1       5.471  16.088  18.802  0.00  0.00    +0.000 A 
ATOM     16  C   UNL     1       4.616  15.077  18.393  0.00  0.00    +0.000 A 
ATOM     17  C   UNL     1       3.700  14.532  19.317  0.00  0.00    +0.000 A 
ATOM     18  H   UNL     1       3.210  10.721  17.444  0.00  0.00    +0.000 HD
ATOM     19  H   UNL     1       3.210   8.557  17.032  0.00  0.00    +0.000 HD
ATOM     20  H   UNL     1       2.487  14.207  22.264  0.00  0.00    +0.000 HD
ENDROOT
BRANCH   1  24
ATOM     21  C   UNL     1      -2.754  12.058  22.805  0.00  0.00    +0.000 A 
ATOM     22  C   UNL     1      -2.736  12.728  21.607  0.00  0.00    +0.000 A 
ATOM     23  C   UNL     1      -1.583  12.717  20.832  0.00  0.00    +0.000 A 
ATOM     24  C   UNL     1      -0.336  12.109  21.194  0.00  0.00    +0.000 A 
ATOM     25  C   UNL     1      -0.413  11.348  22.364  0.00  0.00    +0.000 A 
ATOM     26  C   UNL     1      -1.615  11.325  23.164  0.00  0.00    +0.000 A 
BRANCH  21  28
ATOM     27  C   UNL     1      -3.921  13.142  24.596  0.00  0.00    +0.000 C 
ATOM     28  O   UNL     1      -3.913  12.270  23.487  0.00  0.00    +0.000 OA
ENDBRANCH  21  28
ENDBRANCH   1  24
BRANCH   7  29
ATOM     29  C   UNL     1       2.280   7.066  18.220  0.00  0.00    +0.000 C 
BRANCH  29  30
ATOM     30  C   UNL     1       3.221   5.998  17.710  0.00  0.00    +0.000 C 
BRANCH  30  31
ATOM     31  C   UNL     1       4.667   6.285  18.098  0.00  0.00    +0.000 C 
BRANCH  31  32
ATOM     32  C   UNL     1       5.135   5.306  19.170  0.00  0.00    +0.000 C 
BRANCH  32  33
ATOM     33  C   UNL     1       6.620   5.038  19.078  0.00  0.00    +0.000 C 
ATOM     34  O   UNL     1       7.444   5.364  19.927  0.00  0.00    +0.000 OA
ATOM     35  N   UNL     1       6.978   4.385  17.915  0.00  0.00    +0.000 N 
ATOM     36  H   UNL     1       6.322   3.841  17.380  0.00  0.00    +0.000 HD
BRANCH  35  37
ATOM     37  O   UNL     1       8.339   4.025  17.850  0.00  0.00    +0.000 OA
ATOM     38  H   UNL     1       8.629   4.432  17.004  0.00  0.00    +0.000 HD
ENDBRANCH  35  37
ENDBRANCH  32  33
ENDBRANCH  31  32
ENDBRANCH  30  31
ENDBRANCH  29  30
ENDBRANCH   7  29
TORSDOF 8
ENDMDL
MODEL 9
REMARK VINA RESULT:      -7.4      3.174      7.789
REMARK  Name = 
REMARK  9 active torsions:
REMARK  status: ('A' for Active; 'I' for Inactive)
REMARK    1  A    between atoms: C_1  and  O_2
REMARK    2  A    between atoms: O_2  and  C_3
REMARK    3  A    between atoms: C_6  and  C_7
REMARK    4  A    between atoms: N_13  and  C_14
REMARK    5  A    between atoms: C_14  and  C_15
REMARK    6  A    between atoms: C_15  and  C_16
REMARK    7  A    between atoms: C_16  and  C_17
REMARK    8  A    between atoms: C_17  and  C_18
REMARK    9  A    between atoms: N_20  and  O_21
REMARK                            x       y       z     vdW  Elec       q    Type
REMARK                         _______ _______ _______ _____ _____    ______ ____
ROOT
ATOM      1  C   UNL     1       0.620  12.837  20.447  0.00  0.00    +0.000 A 
ATOM      2  N   UNL     1       0.572  12.169  19.244  0.00  0.00    +0.000 NA
ATOM      3  C   UNL     1       1.486  12.252  18.308  0.00  0.00    +0.000 A 
ATOM      4  N   UNL     1       2.135  11.081  17.901  0.00  0.00    +0.000 N 
ATOM      5  C   UNL     1       1.723   9.845  18.312  0.00  0.00    +0.000 C 
ATOM      6  O   UNL     1       0.714   9.565  18.951  0.00  0.00    +0.000 OA
ATOM      7  N   UNL     1       2.576   8.852  17.895  0.00  0.00    +0.000 N 
ATOM      8  C   UNL     1       2.129  13.419  18.134  0.00  0.00    +0.000 A 
ATOM      9  C   UNL     1       2.501  13.959  19.373  0.00  0.00    +0.000 A 
ATOM     10  C   UNL     1       1.762  13.695  20.552  0.00  0.00    +0.000 A 
ATOM     11  N   UNL     1       2.418  14.458  21.518  0.00  0.00    +0.000 N 
ATOM     12  C   UNL     1       3.443  15.238  20.955  0.00  0.00    +0.000 A 
ATOM     13  C   UNL     1       4.317  16.221  21.462  0.00  0.00    +0.000 A 
ATOM     14  C   UNL     1       5.216  16.850  20.564  0.00  0.00    +0.000 A 
ATOM     15  C   UNL     1       5.300  16.479  19.227  0.00  0.00    +0.000 A 
ATOM     16  C   UNL     1       4.457  15.491  18.746  0.00  0.00    +0.000 A 
ATOM     17  C   UNL     1       3.510  14.908  19.614  0.00  0.00    +0.000 A 
ATOM     18  H   UNL     1       3.073  11.187  17.554  0.00  0.00    +0.000 HD
ATOM     19  H   UNL     1       3.081   9.044  17.044  0.00  0.00    +0.000 HD
ATOM     20  H   UNL     1       2.203  14.453  22.503  0.00  0.00    +0.000 HD
ENDROOT
BRANCH   1  24
ATOM     21  C   UNL     1      -3.118  12.273  22.671  0.00  0.00    +0.000 A 
ATOM     22  C   UNL     1      -3.061  12.826  21.417  0.00  0.00    +0.000 A 
ATOM     23  C   UNL     1      -1.851  12.859  20.735  0.00  0.00    +0.000 A 
ATOM     24  C   UNL     1      -0.588  12.415  21.249  0.00  0.00    +0.000 A 
ATOM     25  C   UNL     1      -0.693  11.763  22.481  0.00  0.00    +0.000 A 
ATOM     26  C   UNL     1      -1.951  11.693  23.187  0.00  0.00    +0.000 A 
BRANCH  21  28
ATOM     27  C   UNL     1      -4.466  12.456  24.645  0.00  0.00    +0.000 C 
ATOM     28  O   UNL     1      -4.346  12.429  23.239  0.00  0.00    +0.000 OA
ENDBRANCH  21  28
ENDBRANCH   1  24
BRANCH   7  29
ATOM     29  C   UNL     1       2.112   7.505  18.133  0.00  0.00    +0.000 C 
BRANCH  29  30
ATOM     30  C   UNL     1       3.215   6.478  18.012  0.00  0.00    +0.000 C 
BRANCH  30  31
ATOM     31  C   UNL     1       2.666   5.055  18.001  0.00  0.00    +0.000 C 
BRANCH  31  32
ATOM     32  C   UNL     1       3.725   4.081  17.494  0.00  0.00    +0.000 C 
BRANCH  32  33
ATOM     33  C   UNL     1       3.867   2.882  18.403  0.00  0.00    +0.000 C 
ATOM     34  O   UNL     1       3.084   1.938  18.445  0.00  0.00    +0.000 OA
ATOM     35  N   UNL     1       4.983   2.951  19.214  0.00  0.00    +0.000 N 
ATOM     36  H   UNL     1       5.780   3.522  18.986  0.00  0.00    +0.000 HD
BRANCH  35  37
ATOM     37  O   UNL     1       5.202   1.798  19.995  0.00  0.00    +0.000 OA
ATOM     38  H   UNL     1       5.232   1.084  19.321  0.00  0.00    +0.000 HD
ENDBRANCH  35  37
ENDBRANCH  32  33
ENDBRANCH  31  32
ENDBRANCH  30  31
ENDBRANCH  29  30
ENDBRANCH   7  29
TORSDOF 8
ENDMDL
