MODEL 1
REMARK VINA RESULT:      -7.7      0.000      0.000
REMARK  Name = 
REMARK  6 active torsions:
REMARK  status: ('A' for Active; 'I' for Inactive)
REMARK    1  A    between atoms: C_1  and  C_2
REMARK    2  A    between atoms: C_2  and  O_3
REMARK    3  A    between atoms: C_4  and  O_5
REMARK    4  A    between atoms: C_6  and  C_7
REMARK    5  A    between atoms: C_7  and  O_8
REMARK    6  A    between atoms: C_10  and  N_11
REMARK                            x       y       z     vdW  Elec       q    Type
REMARK                         _______ _______ _______ _____ _____    ______ ____
ROOT
ATOM      1  N   UNL     1       5.617   5.070  18.816  0.00  0.00    +0.000 N 
ATOM      2  C   UNL     1       6.690   5.406  19.609  0.00  0.00    +0.000 C 
ATOM      3  N   UNL     1       7.872   5.508  19.096  0.00  0.00    +0.000 NA
ATOM      4  C   UNL     1       7.613   4.985  17.729  0.00  0.00    +0.000 C 
ATOM      5  C   UNL     1       7.444   6.051  16.662  0.00  0.00    +0.000 C 
ATOM      6  O   UNL     1       7.613   7.265  16.762  0.00  0.00    +0.000 OA
ATOM      7  N   UNL     1       7.105   5.461  15.469  0.00  0.00    +0.000 N 
ATOM      8  C   UNL     1       6.353   4.329  15.442  0.00  0.00    +0.000 C 
ATOM      9  N   UNL     1       6.284   3.727  14.223  0.00  0.00    +0.000 N 
ATOM     10  N   UNL     1       5.798   3.814  16.479  0.00  0.00    +0.000 NA
ATOM     11  C   UNL     1       6.258   4.223  17.810  0.00  0.00    +0.000 C 
ATOM     12  H   UNL     1       7.120   6.046  14.646  0.00  0.00    +0.000 HD
ATOM     13  H   UNL     1       7.078   3.908  13.614  0.00  0.00    +0.000 HD
ATOM     14  H   UNL     1       6.150   2.722  14.320  0.00  0.00    +0.000 HD
ENDROOT
BRANCH   1  20
ATOM     15  C   UNL     1       3.478   6.641  17.504  0.00  0.00    +0.000 C 
ATOM     16  C   UNL     1       3.165   5.617  18.600  0.00  0.00    +0.000 C 
ATOM     17  C   UNL     1       2.480   4.395  18.003  0.00  0.00    +0.000 C 
ATOM     18  C   UNL     1       2.538   3.461  19.200  0.00  0.00    +0.000 C 
ATOM     19  O   UNL     1       3.908   3.561  19.664  0.00  0.00    +0.000 OA
ATOM     20  C   UNL     1       4.322   4.942  19.467  0.00  0.00    +0.000 C 
BRANCH  16  21
ATOM     21  O   UNL     1       2.202   6.284  19.461  0.00  0.00    +0.000 OA
ATOM     22  H   UNL     1       2.645   6.354  20.320  0.00  0.00    +0.000 HD
ENDBRANCH  16  21
BRANCH  17  23
ATOM     23  O   UNL     1       1.165   4.760  17.579  0.00  0.00    +0.000 OA
ATOM     24  H   UNL     1       0.531   4.112  17.928  0.00  0.00    +0.000 HD
ENDBRANCH  17  23
BRANCH  18  25
ATOM     25  C   UNL     1       2.155   2.022  18.875  0.00  0.00    +0.000 C 
BRANCH  25  26
ATOM     26  O   UNL     1       2.098   1.813  17.471  0.00  0.00    +0.000 OA
ATOM     27  H   UNL     1       1.304   2.297  17.166  0.00  0.00    +0.000 HD
ENDBRANCH  25  26
ENDBRANCH  18  25
ENDBRANCH   1  20
TORSDOF 5
ENDMDL
MODEL 2
REMARK VINA RESULT:      -7.4      2.443      5.204
REMARK  Name = 
REMARK  6 active torsions:
REMARK  status: ('A' for Active; 'I' for Inactive)
REMARK    1  A    between atoms: C_1  and  C_2
REMARK    2  A    between atoms: C_2  and  O_3
REMARK    3  A    between atoms: C_4  and  O_5
REMARK    4  A    between atoms: C_6  and  C_7
REMARK    5  A    between atoms: C_7  and  O_8
REMARK    6  A    between atoms: C_10  and  N_11
REMARK                            x       y       z     vdW  Elec       q    Type
REMARK                         _______ _______ _______ _____ _____    ______ ____
ROOT
ATOM      1  N   UNL     1       4.138   6.257  17.763  0.00  0.00    +0.000 N 
ATOM      2  C   UNL     1       3.282   7.312  17.981  0.00  0.00    +0.000 C 
ATOM      3  N   UNL     1       2.085   7.100  18.419  0.00  0.00    +0.000 NA
ATOM      4  C   UNL     1       2.031   5.617  18.334  0.00  0.00    +0.000 C 
ATOM      5  C   UNL     1       2.260   4.897  19.650  0.00  0.00    +0.000 C 
ATOM      6  O   UNL     1       2.359   5.378  20.778  0.00  0.00    +0.000 OA
ATOM      7  N   UNL     1       2.295   3.541  19.435  0.00  0.00    +0.000 N 
ATOM      8  C   UNL     1       2.787   3.034  18.273  0.00  0.00    +0.000 C 
ATOM      9  N   UNL     1       2.554   1.705  18.095  0.00  0.00    +0.000 N 
ATOM     10  N   UNL     1       3.367   3.742  17.373  0.00  0.00    +0.000 NA
ATOM     11  C   UNL     1       3.198   5.199  17.393  0.00  0.00    +0.000 C 
ATOM     12  H   UNL     1       2.281   2.945  20.249  0.00  0.00    +0.000 HD
ATOM     13  H   UNL     1       1.734   1.348  18.579  0.00  0.00    +0.000 HD
ATOM     14  H   UNL     1       2.491   1.475  17.105  0.00  0.00    +0.000 HD
ENDROOT
BRANCH   1  20
ATOM     15  C   UNL     1       6.342   5.073  19.345  0.00  0.00    +0.000 C 
ATOM     16  C   UNL     1       6.593   5.728  17.983  0.00  0.00    +0.000 C 
ATOM     17  C   UNL     1       6.924   4.671  16.939  0.00  0.00    +0.000 C 
ATOM     18  C   UNL     1       6.848   5.521  15.683  0.00  0.00    +0.000 C 
ATOM     19  O   UNL     1       5.608   6.258  15.825  0.00  0.00    +0.000 OA
ATOM     20  C   UNL     1       5.459   6.568  17.239  0.00  0.00    +0.000 C 
BRANCH  16  21
ATOM     21  O   UNL     1       7.785   6.539  18.181  0.00  0.00    +0.000 OA
ATOM     22  H   UNL     1       8.349   6.010  18.764  0.00  0.00    +0.000 HD
ENDBRANCH  16  21
BRANCH  17  23
ATOM     23  O   UNL     1       8.211   4.121  17.225  0.00  0.00    +0.000 OA
ATOM     24  H   UNL     1       8.457   4.355  18.135  0.00  0.00    +0.000 HD
ENDBRANCH  17  23
BRANCH  18  25
ATOM     25  C   UNL     1       6.880   4.713  14.391  0.00  0.00    +0.000 C 
BRANCH  25  26
ATOM     26  O   UNL     1       6.401   3.393  14.602  0.00  0.00    +0.000 OA
ATOM     27  H   UNL     1       7.164   2.805  14.424  0.00  0.00    +0.000 HD
ENDBRANCH  25  26
ENDBRANCH  18  25
ENDBRANCH   1  20
TORSDOF 5
ENDMDL
MODEL 3
REMARK VINA RESULT:      -7.3      1.712      3.380
REMARK  Name = 
REMARK  6 active torsions:
REMARK  status: ('A' for Active; 'I' for Inactive)
REMARK    1  A    between atoms: C_1  and  C_2
REMARK    2  A    between atoms: C_2  and  O_3
REMARK    3  A    between atoms: C_4  and  O_5
REMARK    4  A    between atoms: C_6  and  C_7
REMARK    5  A    between atoms: C_7  and  O_8
REMARK    6  A    between atoms: C_10  and  N_11
REMARK                            x       y       z     vdW  Elec       q    Type
REMARK                         _______ _______ _______ _____ _____    ______ ____
ROOT
ATOM      1  N   UNL     1       4.556   5.554  17.473  0.00  0.00    +0.000 N 
ATOM      2  C   UNL     1       4.728   6.184  16.262  0.00  0.00    +0.000 C 
ATOM      3  N   UNL     1       5.902   6.574  15.891  0.00  0.00    +0.000 NA
ATOM      4  C   UNL     1       6.669   6.326  17.140  0.00  0.00    +0.000 C 
ATOM      5  C   UNL     1       7.483   5.044  17.142  0.00  0.00    +0.000 C 
ATOM      6  O   UNL     1       7.681   4.263  16.213  0.00  0.00    +0.000 OA
ATOM      7  N   UNL     1       8.060   4.866  18.375  0.00  0.00    +0.000 N 
ATOM      8  C   UNL     1       7.433   5.289  19.505  0.00  0.00    +0.000 C 
ATOM      9  N   UNL     1       8.206   5.259  20.624  0.00  0.00    +0.000 N 
ATOM     10  N   UNL     1       6.233   5.747  19.528  0.00  0.00    +0.000 NA
ATOM     11  C   UNL     1       5.611   6.178  18.272  0.00  0.00    +0.000 C 
ATOM     12  H   UNL     1       8.753   4.136  18.458  0.00  0.00    +0.000 HD
ATOM     13  H   UNL     1       9.205   5.342  20.453  0.00  0.00    +0.000 HD
ATOM     14  H   UNL     1       7.914   5.974  21.288  0.00  0.00    +0.000 HD
ENDROOT
BRANCH   1  20
ATOM     15  C   UNL     1       4.017   2.662  17.142  0.00  0.00    +0.000 C 
ATOM     16  C   UNL     1       3.029   3.586  17.862  0.00  0.00    +0.000 C 
ATOM     17  C   UNL     1       3.029   3.301  19.358  0.00  0.00    +0.000 C 
ATOM     18  C   UNL     1       2.218   4.489  19.843  0.00  0.00    +0.000 C 
ATOM     19  O   UNL     1       2.810   5.626  19.166  0.00  0.00    +0.000 OA
ATOM     20  C   UNL     1       3.200   5.172  17.839  0.00  0.00    +0.000 C 
BRANCH  16  21
ATOM     21  O   UNL     1       1.725   3.204  17.342  0.00  0.00    +0.000 OA
ATOM     22  H   UNL     1       1.395   2.541  17.966  0.00  0.00    +0.000 HD
ENDBRANCH  16  21
BRANCH  17  23
ATOM     23  O   UNL     1       2.434   2.023  19.588  0.00  0.00    +0.000 OA
ATOM     24  H   UNL     1       3.118   1.338  19.502  0.00  0.00    +0.000 HD
ENDBRANCH  17  23
BRANCH  18  25
ATOM     25  C   UNL     1       2.232   4.665  21.357  0.00  0.00    +0.000 C 
BRANCH  25  26
ATOM     26  O   UNL     1       2.194   3.409  22.018  0.00  0.00    +0.000 OA
ATOM     27  H   UNL     1       3.098   3.042  21.936  0.00  0.00    +0.000 HD
ENDBRANCH  25  26
ENDBRANCH  18  25
ENDBRANCH   1  20
TORSDOF 5
ENDMDL
MODEL 4
REMARK VINA RESULT:      -7.2      2.327      5.482
REMARK  Name = 
REMARK  6 active torsions:
REMARK  status: ('A' for Active; 'I' for Inactive)
REMARK    1  A    between atoms: C_1  and  C_2
REMARK    2  A    between atoms: C_2  and  O_3
REMARK    3  A    between atoms: C_4  and  O_5
REMARK    4  A    between atoms: C_6  and  C_7
REMARK    5  A    between atoms: C_7  and  O_8
REMARK    6  A    between atoms: C_10  and  N_11
REMARK                            x       y       z     vdW  Elec       q    Type
REMARK                         _______ _______ _______ _____ _____    ______ ____
ROOT
ATOM      1  N   UNL     1       4.711   3.892  17.896  0.00  0.00    +0.000 N 
ATOM      2  C   UNL     1       4.269   2.610  17.662  0.00  0.00    +0.000 C 
ATOM      3  N   UNL     1       3.095   2.243  18.056  0.00  0.00    +0.000 NA
ATOM      4  C   UNL     1       2.704   3.429  18.862  0.00  0.00    +0.000 C 
ATOM      5  C   UNL     1       1.776   4.400  18.156  0.00  0.00    +0.000 C 
ATOM      6  O   UNL     1       1.219   4.269  17.067  0.00  0.00    +0.000 OA
ATOM      7  N   UNL     1       1.569   5.502  18.949  0.00  0.00    +0.000 N 
ATOM      8  C   UNL     1       2.548   5.957  19.775  0.00  0.00    +0.000 C 
ATOM      9  N   UNL     1       2.140   6.904  20.664  0.00  0.00    +0.000 N 
ATOM     10  N   UNL     1       3.748   5.501  19.782  0.00  0.00    +0.000 NA
ATOM     11  C   UNL     1       4.022   4.207  19.148  0.00  0.00    +0.000 C 
ATOM     12  H   UNL     1       0.847   6.146  18.662  0.00  0.00    +0.000 HD
ATOM     13  H   UNL     1       1.153   6.864  20.905  0.00  0.00    +0.000 HD
ATOM     14  H   UNL     1       2.700   6.872  21.514  0.00  0.00    +0.000 HD
ENDROOT
BRANCH   1  20
ATOM     15  C   UNL     1       4.806   6.212  16.060  0.00  0.00    +0.000 C 
ATOM     16  C   UNL     1       6.081   5.607  16.656  0.00  0.00    +0.000 C 
ATOM     17  C   UNL     1       6.679   6.546  17.696  0.00  0.00    +0.000 C 
ATOM     18  C   UNL     1       7.720   5.623  18.304  0.00  0.00    +0.000 C 
ATOM     19  O   UNL     1       7.002   4.387  18.547  0.00  0.00    +0.000 OA
ATOM     20  C   UNL     1       6.056   4.225  17.453  0.00  0.00    +0.000 C 
BRANCH  16  21
ATOM     21  O   UNL     1       7.011   5.539  15.539  0.00  0.00    +0.000 OA
ATOM     22  H   UNL     1       6.976   6.418  15.135  0.00  0.00    +0.000 HD
ENDBRANCH  16  21
BRANCH  17  23
ATOM     23  O   UNL     1       7.200   7.700  17.034  0.00  0.00    +0.000 OA
ATOM     24  H   UNL     1       7.277   8.423  17.677  0.00  0.00    +0.000 HD
ENDBRANCH  17  23
BRANCH  18  25
ATOM     25  C   UNL     1       8.353   6.167  19.579  0.00  0.00    +0.000 C 
BRANCH  25  26
ATOM     26  O   UNL     1       8.094   5.313  20.683  0.00  0.00    +0.000 OA
ATOM     27  H   UNL     1       7.301   5.683  21.122  0.00  0.00    +0.000 HD
ENDBRANCH  25  26
ENDBRANCH  18  25
ENDBRANCH   1  20
TORSDOF 5
ENDMDL
MODEL 5
REMARK VINA RESULT:      -7.0      1.442      2.252
REMARK  Name = 
REMARK  6 active torsions:
REMARK  status: ('A' for Active; 'I' for Inactive)
REMARK    1  A    between atoms: C_1  and  C_2
REMARK    2  A    between atoms: C_2  and  O_3
REMARK    3  A    between atoms: C_4  and  O_5
REMARK    4  A    between atoms: C_6  and  C_7
REMARK    5  A    between atoms: C_7  and  O_8
REMARK    6  A    between atoms: C_10  and  N_11
REMARK                            x       y       z     vdW  Elec       q    Type
REMARK                         _______ _______ _______ _____ _____    ______ ____
ROOT
ATOM      1  N   UNL     1       4.842   4.927  18.221  0.00  0.00    +0.000 N 
ATOM      2  C   UNL     1       5.550   4.813  19.395  0.00  0.00    +0.000 C 
ATOM      3  N   UNL     1       6.840   4.893  19.389  0.00  0.00    +0.000 NA
ATOM      4  C   UNL     1       7.097   4.895  17.925  0.00  0.00    +0.000 C 
ATOM      5  C   UNL     1       7.363   6.265  17.328  0.00  0.00    +0.000 C 
ATOM      6  O   UNL     1       7.510   7.337  17.912  0.00  0.00    +0.000 OA
ATOM      7  N   UNL     1       7.480   6.159  15.964  0.00  0.00    +0.000 N 
ATOM      8  C   UNL     1       6.766   5.229  15.274  0.00  0.00    +0.000 C 
ATOM      9  N   UNL     1       7.143   5.079  13.975  0.00  0.00    +0.000 N 
ATOM     10  N   UNL     1       5.853   4.495  15.799  0.00  0.00    +0.000 NA
ATOM     11  C   UNL     1       5.792   4.368  17.259  0.00  0.00    +0.000 C 
ATOM     12  H   UNL     1       7.814   6.971  15.466  0.00  0.00    +0.000 HD
ATOM     13  H   UNL     1       8.111   5.324  13.782  0.00  0.00    +0.000 HD
ATOM     14  H   UNL     1       6.959   4.132  13.649  0.00  0.00    +0.000 HD
ENDROOT
BRANCH   1  20
ATOM     15  C   UNL     1       3.839   2.335  17.201  0.00  0.00    +0.000 C 
ATOM     16  C   UNL     1       2.927   3.310  17.955  0.00  0.00    +0.000 C 
ATOM     17  C   UNL     1       2.598   2.766  19.338  0.00  0.00    +0.000 C 
ATOM     18  C   UNL     1       1.949   3.997  19.947  0.00  0.00    +0.000 C 
ATOM     19  O   UNL     1       2.859   5.078  19.622  0.00  0.00    +0.000 OA
ATOM     20  C   UNL     1       3.395   4.795  18.299  0.00  0.00    +0.000 C 
BRANCH  16  21
ATOM     21  O   UNL     1       1.693   3.326  17.184  0.00  0.00    +0.000 OA
ATOM     22  H   UNL     1       1.690   4.189  16.742  0.00  0.00    +0.000 HD
ENDBRANCH  16  21
BRANCH  17  23
ATOM     23  O   UNL     1       1.741   1.631  19.200  0.00  0.00    +0.000 OA
ATOM     24  H   UNL     1       2.287   0.834  19.106  0.00  0.00    +0.000 HD
ENDBRANCH  17  23
BRANCH  18  25
ATOM     25  C   UNL     1       1.716   3.888  21.450  0.00  0.00    +0.000 C 
BRANCH  25  26
ATOM     26  O   UNL     1       2.296   2.702  21.972  0.00  0.00    +0.000 OA
ATOM     27  H   UNL     1       3.221   2.697  21.650  0.00  0.00    +0.000 HD
ENDBRANCH  25  26
ENDBRANCH  18  25
ENDBRANCH   1  20
TORSDOF 5
ENDMDL
MODEL 6
REMARK VINA RESULT:      -7.0      1.400      2.593
REMARK  Name = 
REMARK  6 active torsions:
REMARK  status: ('A' for Active; 'I' for Inactive)
REMARK    1  A    between atoms: C_1  and  C_2
REMARK    2  A    between atoms: C_2  and  O_3
REMARK    3  A    between atoms: C_4  and  O_5
REMARK    4  A    between atoms: C_6  and  C_7
REMARK    5  A    between atoms: C_7  and  O_8
REMARK    6  A    between atoms: C_10  and  N_11
REMARK                            x       y       z     vdW  Elec       q    Type
REMARK                         _______ _______ _______ _____ _____    ______ ____
ROOT
ATOM      1  N   UNL     1       4.748   4.736  17.530  0.00  0.00    +0.000 N 
ATOM      2  C   UNL     1       5.524   4.714  18.667  0.00  0.00    +0.000 C 
ATOM      3  N   UNL     1       6.812   4.669  18.575  0.00  0.00    +0.000 NA
ATOM      4  C   UNL     1       6.965   4.447  17.113  0.00  0.00    +0.000 C 
ATOM      5  C   UNL     1       7.306   5.691  16.314  0.00  0.00    +0.000 C 
ATOM      6  O   UNL     1       7.588   6.813  16.731  0.00  0.00    +0.000 OA
ATOM      7  N   UNL     1       7.318   5.390  14.974  0.00  0.00    +0.000 N 
ATOM      8  C   UNL     1       6.479   4.449  14.465  0.00  0.00    +0.000 C 
ATOM      9  N   UNL     1       6.750   4.089  13.181  0.00  0.00    +0.000 N 
ATOM     10  N   UNL     1       5.545   3.884  15.140  0.00  0.00    +0.000 NA
ATOM     11  C   UNL     1       5.576   3.963  16.605  0.00  0.00    +0.000 C 
ATOM     12  H   UNL     1       7.685   6.092  14.348  0.00  0.00    +0.000 HD
ATOM     13  H   UNL     1       7.719   4.210  12.900  0.00  0.00    +0.000 HD
ATOM     14  H   UNL     1       6.462   3.128  13.004  0.00  0.00    +0.000 HD
ENDROOT
BRANCH   1  20
ATOM     15  C   UNL     1       3.574   2.048  17.932  0.00  0.00    +0.000 C 
ATOM     16  C   UNL     1       2.752   3.323  18.146  0.00  0.00    +0.000 C 
ATOM     17  C   UNL     1       2.485   3.539  19.629  0.00  0.00    +0.000 C 
ATOM     18  C   UNL     1       1.927   4.951  19.584  0.00  0.00    +0.000 C 
ATOM     19  O   UNL     1       2.862   5.677  18.745  0.00  0.00    +0.000 OA
ATOM     20  C   UNL     1       3.304   4.755  17.709  0.00  0.00    +0.000 C 
BRANCH  16  21
ATOM     21  O   UNL     1       1.476   3.048  17.504  0.00  0.00    +0.000 OA
ATOM     22  H   UNL     1       0.904   2.729  18.218  0.00  0.00    +0.000 HD
ENDBRANCH  16  21
BRANCH  17  23
ATOM     23  O   UNL     1       1.573   2.539  20.088  0.00  0.00    +0.000 OA
ATOM     24  H   UNL     1       1.934   2.130  20.891  0.00  0.00    +0.000 HD
ENDBRANCH  17  23
BRANCH  18  25
ATOM     25  C   UNL     1       1.782   5.598  20.956  0.00  0.00    +0.000 C 
BRANCH  25  26
ATOM     26  O   UNL     1       1.911   7.010  20.871  0.00  0.00    +0.000 OA
ATOM     27  H   UNL     1       1.031   7.338  20.595  0.00  0.00    +0.000 HD
ENDBRANCH  25  26
ENDBRANCH  18  25
ENDBRANCH   1  20
TORSDOF 5
ENDMDL
MODEL 7
REMARK VINA RESULT:      -7.0      2.791      5.427
REMARK  Name = 
REMARK  6 active torsions:
REMARK  status: ('A' for Active; 'I' for Inactive)
REMARK    1  A    between atoms: C_1  and  C_2
REMARK    2  A    between atoms: C_2  and  O_3
REMARK    3  A    between atoms: C_4  and  O_5
REMARK    4  A    between atoms: C_6  and  C_7
REMARK    5  A    between atoms: C_7  and  O_8
REMARK    6  A    between atoms: C_10  and  N_11
REMARK                            x       y       z     vdW  Elec       q    Type
REMARK                         _______ _______ _______ _____ _____    ______ ____
ROOT
ATOM      1  N   UNL     1       2.954   3.800  17.964  0.00  0.00    +0.000 N 
ATOM      2  C   UNL     1       1.640   3.489  17.696  0.00  0.00    +0.000 C 
ATOM      3  N   UNL     1       1.013   2.627  18.425  0.00  0.00    +0.000 NA
ATOM      4  C   UNL     1       2.136   2.112  19.251  0.00  0.00    +0.000 C 
ATOM      5  C   UNL     1       2.222   2.702  20.647  0.00  0.00    +0.000 C 
ATOM      6  O   UNL     1       1.421   3.445  21.212  0.00  0.00    +0.000 OA
ATOM      7  N   UNL     1       3.350   2.237  21.276  0.00  0.00    +0.000 N 
ATOM      8  C   UNL     1       4.479   1.966  20.569  0.00  0.00    +0.000 C 
ATOM      9  N   UNL     1       5.438   1.303  21.271  0.00  0.00    +0.000 N 
ATOM     10  N   UNL     1       4.627   2.244  19.324  0.00  0.00    +0.000 NA
ATOM     11  C   UNL     1       3.440   2.534  18.513  0.00  0.00    +0.000 C 
ATOM     12  H   UNL     1       3.438   2.429  22.263  0.00  0.00    +0.000 HD
ATOM     13  H   UNL     1       5.088   0.736  22.039  0.00  0.00    +0.000 HD
ATOM     14  H   UNL     1       6.009   0.727  20.654  0.00  0.00    +0.000 HD
ENDROOT
BRANCH   1  20
ATOM     15  C   UNL     1       4.002   6.181  19.376  0.00  0.00    +0.000 C 
ATOM     16  C   UNL     1       4.349   5.900  17.910  0.00  0.00    +0.000 C 
ATOM     17  C   UNL     1       5.804   5.473  17.782  0.00  0.00    +0.000 C 
ATOM     18  C   UNL     1       5.805   5.002  16.338  0.00  0.00    +0.000 C 
ATOM     19  O   UNL     1       4.630   4.158  16.238  0.00  0.00    +0.000 OA
ATOM     20  C   UNL     1       3.607   4.756  17.082  0.00  0.00    +0.000 C 
BRANCH  16  21
ATOM     21  O   UNL     1       4.207   7.187  17.247  0.00  0.00    +0.000 OA
ATOM     22  H   UNL     1       5.056   7.330  16.803  0.00  0.00    +0.000 HD
ENDBRANCH  16  21
BRANCH  17  23
ATOM     23  O   UNL     1       6.644   6.596  18.056  0.00  0.00    +0.000 OA
ATOM     24  H   UNL     1       6.399   6.969  18.919  0.00  0.00    +0.000 HD
ENDBRANCH  17  23
BRANCH  18  25
ATOM     25  C   UNL     1       7.071   4.256  15.936  0.00  0.00    +0.000 C 
BRANCH  25  26
ATOM     26  O   UNL     1       7.978   4.164  17.025  0.00  0.00    +0.000 OA
ATOM     27  H   UNL     1       8.045   3.209  17.231  0.00  0.00    +0.000 HD
ENDBRANCH  25  26
ENDBRANCH  18  25
ENDBRANCH   1  20
TORSDOF 5
ENDMDL
MODEL 8
REMARK VINA RESULT:      -6.9      1.974      3.662
REMARK  Name = 
REMARK  6 active torsions:
REMARK  status: ('A' for Active; 'I' for Inactive)
REMARK    1  A    between atoms: C_1  and  C_2
REMARK    2  A    between atoms: C_2  and  O_3
REMARK    3  A    between atoms: C_4  and  O_5
REMARK    4  A    between atoms: C_6  and  C_7
REMARK    5  A    between atoms: C_7  and  O_8
REMARK    6  A    between atoms: C_10  and  N_11
REMARK                            x       y       z     vdW  Elec       q    Type
REMARK                         _______ _______ _______ _____ _____    ______ ____
ROOT
ATOM      1  N   UNL     1       4.520   4.805  17.122  0.00  0.00    +0.000 N 
ATOM      2  C   UNL     1       4.827   3.741  16.305  0.00  0.00    +0.000 C 
ATOM      3  N   UNL     1       5.988   3.664  15.743  0.00  0.00    +0.000 NA
ATOM      4  C   UNL     1       6.538   5.001  16.092  0.00  0.00    +0.000 C 
ATOM      5  C   UNL     1       7.499   5.006  17.267  0.00  0.00    +0.000 C 
ATOM      6  O   UNL     1       7.965   4.044  17.876  0.00  0.00    +0.000 OA
ATOM      7  N   UNL     1       7.858   6.297  17.565  0.00  0.00    +0.000 N 
ATOM      8  C   UNL     1       6.983   7.322  17.381  0.00  0.00    +0.000 C 
ATOM      9  N   UNL     1       7.536   8.561  17.495  0.00  0.00    +0.000 N 
ATOM     10  N   UNL     1       5.751   7.161  17.061  0.00  0.00    +0.000 NA
ATOM     11  C   UNL     1       5.319   5.870  16.516  0.00  0.00    +0.000 C 
ATOM     12  H   UNL     1       8.613   6.425  18.222  0.00  0.00    +0.000 HD
ATOM     13  H   UNL     1       8.529   8.605  17.284  0.00  0.00    +0.000 HD
ATOM     14  H   UNL     1       7.035   9.237  16.921  0.00  0.00    +0.000 HD
ENDROOT
BRANCH   1  20
ATOM     15  C   UNL     1       4.234   3.146  19.557  0.00  0.00    +0.000 C 
ATOM     16  C   UNL     1       3.138   4.123  19.118  0.00  0.00    +0.000 C 
ATOM     17  C   UNL     1       3.084   5.318  20.060  0.00  0.00    +0.000 C 
ATOM     18  C   UNL     1       2.155   6.223  19.270  0.00  0.00    +0.000 C 
ATOM     19  O   UNL     1       2.687   6.191  17.922  0.00  0.00    +0.000 OA
ATOM     20  C   UNL     1       3.182   4.842  17.694  0.00  0.00    +0.000 C 
BRANCH  16  21
ATOM     21  O   UNL     1       1.899   3.379  19.279  0.00  0.00    +0.000 OA
ATOM     22  H   UNL     1       2.139   2.458  19.101  0.00  0.00    +0.000 HD
ENDBRANCH  16  21
BRANCH  17  23
ATOM     23  O   UNL     1       2.583   4.888  21.328  0.00  0.00    +0.000 OA
ATOM     24  H   UNL     1       1.625   5.044  21.356  0.00  0.00    +0.000 HD
ENDBRANCH  17  23
BRANCH  18  25
ATOM     25  C   UNL     1       2.076   7.645  19.812  0.00  0.00    +0.000 C 
BRANCH  25  26
ATOM     26  O   UNL     1       1.813   7.646  21.208  0.00  0.00    +0.000 OA
ATOM     27  H   UNL     1       0.860   7.440  21.296  0.00  0.00    +0.000 HD
ENDBRANCH  25  26
ENDBRANCH  18  25
ENDBRANCH   1  20
TORSDOF 5
ENDMDL
MODEL 9
REMARK VINA RESULT:      -6.9      1.900      3.226
REMARK  Name = 
REMARK  6 active torsions:
REMARK  status: ('A' for Active; 'I' for Inactive)
REMARK    1  A    between atoms: C_1  and  C_2
REMARK    2  A    between atoms: C_2  and  O_3
REMARK    3  A    between atoms: C_4  and  O_5
REMARK    4  A    between atoms: C_6  and  C_7
REMARK    5  A    between atoms: C_7  and  O_8
REMARK    6  A    between atoms: C_10  and  N_11
REMARK                            x       y       z     vdW  Elec       q    Type
REMARK                         _______ _______ _______ _____ _____    ______ ____
ROOT
ATOM      1  N   UNL     1       3.044   5.896  18.165  0.00  0.00    +0.000 N 
ATOM      2  C   UNL     1       2.789   7.220  17.892  0.00  0.00    +0.000 C 
ATOM      3  N   UNL     1       3.741   7.998  17.495  0.00  0.00    +0.000 NA
ATOM      4  C   UNL     1       4.912   7.102  17.685  0.00  0.00    +0.000 C 
ATOM      5  C   UNL     1       5.411   6.431  16.419  0.00  0.00    +0.000 C 
ATOM      6  O   UNL     1       5.053   6.628  15.258  0.00  0.00    +0.000 OA
ATOM      7  N   UNL     1       6.418   5.551  16.728  0.00  0.00    +0.000 N 
ATOM      8  C   UNL     1       6.418   4.882  17.912  0.00  0.00    +0.000 C 
ATOM      9  N   UNL     1       7.578   4.224  18.187  0.00  0.00    +0.000 N 
ATOM     10  N   UNL     1       5.444   4.907  18.747  0.00  0.00    +0.000 NA
ATOM     11  C   UNL     1       4.431   5.961  18.629  0.00  0.00    +0.000 C 
ATOM     12  H   UNL     1       6.941   5.160  15.958  0.00  0.00    +0.000 HD
ATOM     13  H   UNL     1       8.405   4.618  17.747  0.00  0.00    +0.000 HD
ATOM     14  H   UNL     1       7.727   4.155  19.193  0.00  0.00    +0.000 HD
ENDROOT
BRANCH   1  20
ATOM     15  C   UNL     1       2.925   3.212  16.920  0.00  0.00    +0.000 C 
ATOM     16  C   UNL     1       2.040   3.583  18.116  0.00  0.00    +0.000 C 
ATOM     17  C   UNL     1       2.512   2.858  19.369  0.00  0.00    +0.000 C 
ATOM     18  C   UNL     1       1.684   3.589  20.412  0.00  0.00    +0.000 C 
ATOM     19  O   UNL     1       1.862   4.991  20.090  0.00  0.00    +0.000 OA
ATOM     20  C   UNL     1       1.932   5.086  18.639  0.00  0.00    +0.000 C 
BRANCH  16  21
ATOM     21  O   UNL     1       0.726   3.062  17.774  0.00  0.00    +0.000 OA
ATOM     22  H   UNL     1       0.109   3.574  18.319  0.00  0.00    +0.000 HD
ENDBRANCH  16  21
BRANCH  17  23
ATOM     23  O   UNL     1       2.228   1.464  19.234  0.00  0.00    +0.000 OA
ATOM     24  H   UNL     1       1.367   1.278  19.641  0.00  0.00    +0.000 HD
ENDBRANCH  17  23
BRANCH  18  25
ATOM     25  C   UNL     1       2.096   3.283  21.847  0.00  0.00    +0.000 C 
BRANCH  25  26
ATOM     26  O   UNL     1       3.077   2.257  21.889  0.00  0.00    +0.000 OA
ATOM     27  H   UNL     1       3.330   2.174  22.832  0.00  0.00    +0.000 HD
ENDBRANCH  25  26
ENDBRANCH  18  25
ENDBRANCH   1  20
TORSDOF 5
ENDMDL
