MODEL 1
REMARK VINA RESULT:      -7.2      0.000      0.000
REMARK  Name = 
REMARK  8 active torsions:
REMARK  status: ('A' for Active; 'I' for Inactive)
REMARK    1  A    between atoms: C_1  and  C_2
REMARK    2  A    between atoms: C_2  and  C_3
REMARK    3  A    between atoms: C_2  and  C_4
REMARK    4  A    between atoms: C_2  and  C_5
REMARK    5  A    between atoms: C_8  and  C_9
REMARK    6  A    between atoms: C_9  and  N_10
REMARK    7  A    between atoms: C_12  and  O_13
REMARK    8  A    between atoms: C_14  and  O_15
REMARK                            x       y       z     vdW  Elec       q    Type
REMARK                         _______ _______ _______ _____ _____    ______ ____
ROOT
ATOM      1  C   UNL     1       6.791   5.581  19.304  0.00  0.00    +0.000 C 
ENDROOT
BRANCH   1   5
ATOM      2  C   UNL     1       3.552   4.149  19.713  0.00  0.00    +0.000 A 
ATOM      3  N   UNL     1       4.267   3.016  19.652  0.00  0.00    +0.000 NA
ATOM      4  O   UNL     1       5.571   3.467  19.425  0.00  0.00    +0.000 OA
ATOM      5  C   UNL     1       5.505   4.829  19.386  0.00  0.00    +0.000 A 
ATOM      6  N   UNL     1       4.287   5.297  19.542  0.00  0.00    +0.000 NA
BRANCH   2   8
ATOM      7  C   UNL     1       1.245   3.784  18.885  0.00  0.00    +0.000 C 
ATOM      8  C   UNL     1       2.095   4.199  20.102  0.00  0.00    +0.000 C 
ATOM      9  C   UNL     1       1.657   5.605  20.556  0.00  0.00    +0.000 C 
ATOM     10  C   UNL     1       1.814   3.218  21.258  0.00  0.00    +0.000 C 
ENDBRANCH   2   8
ENDBRANCH   1   5
BRANCH   1  11
ATOM     11  N   UNL     1       7.286   5.844  17.932  0.00  0.00    +0.000 NA
ATOM     12  C   UNL     1       7.334   4.606  17.114  0.00  0.00    +0.000 C 
ATOM     13  C   UNL     1       6.642   4.924  15.787  0.00  0.00    +0.000 C 
ATOM     14  C   UNL     1       5.628   5.991  16.181  0.00  0.00    +0.000 C 
ATOM     15  C   UNL     1       6.380   6.789  17.243  0.00  0.00    +0.000 C 
BRANCH  13  16
ATOM     16  O   UNL     1       7.553   5.472  14.828  0.00  0.00    +0.000 OA
ATOM     17  H   UNL     1       7.997   4.723  14.386  0.00  0.00    +0.000 HD
ENDBRANCH  13  16
BRANCH  14  18
ATOM     18  O   UNL     1       5.256   6.796  15.071  0.00  0.00    +0.000 OA
ATOM     19  H   UNL     1       4.293   6.661  14.957  0.00  0.00    +0.000 HD
ENDBRANCH  14  18
ENDBRANCH   1  11
TORSDOF 5
ENDMDL
MODEL 2
REMARK VINA RESULT:      -7.2      0.688      1.434
REMARK  Name = 
REMARK  8 active torsions:
REMARK  status: ('A' for Active; 'I' for Inactive)
REMARK    1  A    between atoms: C_1  and  C_2
REMARK    2  A    between atoms: C_2  and  C_3
REMARK    3  A    between atoms: C_2  and  C_4
REMARK    4  A    between atoms: C_2  and  C_5
REMARK    5  A    between atoms: C_8  and  C_9
REMARK    6  A    between atoms: C_9  and  N_10
REMARK    7  A    between atoms: C_12  and  O_13
REMARK    8  A    between atoms: C_14  and  O_15
REMARK                            x       y       z     vdW  Elec       q    Type
REMARK                         _______ _______ _______ _____ _____    ______ ____
ROOT
ATOM      1  C   UNL     1       6.452   5.412  19.207  0.00  0.00    +0.000 C 
ENDROOT
BRANCH   1   5
ATOM      2  C   UNL     1       3.352   3.656  19.077  0.00  0.00    +0.000 A 
ATOM      3  N   UNL     1       4.118   2.676  19.581  0.00  0.00    +0.000 NA
ATOM      4  O   UNL     1       5.394   3.248  19.616  0.00  0.00    +0.000 OA
ATOM      5  C   UNL     1       5.259   4.519  19.140  0.00  0.00    +0.000 A 
ATOM      6  N   UNL     1       4.029   4.814  18.781  0.00  0.00    +0.000 NA
BRANCH   2   8
ATOM      7  C   UNL     1       1.248   4.202  20.267  0.00  0.00    +0.000 C 
ATOM      8  C   UNL     1       1.848   3.581  18.990  0.00  0.00    +0.000 C 
ATOM      9  C   UNL     1       1.340   2.132  18.858  0.00  0.00    +0.000 C 
ATOM     10  C   UNL     1       1.341   4.375  17.770  0.00  0.00    +0.000 C 
ENDBRANCH   2   8
ENDBRANCH   1   5
BRANCH   1  11
ATOM     11  N   UNL     1       7.062   5.755  17.901  0.00  0.00    +0.000 NA
ATOM     12  C   UNL     1       7.192   4.565  17.021  0.00  0.00    +0.000 C 
ATOM     13  C   UNL     1       6.616   4.957  15.659  0.00  0.00    +0.000 C 
ATOM     14  C   UNL     1       5.563   5.996  16.022  0.00  0.00    +0.000 C 
ATOM     15  C   UNL     1       6.213   6.735  17.189  0.00  0.00    +0.000 C 
BRANCH  13  16
ATOM     16  O   UNL     1       7.603   5.561  14.816  0.00  0.00    +0.000 OA
ATOM     17  H   UNL     1       7.827   6.429  15.203  0.00  0.00    +0.000 HD
ENDBRANCH  13  16
BRANCH  14  18
ATOM     18  O   UNL     1       5.283   6.862  14.931  0.00  0.00    +0.000 OA
ATOM     19  H   UNL     1       6.101   6.880  14.391  0.00  0.00    +0.000 HD
ENDBRANCH  14  18
ENDBRANCH   1  11
TORSDOF 5
ENDMDL
MODEL 3
REMARK VINA RESULT:      -7.1      0.141      1.091
REMARK  Name = 
REMARK  8 active torsions:
REMARK  status: ('A' for Active; 'I' for Inactive)
REMARK    1  A    between atoms: C_1  and  C_2
REMARK    2  A    between atoms: C_2  and  C_3
REMARK    3  A    between atoms: C_2  and  C_4
REMARK    4  A    between atoms: C_2  and  C_5
REMARK    5  A    between atoms: C_8  and  C_9
REMARK    6  A    between atoms: C_9  and  N_10
REMARK    7  A    between atoms: C_12  and  O_13
REMARK    8  A    between atoms: C_14  and  O_15
REMARK                            x       y       z     vdW  Elec       q    Type
REMARK                         _______ _______ _______ _____ _____    ______ ____
ROOT
ATOM      1  C   UNL     1       6.743   5.523  19.329  0.00  0.00    +0.000 C 
ENDROOT
BRANCH   1   5
ATOM      2  C   UNL     1       3.496   4.112  19.751  0.00  0.00    +0.000 A 
ATOM      3  N   UNL     1       4.183   2.979  19.544  0.00  0.00    +0.000 NA
ATOM      4  O   UNL     1       5.484   3.429  19.300  0.00  0.00    +0.000 OA
ATOM      5  C   UNL     1       5.446   4.788  19.398  0.00  0.00    +0.000 A 
ATOM      6  N   UNL     1       4.247   5.259  19.659  0.00  0.00    +0.000 NA
BRANCH   2   8
ATOM      7  C   UNL     1       1.935   3.307  21.500  0.00  0.00    +0.000 C 
ATOM      8  C   UNL     1       2.060   4.148  20.214  0.00  0.00    +0.000 C 
ATOM      9  C   UNL     1       1.090   3.584  19.157  0.00  0.00    +0.000 C 
ATOM     10  C   UNL     1       1.633   5.596  20.527  0.00  0.00    +0.000 C 
ENDBRANCH   2   8
ENDBRANCH   1   5
BRANCH   1  11
ATOM     11  N   UNL     1       7.241   5.802  17.962  0.00  0.00    +0.000 NA
ATOM     12  C   UNL     1       7.296   4.572  17.131  0.00  0.00    +0.000 C 
ATOM     13  C   UNL     1       6.607   4.902  15.805  0.00  0.00    +0.000 C 
ATOM     14  C   UNL     1       5.589   5.962  16.206  0.00  0.00    +0.000 C 
ATOM     15  C   UNL     1       6.335   6.752  17.278  0.00  0.00    +0.000 C 
BRANCH  13  16
ATOM     16  O   UNL     1       7.520   5.462  14.854  0.00  0.00    +0.000 OA
ATOM     17  H   UNL     1       6.989   5.862  14.140  0.00  0.00    +0.000 HD
ENDBRANCH  13  16
BRANCH  14  18
ATOM     18  O   UNL     1       5.219   6.777  15.103  0.00  0.00    +0.000 OA
ATOM     19  H   UNL     1       4.572   7.423  15.456  0.00  0.00    +0.000 HD
ENDBRANCH  14  18
ENDBRANCH   1  11
TORSDOF 5
ENDMDL
MODEL 4
REMARK VINA RESULT:      -7.0      1.570      2.124
REMARK  Name = 
REMARK  8 active torsions:
REMARK  status: ('A' for Active; 'I' for Inactive)
REMARK    1  A    between atoms: C_1  and  C_2
REMARK    2  A    between atoms: C_2  and  C_3
REMARK    3  A    between atoms: C_2  and  C_4
REMARK    4  A    between atoms: C_2  and  C_5
REMARK    5  A    between atoms: C_8  and  C_9
REMARK    6  A    between atoms: C_9  and  N_10
REMARK    7  A    between atoms: C_12  and  O_13
REMARK    8  A    between atoms: C_14  and  O_15
REMARK                            x       y       z     vdW  Elec       q    Type
REMARK                         _______ _______ _______ _____ _____    ______ ____
ROOT
ATOM      1  C   UNL     1       5.823   4.581  18.101  0.00  0.00    +0.000 C 
ENDROOT
BRANCH   1   5
ATOM      2  C   UNL     1       2.997   3.267  19.833  0.00  0.00    +0.000 A 
ATOM      3  N   UNL     1       3.947   2.495  20.382  0.00  0.00    +0.000 NA
ATOM      4  O   UNL     1       5.111   2.891  19.716  0.00  0.00    +0.000 OA
ATOM      5  C   UNL     1       4.740   3.870  18.843  0.00  0.00    +0.000 A 
ATOM      6  N   UNL     1       3.451   4.128  18.864  0.00  0.00    +0.000 NA
BRANCH   2   8
ATOM      7  C   UNL     1       1.496   2.591  21.686  0.00  0.00    +0.000 C 
ATOM      8  C   UNL     1       1.574   3.326  20.333  0.00  0.00    +0.000 C 
ATOM      9  C   UNL     1       0.582   2.670  19.354  0.00  0.00    +0.000 C 
ATOM     10  C   UNL     1       1.139   4.790  20.540  0.00  0.00    +0.000 C 
ENDBRANCH   2   8
ENDBRANCH   1   5
BRANCH   1  11
ATOM     11  N   UNL     1       6.266   3.929  16.847  0.00  0.00    +0.000 NA
ATOM     12  C   UNL     1       5.187   3.898  15.827  0.00  0.00    +0.000 C 
ATOM     13  C   UNL     1       5.795   4.422  14.525  0.00  0.00    +0.000 C 
ATOM     14  C   UNL     1       6.873   5.380  15.014  0.00  0.00    +0.000 C 
ATOM     15  C   UNL     1       7.400   4.678  16.263  0.00  0.00    +0.000 C 
BRANCH  13  16
ATOM     16  O   UNL     1       6.406   3.375  13.761  0.00  0.00    +0.000 OA
ATOM     17  H   UNL     1       6.196   2.531  14.204  0.00  0.00    +0.000 HD
ENDBRANCH  13  16
BRANCH  14  18
ATOM     18  O   UNL     1       7.889   5.568  14.039  0.00  0.00    +0.000 OA
ATOM     19  H   UNL     1       8.196   6.492  14.151  0.00  0.00    +0.000 HD
ENDBRANCH  14  18
ENDBRANCH   1  11
TORSDOF 5
ENDMDL
MODEL 5
REMARK VINA RESULT:      -7.0      1.607      1.879
REMARK  Name = 
REMARK  8 active torsions:
REMARK  status: ('A' for Active; 'I' for Inactive)
REMARK    1  A    between atoms: C_1  and  C_2
REMARK    2  A    between atoms: C_2  and  C_3
REMARK    3  A    between atoms: C_2  and  C_4
REMARK    4  A    between atoms: C_2  and  C_5
REMARK    5  A    between atoms: C_8  and  C_9
REMARK    6  A    between atoms: C_9  and  N_10
REMARK    7  A    between atoms: C_12  and  O_13
REMARK    8  A    between atoms: C_14  and  O_15
REMARK                            x       y       z     vdW  Elec       q    Type
REMARK                         _______ _______ _______ _____ _____    ______ ____
ROOT
ATOM      1  C   UNL     1       5.709   4.668  17.939  0.00  0.00    +0.000 C 
ENDROOT
BRANCH   1   5
ATOM      2  C   UNL     1       2.985   3.295  19.786  0.00  0.00    +0.000 A 
ATOM      3  N   UNL     1       3.982   2.588  20.340  0.00  0.00    +0.000 NA
ATOM      4  O   UNL     1       5.111   3.009  19.632  0.00  0.00    +0.000 OA
ATOM      5  C   UNL     1       4.677   3.938  18.733  0.00  0.00    +0.000 A 
ATOM      6  N   UNL     1       3.378   4.138  18.776  0.00  0.00    +0.000 NA
BRANCH   2   8
ATOM      7  C   UNL     1       0.660   2.579  19.312  0.00  0.00    +0.000 C 
ATOM      8  C   UNL     1       1.573   3.309  20.318  0.00  0.00    +0.000 C 
ATOM      9  C   UNL     1       1.039   4.739  20.524  0.00  0.00    +0.000 C 
ATOM     10  C   UNL     1       1.502   2.575  21.672  0.00  0.00    +0.000 C 
ENDBRANCH   2   8
ENDBRANCH   1   5
BRANCH   1  11
ATOM     11  N   UNL     1       6.190   3.966  16.726  0.00  0.00    +0.000 NA
ATOM     12  C   UNL     1       5.151   3.920  15.665  0.00  0.00    +0.000 C 
ATOM     13  C   UNL     1       5.819   4.390  14.372  0.00  0.00    +0.000 C 
ATOM     14  C   UNL     1       6.895   5.345  14.872  0.00  0.00    +0.000 C 
ATOM     15  C   UNL     1       7.359   4.676  16.163  0.00  0.00    +0.000 C 
BRANCH  13  16
ATOM     16  O   UNL     1       6.440   3.308  13.668  0.00  0.00    +0.000 OA
ATOM     17  H   UNL     1       5.970   3.204  12.819  0.00  0.00    +0.000 HD
ENDBRANCH  13  16
BRANCH  14  18
ATOM     18  O   UNL     1       7.951   5.483  13.932  0.00  0.00    +0.000 OA
ATOM     19  H   UNL     1       8.325   6.377  14.083  0.00  0.00    +0.000 HD
ENDBRANCH  14  18
ENDBRANCH   1  11
TORSDOF 5
ENDMDL
MODEL 6
REMARK VINA RESULT:      -6.8      1.024      1.445
REMARK  Name = 
REMARK  8 active torsions:
REMARK  status: ('A' for Active; 'I' for Inactive)
REMARK    1  A    between atoms: C_1  and  C_2
REMARK    2  A    between atoms: C_2  and  C_3
REMARK    3  A    between atoms: C_2  and  C_4
REMARK    4  A    between atoms: C_2  and  C_5
REMARK    5  A    between atoms: C_8  and  C_9
REMARK    6  A    between atoms: C_9  and  N_10
REMARK    7  A    between atoms: C_12  and  O_13
REMARK    8  A    between atoms: C_14  and  O_15
REMARK                            x       y       z     vdW  Elec       q    Type
REMARK                         _______ _______ _______ _____ _____    ______ ____
ROOT
ATOM      1  C   UNL     1       6.033   5.526  19.288  0.00  0.00    +0.000 C 
ENDROOT
BRANCH   1   5
ATOM      2  C   UNL     1       3.116   3.541  19.801  0.00  0.00    +0.000 A 
ATOM      3  N   UNL     1       4.023   2.555  19.735  0.00  0.00    +0.000 NA
ATOM      4  O   UNL     1       5.218   3.229  19.468  0.00  0.00    +0.000 OA
ATOM      5  C   UNL     1       4.906   4.556  19.414  0.00  0.00    +0.000 A 
ATOM      6  N   UNL     1       3.627   4.800  19.596  0.00  0.00    +0.000 NA
BRANCH   2   8
ATOM      7  C   UNL     1       1.022   4.714  20.419  0.00  0.00    +0.000 C 
ATOM      8  C   UNL     1       1.683   3.334  20.228  0.00  0.00    +0.000 C 
ATOM      9  C   UNL     1       1.573   2.545  21.546  0.00  0.00    +0.000 C 
ATOM     10  C   UNL     1       0.907   2.561  19.144  0.00  0.00    +0.000 C 
ENDBRANCH   2   8
ENDBRANCH   1   5
BRANCH   1  11
ATOM     11  N   UNL     1       6.473   5.812  17.903  0.00  0.00    +0.000 NA
ATOM     12  C   UNL     1       7.547   4.886  17.461  0.00  0.00    +0.000 C 
ATOM     13  C   UNL     1       7.131   4.347  16.091  0.00  0.00    +0.000 C 
ATOM     14  C   UNL     1       5.610   4.375  16.163  0.00  0.00    +0.000 C 
ATOM     15  C   UNL     1       5.338   5.643  16.968  0.00  0.00    +0.000 C 
BRANCH  13  16
ATOM     16  O   UNL     1       7.568   5.199  15.027  0.00  0.00    +0.000 OA
ATOM     17  H   UNL     1       6.787   5.409  14.481  0.00  0.00    +0.000 HD
ENDBRANCH  13  16
BRANCH  14  18
ATOM     18  O   UNL     1       5.025   4.429  14.869  0.00  0.00    +0.000 OA
ATOM     19  H   UNL     1       4.749   5.360  14.742  0.00  0.00    +0.000 HD
ENDBRANCH  14  18
ENDBRANCH   1  11
TORSDOF 5
ENDMDL
MODEL 7
REMARK VINA RESULT:      -6.8      1.050      1.097
REMARK  Name = 
REMARK  8 active torsions:
REMARK  status: ('A' for Active; 'I' for Inactive)
REMARK    1  A    between atoms: C_1  and  C_2
REMARK    2  A    between atoms: C_2  and  C_3
REMARK    3  A    between atoms: C_2  and  C_4
REMARK    4  A    between atoms: C_2  and  C_5
REMARK    5  A    between atoms: C_8  and  C_9
REMARK    6  A    between atoms: C_9  and  N_10
REMARK    7  A    between atoms: C_12  and  O_13
REMARK    8  A    between atoms: C_14  and  O_15
REMARK                            x       y       z     vdW  Elec       q    Type
REMARK                         _______ _______ _______ _____ _____    ______ ____
ROOT
ATOM      1  C   UNL     1       6.087   5.356  19.336  0.00  0.00    +0.000 C 
ENDROOT
BRANCH   1   5
ATOM      2  C   UNL     1       3.088   3.486  19.804  0.00  0.00    +0.000 A 
ATOM      3  N   UNL     1       3.953   2.464  19.724  0.00  0.00    +0.000 NA
ATOM      4  O   UNL     1       5.177   3.093  19.473  0.00  0.00    +0.000 OA
ATOM      5  C   UNL     1       4.921   4.432  19.441  0.00  0.00    +0.000 A 
ATOM      6  N   UNL     1       3.652   4.725  19.623  0.00  0.00    +0.000 NA
BRANCH   2   8
ATOM      7  C   UNL     1       0.907   2.510  19.147  0.00  0.00    +0.000 C 
ATOM      8  C   UNL     1       1.646   3.332  20.221  0.00  0.00    +0.000 C 
ATOM      9  C   UNL     1       0.935   4.689  20.385  0.00  0.00    +0.000 C 
ATOM     10  C   UNL     1       1.555   2.582  21.566  0.00  0.00    +0.000 C 
ENDBRANCH   2   8
ENDBRANCH   1   5
BRANCH   1  11
ATOM     11  N   UNL     1       6.481   5.727  17.957  0.00  0.00    +0.000 NA
ATOM     12  C   UNL     1       7.577   4.866  17.444  0.00  0.00    +0.000 C 
ATOM     13  C   UNL     1       7.146   4.381  16.058  0.00  0.00    +0.000 C 
ATOM     14  C   UNL     1       5.627   4.348  16.167  0.00  0.00    +0.000 C 
ATOM     15  C   UNL     1       5.330   5.563  17.042  0.00  0.00    +0.000 C 
BRANCH  13  16
ATOM     16  O   UNL     1       7.525   5.301  15.029  0.00  0.00    +0.000 OA
ATOM     17  H   UNL     1       6.993   6.110  15.150  0.00  0.00    +0.000 HD
ENDBRANCH  13  16
BRANCH  14  18
ATOM     18  O   UNL     1       5.008   4.445  14.892  0.00  0.00    +0.000 OA
ATOM     19  H   UNL     1       5.159   3.579  14.458  0.00  0.00    +0.000 HD
ENDBRANCH  14  18
ENDBRANCH   1  11
TORSDOF 5
ENDMDL
MODEL 8
REMARK VINA RESULT:      -6.7      1.222      1.887
REMARK  Name = 
REMARK  8 active torsions:
REMARK  status: ('A' for Active; 'I' for Inactive)
REMARK    1  A    between atoms: C_1  and  C_2
REMARK    2  A    between atoms: C_2  and  C_3
REMARK    3  A    between atoms: C_2  and  C_4
REMARK    4  A    between atoms: C_2  and  C_5
REMARK    5  A    between atoms: C_8  and  C_9
REMARK    6  A    between atoms: C_9  and  N_10
REMARK    7  A    between atoms: C_12  and  O_13
REMARK    8  A    between atoms: C_14  and  O_15
REMARK                            x       y       z     vdW  Elec       q    Type
REMARK                         _______ _______ _______ _____ _____    ______ ____
ROOT
ATOM      1  C   UNL     1       6.965   5.487  19.229  0.00  0.00    +0.000 C 
ENDROOT
BRANCH   1   5
ATOM      2  C   UNL     1       3.772   3.901  19.262  0.00  0.00    +0.000 A 
ATOM      3  N   UNL     1       3.378   5.152  19.544  0.00  0.00    +0.000 NA
ATOM      4  O   UNL     1       4.581   5.861  19.618  0.00  0.00    +0.000 OA
ATOM      5  C   UNL     1       5.574   4.962  19.361  0.00  0.00    +0.000 A 
ATOM      6  N   UNL     1       5.132   3.742  19.151  0.00  0.00    +0.000 NA
BRANCH   2   8
ATOM      7  C   UNL     1       1.959   2.474  20.168  0.00  0.00    +0.000 C 
ATOM      8  C   UNL     1       2.819   2.780  18.926  0.00  0.00    +0.000 C 
ATOM      9  C   UNL     1       3.554   1.493  18.503  0.00  0.00    +0.000 C 
ATOM     10  C   UNL     1       1.887   3.196  17.770  0.00  0.00    +0.000 C 
ENDBRANCH   2   8
ENDBRANCH   1   5
BRANCH   1  11
ATOM     11  N   UNL     1       7.404   5.777  17.844  0.00  0.00    +0.000 NA
ATOM     12  C   UNL     1       7.422   4.554  17.001  0.00  0.00    +0.000 C 
ATOM     13  C   UNL     1       6.678   4.896  15.709  0.00  0.00    +0.000 C 
ATOM     14  C   UNL     1       5.679   5.953  16.162  0.00  0.00    +0.000 C 
ATOM     15  C   UNL     1       6.472   6.733  17.208  0.00  0.00    +0.000 C 
BRANCH  13  16
ATOM     16  O   UNL     1       7.551   5.463  14.725  0.00  0.00    +0.000 OA
ATOM     17  H   UNL     1       7.780   4.754  14.094  0.00  0.00    +0.000 HD
ENDBRANCH  13  16
BRANCH  14  18
ATOM     18  O   UNL     1       5.264   6.778  15.083  0.00  0.00    +0.000 OA
ATOM     19  H   UNL     1       5.852   7.561  15.107  0.00  0.00    +0.000 HD
ENDBRANCH  14  18
ENDBRANCH   1  11
TORSDOF 5
ENDMDL
MODEL 9
REMARK VINA RESULT:      -6.5      2.027      2.780
REMARK  Name = 
REMARK  8 active torsions:
REMARK  status: ('A' for Active; 'I' for Inactive)
REMARK    1  A    between atoms: C_1  and  C_2
REMARK    2  A    between atoms: C_2  and  C_3
REMARK    3  A    between atoms: C_2  and  C_4
REMARK    4  A    between atoms: C_2  and  C_5
REMARK    5  A    between atoms: C_8  and  C_9
REMARK    6  A    between atoms: C_9  and  N_10
REMARK    7  A    between atoms: C_12  and  O_13
REMARK    8  A    between atoms: C_14  and  O_15
REMARK                            x       y       z     vdW  Elec       q    Type
REMARK                         _______ _______ _______ _____ _____    ______ ____
ROOT
ATOM      1  C   UNL     1       5.632   3.555  16.519  0.00  0.00    +0.000 C 
ENDROOT
BRANCH   1   5
ATOM      2  C   UNL     1       2.869   3.876  18.749  0.00  0.00    +0.000 A 
ATOM      3  N   UNL     1       2.212   4.034  17.590  0.00  0.00    +0.000 NA
ATOM      4  O   UNL     1       3.229   3.987  16.632  0.00  0.00    +0.000 OA
ATOM      5  C   UNL     1       4.393   3.793  17.316  0.00  0.00    +0.000 A 
ATOM      6  N   UNL     1       4.229   3.734  18.619  0.00  0.00    +0.000 NA
BRANCH   2   8
ATOM      7  C   UNL     1       2.036   5.081  20.749  0.00  0.00    +0.000 C 
ATOM      8  C   UNL     1       2.184   3.698  20.082  0.00  0.00    +0.000 C 
ATOM      9  C   UNL     1       2.974   2.774  21.028  0.00  0.00    +0.000 C 
ATOM     10  C   UNL     1       0.780   3.091  19.887  0.00  0.00    +0.000 C 
ENDBRANCH   2   8
ENDBRANCH   1   5
BRANCH   1  11
ATOM     11  N   UNL     1       6.566   4.702  16.440  0.00  0.00    +0.000 NA
ATOM     12  C   UNL     1       5.852   6.003  16.505  0.00  0.00    +0.000 C 
ATOM     13  C   UNL     1       6.571   6.850  17.557  0.00  0.00    +0.000 C 
ATOM     14  C   UNL     1       7.123   5.804  18.517  0.00  0.00    +0.000 C 
ATOM     15  C   UNL     1       7.509   4.663  17.579  0.00  0.00    +0.000 C 
BRANCH  13  16
ATOM     16  O   UNL     1       7.659   7.591  16.993  0.00  0.00    +0.000 OA
ATOM     17  H   UNL     1       7.279   8.235  16.365  0.00  0.00    +0.000 HD
ENDBRANCH  13  16
BRANCH  14  18
ATOM     18  O   UNL     1       8.238   6.297  19.246  0.00  0.00    +0.000 OA
ATOM     19  H   UNL     1       8.889   6.583  18.572  0.00  0.00    +0.000 HD
ENDBRANCH  14  18
ENDBRANCH   1  11
TORSDOF 5
ENDMDL
