MODEL 1
REMARK VINA RESULT:      -7.3      0.000      0.000
REMARK  Name = 
REMARK  7 active torsions:
REMARK  status: ('A' for Active; 'I' for Inactive)
REMARK    1  A    between atoms: C_1  and  C_2
REMARK    2  A    between atoms: C_3  and  S_4
REMARK    3  A    between atoms: S_4  and  N_7
REMARK    4  A    between atoms: C_10  and  C_11
REMARK    5  A    between atoms: C_11  and  C_12
REMARK    6  A    between atoms: C_11  and  C_13
REMARK    7  A    between atoms: N_19  and  C_20
REMARK                            x       y       z     vdW  Elec       q    Type
REMARK                         _______ _______ _______ _____ _____    ______ ____
ROOT
ATOM      1  N   UNL     1       5.483   5.910  17.190  0.00  0.00    +0.000 N 
ATOM      2  C   UNL     1       6.040   5.438  16.009  0.00  0.00    +0.000 A 
ATOM      3  C   UNL     1       5.403   4.621  15.062  0.00  0.00    +0.000 A 
ATOM      4  C   UNL     1       6.327   4.486  14.052  0.00  0.00    +0.000 A 
ATOM      5  O   UNL     1       7.450   5.182  14.384  0.00  0.00    +0.000 OA
ATOM      6  N   UNL     1       7.252   5.822  15.599  0.00  0.00    +0.000 NA
ATOM      7  H   UNL     1       5.811   6.842  17.431  0.00  0.00    +0.000 HD
ENDROOT
BRANCH   4   8
ATOM      8  C   UNL     1       6.303   3.784  12.737  0.00  0.00    +0.000 C 
ATOM      9  C   UNL     1       4.890   3.699  12.166  0.00  0.00    +0.000 C 
ATOM     10  C   UNL     1       7.259   4.421  11.734  0.00  0.00    +0.000 C 
ATOM     11  F   UNL     1       6.728   2.492  12.918  0.00  0.00    +0.000 F 
ENDBRANCH   4   8
BRANCH   1  12
ATOM     12  S   UNL     1       5.673   4.934  18.560  0.00  0.00    +0.000 S 
ATOM     13  O   UNL     1       5.606   5.757  19.747  0.00  0.00    +0.000 OA
ATOM     14  O   UNL     1       6.792   4.056  18.296  0.00  0.00    +0.000 OA
BRANCH  12  17
ATOM     15  C   UNL     1       2.262   5.343  18.089  0.00  0.00    +0.000 C 
ATOM     16  C   UNL     1       2.993   4.114  18.476  0.00  0.00    +0.000 A 
ATOM     17  C   UNL     1       4.339   3.858  18.680  0.00  0.00    +0.000 A 
ATOM     18  C   UNL     1       4.415   2.492  19.001  0.00  0.00    +0.000 A 
ATOM     19  N   UNL     1       3.214   1.915  19.021  0.00  0.00    +0.000 NA
ATOM     20  N   UNL     1       2.365   2.911  18.704  0.00  0.00    +0.000 N 
ATOM     21  C   UNL     1       0.944   2.643  18.649  0.00  0.00    +0.000 C 
ENDBRANCH  12  17
ENDBRANCH   1  12
TORSDOF 3
ENDMDL
MODEL 2
REMARK VINA RESULT:      -7.0      0.745      1.384
REMARK  Name = 
REMARK  7 active torsions:
REMARK  status: ('A' for Active; 'I' for Inactive)
REMARK    1  A    between atoms: C_1  and  C_2
REMARK    2  A    between atoms: C_3  and  S_4
REMARK    3  A    between atoms: S_4  and  N_7
REMARK    4  A    between atoms: C_10  and  C_11
REMARK    5  A    between atoms: C_11  and  C_12
REMARK    6  A    between atoms: C_11  and  C_13
REMARK    7  A    between atoms: N_19  and  C_20
REMARK                            x       y       z     vdW  Elec       q    Type
REMARK                         _______ _______ _______ _____ _____    ______ ____
ROOT
ATOM      1  N   UNL     1       5.417   5.984  17.177  0.00  0.00    +0.000 N 
ATOM      2  C   UNL     1       6.008   5.418  16.055  0.00  0.00    +0.000 A 
ATOM      3  C   UNL     1       5.335   4.810  14.983  0.00  0.00    +0.000 A 
ATOM      4  C   UNL     1       6.334   4.473  14.100  0.00  0.00    +0.000 A 
ATOM      5  O   UNL     1       7.533   4.857  14.621  0.00  0.00    +0.000 OA
ATOM      6  N   UNL     1       7.323   5.497  15.835  0.00  0.00    +0.000 NA
ATOM      7  H   UNL     1       5.925   6.798  17.515  0.00  0.00    +0.000 HD
ENDROOT
BRANCH   4   8
ATOM      8  C   UNL     1       6.329   3.833  12.753  0.00  0.00    +0.000 C 
ATOM      9  C   UNL     1       4.922   3.749  12.171  0.00  0.00    +0.000 C 
ATOM     10  C   UNL     1       7.278   4.535  11.787  0.00  0.00    +0.000 C 
ATOM     11  F   UNL     1       6.778   2.543  12.877  0.00  0.00    +0.000 F 
ENDBRANCH   4   8
BRANCH   1  12
ATOM     12  S   UNL     1       5.163   4.958  18.498  0.00  0.00    +0.000 S 
ATOM     13  O   UNL     1       5.165   5.737  19.717  0.00  0.00    +0.000 OA
ATOM     14  O   UNL     1       6.033   3.817  18.315  0.00  0.00    +0.000 OA
BRANCH  12  17
ATOM     15  C   UNL     1       3.507   2.543  20.356  0.00  0.00    +0.000 C 
ATOM     16  C   UNL     1       3.005   3.304  19.188  0.00  0.00    +0.000 A 
ATOM     17  C   UNL     1       3.586   4.281  18.396  0.00  0.00    +0.000 A 
ATOM     18  C   UNL     1       2.599   4.642  17.464  0.00  0.00    +0.000 A 
ATOM     19  N   UNL     1       1.477   3.943  17.628  0.00  0.00    +0.000 NA
ATOM     20  N   UNL     1       1.741   3.137  18.673  0.00  0.00    +0.000 N 
ATOM     21  C   UNL     1       0.729   2.207  19.127  0.00  0.00    +0.000 C 
ENDBRANCH  12  17
ENDBRANCH   1  12
TORSDOF 3
ENDMDL
MODEL 3
REMARK VINA RESULT:      -6.8      0.897      1.285
REMARK  Name = 
REMARK  7 active torsions:
REMARK  status: ('A' for Active; 'I' for Inactive)
REMARK    1  A    between atoms: C_1  and  C_2
REMARK    2  A    between atoms: C_3  and  S_4
REMARK    3  A    between atoms: S_4  and  N_7
REMARK    4  A    between atoms: C_10  and  C_11
REMARK    5  A    between atoms: C_11  and  C_12
REMARK    6  A    between atoms: C_11  and  C_13
REMARK    7  A    between atoms: N_19  and  C_20
REMARK                            x       y       z     vdW  Elec       q    Type
REMARK                         _______ _______ _______ _____ _____    ______ ____
ROOT
ATOM      1  N   UNL     1       5.337   5.913  17.234  0.00  0.00    +0.000 N 
ATOM      2  C   UNL     1       5.937   5.441  16.074  0.00  0.00    +0.000 A 
ATOM      3  C   UNL     1       5.323   4.654  15.087  0.00  0.00    +0.000 A 
ATOM      4  C   UNL     1       6.290   4.506  14.119  0.00  0.00    +0.000 A 
ATOM      5  O   UNL     1       7.414   5.165  14.513  0.00  0.00    +0.000 OA
ATOM      6  N   UNL     1       7.176   5.796  15.727  0.00  0.00    +0.000 NA
ATOM      7  H   UNL     1       5.679   6.833  17.503  0.00  0.00    +0.000 HD
ENDROOT
BRANCH   4   8
ATOM      8  C   UNL     1       6.308   3.821  12.795  0.00  0.00    +0.000 C 
ATOM      9  C   UNL     1       4.911   3.726  12.187  0.00  0.00    +0.000 C 
ATOM     10  C   UNL     1       7.281   4.484  11.826  0.00  0.00    +0.000 C 
ATOM     11  F   UNL     1       6.745   2.533  12.971  0.00  0.00    +0.000 F 
ENDBRANCH   4   8
BRANCH   1  12
ATOM     12  S   UNL     1       5.435   4.916  18.597  0.00  0.00    +0.000 S 
ATOM     13  O   UNL     1       5.978   5.670  19.705  0.00  0.00    +0.000 OA
ATOM     14  O   UNL     1       6.018   3.666  18.160  0.00  0.00    +0.000 OA
BRANCH  12  17
ATOM     15  C   UNL     1       3.244   2.447  17.533  0.00  0.00    +0.000 C 
ATOM     16  C   UNL     1       3.039   3.459  18.597  0.00  0.00    +0.000 A 
ATOM     17  C   UNL     1       3.850   4.468  19.089  0.00  0.00    +0.000 A 
ATOM     18  C   UNL     1       3.110   5.074  20.118  0.00  0.00    +0.000 A 
ATOM     19  N   UNL     1       1.911   4.514  20.269  0.00  0.00    +0.000 NA
ATOM     20  N   UNL     1       1.883   3.541  19.338  0.00  0.00    +0.000 N 
ATOM     21  C   UNL     1       0.698   2.721  19.202  0.00  0.00    +0.000 C 
ENDBRANCH  12  17
ENDBRANCH   1  12
TORSDOF 3
ENDMDL
MODEL 4
REMARK VINA RESULT:      -6.7      2.036      2.819
REMARK  Name = 
REMARK  7 active torsions:
REMARK  status: ('A' for Active; 'I' for Inactive)
REMARK    1  A    between atoms: C_1  and  C_2
REMARK    2  A    between atoms: C_3  and  S_4
REMARK    3  A    between atoms: S_4  and  N_7
REMARK    4  A    between atoms: C_10  and  C_11
REMARK    5  A    between atoms: C_11  and  C_12
REMARK    6  A    between atoms: C_11  and  C_13
REMARK    7  A    between atoms: N_19  and  C_20
REMARK                            x       y       z     vdW  Elec       q    Type
REMARK                         _______ _______ _______ _____ _____    ______ ____
ROOT
ATOM      1  N   UNL     1       7.581   4.729  16.951  0.00  0.00    +0.000 N 
ATOM      2  C   UNL     1       6.932   4.295  15.803  0.00  0.00    +0.000 A 
ATOM      3  C   UNL     1       7.307   4.584  14.481  0.00  0.00    +0.000 A 
ATOM      4  C   UNL     1       6.411   3.881  13.710  0.00  0.00    +0.000 A 
ATOM      5  O   UNL     1       5.551   3.213  14.530  0.00  0.00    +0.000 OA
ATOM      6  N   UNL     1       5.910   3.437  15.852  0.00  0.00    +0.000 NA
ATOM      7  H   UNL     1       7.552   4.040  17.699  0.00  0.00    +0.000 HD
ENDROOT
BRANCH   4   8
ATOM      8  C   UNL     1       6.248   3.710  12.238  0.00  0.00    +0.000 C 
ATOM      9  C   UNL     1       6.981   2.474  11.726  0.00  0.00    +0.000 C 
ATOM     10  C   UNL     1       4.779   3.683  11.828  0.00  0.00    +0.000 C 
ATOM     11  F   UNL     1       6.812   4.788  11.605  0.00  0.00    +0.000 F 
ENDBRANCH   4   8
BRANCH   1  12
ATOM     12  S   UNL     1       7.065   6.205  17.599  0.00  0.00    +0.000 S 
ATOM     13  O   UNL     1       7.256   7.251  16.619  0.00  0.00    +0.000 OA
ATOM     14  O   UNL     1       7.619   6.292  18.933  0.00  0.00    +0.000 OA
BRANCH  12  17
ATOM     15  C   UNL     1       5.033   3.994  19.333  0.00  0.00    +0.000 C 
ATOM     16  C   UNL     1       4.635   5.208  18.582  0.00  0.00    +0.000 A 
ATOM     17  C   UNL     1       5.370   6.144  17.872  0.00  0.00    +0.000 A 
ATOM     18  C   UNL     1       4.431   7.082  17.409  0.00  0.00    +0.000 A 
ATOM     19  N   UNL     1       3.189   6.770  17.775  0.00  0.00    +0.000 NA
ATOM     20  N   UNL     1       3.330   5.632  18.481  0.00  0.00    +0.000 N 
ATOM     21  C   UNL     1       2.157   4.985  19.029  0.00  0.00    +0.000 C 
ENDBRANCH  12  17
ENDBRANCH   1  12
TORSDOF 3
ENDMDL
MODEL 5
REMARK VINA RESULT:      -6.6      1.625      1.761
REMARK  Name = 
REMARK  7 active torsions:
REMARK  status: ('A' for Active; 'I' for Inactive)
REMARK    1  A    between atoms: C_1  and  C_2
REMARK    2  A    between atoms: C_3  and  S_4
REMARK    3  A    between atoms: S_4  and  N_7
REMARK    4  A    between atoms: C_10  and  C_11
REMARK    5  A    between atoms: C_11  and  C_12
REMARK    6  A    between atoms: C_11  and  C_13
REMARK    7  A    between atoms: N_19  and  C_20
REMARK                            x       y       z     vdW  Elec       q    Type
REMARK                         _______ _______ _______ _____ _____    ______ ____
ROOT
ATOM      1  N   UNL     1       6.393   6.214  15.898  0.00  0.00    +0.000 N 
ATOM      2  C   UNL     1       6.593   5.389  14.799  0.00  0.00    +0.000 A 
ATOM      3  C   UNL     1       5.679   4.453  14.289  0.00  0.00    +0.000 A 
ATOM      4  C   UNL     1       6.300   3.944  13.172  0.00  0.00    +0.000 A 
ATOM      5  O   UNL     1       7.515   4.542  13.030  0.00  0.00    +0.000 OA
ATOM      6  N   UNL     1       7.681   5.490  14.031  0.00  0.00    +0.000 NA
ATOM      7  H   UNL     1       6.835   7.123  15.788  0.00  0.00    +0.000 HD
ENDROOT
BRANCH   4   8
ATOM      8  C   UNL     1       5.888   2.943  12.146  0.00  0.00    +0.000 C 
ATOM      9  C   UNL     1       4.604   3.356  11.435  0.00  0.00    +0.000 C 
ATOM     10  C   UNL     1       7.003   2.667  11.143  0.00  0.00    +0.000 C 
ATOM     11  F   UNL     1       5.621   1.753  12.774  0.00  0.00    +0.000 F 
ENDBRANCH   4   8
BRANCH   1  12
ATOM     12  S   UNL     1       6.863   5.599  17.402  0.00  0.00    +0.000 S 
ATOM     13  O   UNL     1       7.417   6.667  18.205  0.00  0.00    +0.000 OA
ATOM     14  O   UNL     1       7.591   4.375  17.145  0.00  0.00    +0.000 OA
BRANCH  12  17
ATOM     15  C   UNL     1       3.681   6.922  17.790  0.00  0.00    +0.000 C 
ATOM     16  C   UNL     1       4.229   5.669  18.362  0.00  0.00    +0.000 A 
ATOM     17  C   UNL     1       5.471   5.065  18.258  0.00  0.00    +0.000 A 
ATOM     18  C   UNL     1       5.372   3.877  19.001  0.00  0.00    +0.000 A 
ATOM     19  N   UNL     1       4.169   3.732  19.554  0.00  0.00    +0.000 NA
ATOM     20  N   UNL     1       3.492   4.827  19.161  0.00  0.00    +0.000 N 
ATOM     21  C   UNL     1       2.126   5.013  19.601  0.00  0.00    +0.000 C 
ENDBRANCH  12  17
ENDBRANCH   1  12
TORSDOF 3
ENDMDL
MODEL 6
REMARK VINA RESULT:      -6.5      2.985      6.173
REMARK  Name = 
REMARK  7 active torsions:
REMARK  status: ('A' for Active; 'I' for Inactive)
REMARK    1  A    between atoms: C_1  and  C_2
REMARK    2  A    between atoms: C_3  and  S_4
REMARK    3  A    between atoms: S_4  and  N_7
REMARK    4  A    between atoms: C_10  and  C_11
REMARK    5  A    between atoms: C_11  and  C_12
REMARK    6  A    between atoms: C_11  and  C_13
REMARK    7  A    between atoms: N_19  and  C_20
REMARK                            x       y       z     vdW  Elec       q    Type
REMARK                         _______ _______ _______ _____ _____    ______ ____
ROOT
ATOM      1  N   UNL     1       5.236   6.320  18.490  0.00  0.00    +0.000 N 
ATOM      2  C   UNL     1       4.083   5.556  18.610  0.00  0.00    +0.000 A 
ATOM      3  C   UNL     1       3.585   4.988  19.793  0.00  0.00    +0.000 A 
ATOM      4  C   UNL     1       2.402   4.396  19.416  0.00  0.00    +0.000 A 
ATOM      5  O   UNL     1       2.211   4.599  18.083  0.00  0.00    +0.000 OA
ATOM      6  N   UNL     1       3.250   5.373  17.582  0.00  0.00    +0.000 NA
ATOM      7  H   UNL     1       5.147   7.054  17.792  0.00  0.00    +0.000 HD
ENDROOT
BRANCH   4   8
ATOM      8  C   UNL     1       1.353   3.649  20.167  0.00  0.00    +0.000 C 
ATOM      9  C   UNL     1       0.659   2.611  19.290  0.00  0.00    +0.000 C 
ATOM     10  C   UNL     1       1.909   3.008  21.434  0.00  0.00    +0.000 C 
ATOM     11  F   UNL     1       0.384   4.532  20.567  0.00  0.00    +0.000 F 
ENDBRANCH   4   8
BRANCH   1  12
ATOM     12  S   UNL     1       6.670   5.481  18.164  0.00  0.00    +0.000 S 
ATOM     13  O   UNL     1       6.611   4.175  18.783  0.00  0.00    +0.000 OA
ATOM     14  O   UNL     1       7.758   6.400  18.413  0.00  0.00    +0.000 OA
BRANCH  12  17
ATOM     15  C   UNL     1       5.119   3.188  16.075  0.00  0.00    +0.000 C 
ATOM     16  C   UNL     1       6.117   4.224  15.719  0.00  0.00    +0.000 A 
ATOM     17  C   UNL     1       6.778   5.177  16.477  0.00  0.00    +0.000 A 
ATOM     18  C   UNL     1       7.578   5.889  15.566  0.00  0.00    +0.000 A 
ATOM     19  N   UNL     1       7.456   5.424  14.324  0.00  0.00    +0.000 NA
ATOM     20  N   UNL     1       6.571   4.415  14.435  0.00  0.00    +0.000 N 
ATOM     21  C   UNL     1       6.208   3.655  13.258  0.00  0.00    +0.000 C 
ENDBRANCH  12  17
ENDBRANCH   1  12
TORSDOF 3
ENDMDL
MODEL 7
REMARK VINA RESULT:      -6.4      1.786      2.150
REMARK  Name = 
REMARK  7 active torsions:
REMARK  status: ('A' for Active; 'I' for Inactive)
REMARK    1  A    between atoms: C_1  and  C_2
REMARK    2  A    between atoms: C_3  and  S_4
REMARK    3  A    between atoms: S_4  and  N_7
REMARK    4  A    between atoms: C_10  and  C_11
REMARK    5  A    between atoms: C_11  and  C_12
REMARK    6  A    between atoms: C_11  and  C_13
REMARK    7  A    between atoms: N_19  and  C_20
REMARK                            x       y       z     vdW  Elec       q    Type
REMARK                         _______ _______ _______ _____ _____    ______ ____
ROOT
ATOM      1  N   UNL     1       5.144   5.441  17.067  0.00  0.00    +0.000 N 
ATOM      2  C   UNL     1       5.823   4.966  15.952  0.00  0.00    +0.000 A 
ATOM      3  C   UNL     1       5.239   4.517  14.757  0.00  0.00    +0.000 A 
ATOM      4  C   UNL     1       6.310   4.221  13.945  0.00  0.00    +0.000 A 
ATOM      5  O   UNL     1       7.463   4.478  14.623  0.00  0.00    +0.000 OA
ATOM      6  N   UNL     1       7.156   4.993  15.875  0.00  0.00    +0.000 NA
ATOM      7  H   UNL     1       5.650   6.183  17.544  0.00  0.00    +0.000 HD
ENDROOT
BRANCH   4   8
ATOM      8  C   UNL     1       6.417   3.732  12.541  0.00  0.00    +0.000 C 
ATOM      9  C   UNL     1       5.045   3.516  11.909  0.00  0.00    +0.000 C 
ATOM     10  C   UNL     1       7.275   4.655  11.681  0.00  0.00    +0.000 C 
ATOM     11  F   UNL     1       7.040   2.510  12.547  0.00  0.00    +0.000 F 
ENDBRANCH   4   8
BRANCH   1  12
ATOM     12  S   UNL     1       4.705   4.294  18.231  0.00  0.00    +0.000 S 
ATOM     13  O   UNL     1       5.848   4.000  19.068  0.00  0.00    +0.000 OA
ATOM     14  O   UNL     1       3.971   3.256  17.540  0.00  0.00    +0.000 OA
BRANCH  12  17
ATOM     15  C   UNL     1       3.072   7.353  18.281  0.00  0.00    +0.000 C 
ATOM     16  C   UNL     1       2.935   6.225  19.232  0.00  0.00    +0.000 A 
ATOM     17  C   UNL     1       3.535   4.977  19.288  0.00  0.00    +0.000 A 
ATOM     18  C   UNL     1       2.973   4.342  20.409  0.00  0.00    +0.000 A 
ATOM     19  N   UNL     1       2.094   5.121  21.037  0.00  0.00    +0.000 NA
ATOM     20  N   UNL     1       2.086   6.257  20.314  0.00  0.00    +0.000 N 
ATOM     21  C   UNL     1       1.238   7.356  20.726  0.00  0.00    +0.000 C 
ENDBRANCH  12  17
ENDBRANCH   1  12
TORSDOF 3
ENDMDL
MODEL 8
REMARK VINA RESULT:      -6.4      0.789      1.057
REMARK  Name = 
REMARK  7 active torsions:
REMARK  status: ('A' for Active; 'I' for Inactive)
REMARK    1  A    between atoms: C_1  and  C_2
REMARK    2  A    between atoms: C_3  and  S_4
REMARK    3  A    between atoms: S_4  and  N_7
REMARK    4  A    between atoms: C_10  and  C_11
REMARK    5  A    between atoms: C_11  and  C_12
REMARK    6  A    between atoms: C_11  and  C_13
REMARK    7  A    between atoms: N_19  and  C_20
REMARK                            x       y       z     vdW  Elec       q    Type
REMARK                         _______ _______ _______ _____ _____    ______ ____
ROOT
ATOM      1  N   UNL     1       5.393   5.803  16.838  0.00  0.00    +0.000 N 
ATOM      2  C   UNL     1       5.920   5.325  15.646  0.00  0.00    +0.000 A 
ATOM      3  C   UNL     1       5.244   4.543  14.696  0.00  0.00    +0.000 A 
ATOM      4  C   UNL     1       6.151   4.387  13.674  0.00  0.00    +0.000 A 
ATOM      5  O   UNL     1       7.302   5.039  14.001  0.00  0.00    +0.000 OA
ATOM      6  N   UNL     1       7.140   5.671  15.226  0.00  0.00    +0.000 NA
ATOM      7  H   UNL     1       5.758   6.720  17.086  0.00  0.00    +0.000 HD
ENDROOT
BRANCH   4   8
ATOM      8  C   UNL     1       6.086   3.703  12.351  0.00  0.00    +0.000 C 
ATOM      9  C   UNL     1       6.681   2.299  12.410  0.00  0.00    +0.000 C 
ATOM     10  C   UNL     1       4.665   3.670  11.797  0.00  0.00    +0.000 C 
ATOM     11  F   UNL     1       6.842   4.410  11.451  0.00  0.00    +0.000 F 
ENDBRANCH   4   8
BRANCH   1  12
ATOM     12  S   UNL     1       5.564   4.805  18.194  0.00  0.00    +0.000 S 
ATOM     13  O   UNL     1       5.491   5.609  19.394  0.00  0.00    +0.000 OA
ATOM     14  O   UNL     1       6.681   3.924  17.927  0.00  0.00    +0.000 OA
BRANCH  12  17
ATOM     15  C   UNL     1       2.181   5.307  18.765  0.00  0.00    +0.000 C 
ATOM     16  C   UNL     1       2.890   4.028  18.525  0.00  0.00    +0.000 A 
ATOM     17  C   UNL     1       4.222   3.735  18.284  0.00  0.00    +0.000 A 
ATOM     18  C   UNL     1       4.272   2.342  18.105  0.00  0.00    +0.000 A 
ATOM     19  N   UNL     1       3.072   1.778  18.236  0.00  0.00    +0.000 NA
ATOM     20  N   UNL     1       2.248   2.812  18.493  0.00  0.00    +0.000 N 
ATOM     21  C   UNL     1       0.840   2.561  18.713  0.00  0.00    +0.000 C 
ENDBRANCH  12  17
ENDBRANCH   1  12
TORSDOF 3
ENDMDL
MODEL 9
REMARK VINA RESULT:      -6.3      0.961      1.707
REMARK  Name = 
REMARK  7 active torsions:
REMARK  status: ('A' for Active; 'I' for Inactive)
REMARK    1  A    between atoms: C_1  and  C_2
REMARK    2  A    between atoms: C_3  and  S_4
REMARK    3  A    between atoms: S_4  and  N_7
REMARK    4  A    between atoms: C_10  and  C_11
REMARK    5  A    between atoms: C_11  and  C_12
REMARK    6  A    between atoms: C_11  and  C_13
REMARK    7  A    between atoms: N_19  and  C_20
REMARK                            x       y       z     vdW  Elec       q    Type
REMARK                         _______ _______ _______ _____ _____    ______ ____
ROOT
ATOM      1  N   UNL     1       5.727   5.908  16.716  0.00  0.00    +0.000 N 
ATOM      2  C   UNL     1       6.164   5.316  15.538  0.00  0.00    +0.000 A 
ATOM      3  C   UNL     1       5.358   4.667  14.590  0.00  0.00    +0.000 A 
ATOM      4  C   UNL     1       6.229   4.318  13.584  0.00  0.00    +0.000 A 
ATOM      5  O   UNL     1       7.482   4.735  13.919  0.00  0.00    +0.000 OA
ATOM      6  N   UNL     1       7.433   5.407  15.133  0.00  0.00    +0.000 NA
ATOM      7  H   UNL     1       6.262   6.739  16.956  0.00  0.00    +0.000 HD
ENDROOT
BRANCH   4   8
ATOM      8  C   UNL     1       6.046   3.637  12.270  0.00  0.00    +0.000 C 
ATOM      9  C   UNL     1       6.595   2.214  12.288  0.00  0.00    +0.000 C 
ATOM     10  C   UNL     1       4.590   3.655  11.818  0.00  0.00    +0.000 C 
ATOM     11  F   UNL     1       6.761   4.319  11.318  0.00  0.00    +0.000 F 
ENDBRANCH   4   8
BRANCH   1  12
ATOM     12  S   UNL     1       5.680   4.918  18.088  0.00  0.00    +0.000 S 
ATOM     13  O   UNL     1       5.836   5.734  19.272  0.00  0.00    +0.000 OA
ATOM     14  O   UNL     1       6.540   3.786  17.817  0.00  0.00    +0.000 OA
BRANCH  12  17
ATOM     15  C   UNL     1       4.426   2.327  20.022  0.00  0.00    +0.000 C 
ATOM     16  C   UNL     1       3.707   3.164  19.032  0.00  0.00    +0.000 A 
ATOM     17  C   UNL     1       4.120   4.213  18.227  0.00  0.00    +0.000 A 
ATOM     18  C   UNL     1       2.972   4.619  17.526  0.00  0.00    +0.000 A 
ATOM     19  N   UNL     1       1.907   3.883  17.839  0.00  0.00    +0.000 NA
ATOM     20  N   UNL     1       2.370   3.005  18.749  0.00  0.00    +0.000 N 
ATOM     21  C   UNL     1       1.470   2.018  19.307  0.00  0.00    +0.000 C 
ENDBRANCH  12  17
ENDBRANCH   1  12
TORSDOF 3
ENDMDL
