MODEL 1
REMARK VINA RESULT:      -7.2      0.000      0.000
REMARK  Name = 
REMARK  8 active torsions:
REMARK  status: ('A' for Active; 'I' for Inactive)
REMARK    1  A    between atoms: C_1  and  O_2
REMARK    2  A    between atoms: O_2  and  C_3
REMARK    3  A    between atoms: C_7  and  O_8
REMARK    4  A    between atoms: O_8  and  C_9
REMARK    5  A    between atoms: C_10  and  C_11
REMARK    6  A    between atoms: C_15  and  O_16
REMARK    7  A    between atoms: C_18  and  O_19
REMARK    8  A    between atoms: C_23  and  O_24
REMARK                            x       y       z     vdW  Elec       q    Type
REMARK                         _______ _______ _______ _____ _____    ______ ____
ROOT
ATOM      1  C   UNL     1       3.442   5.950  17.914  0.00  0.00    +0.000 C 
ATOM      2  O   UNL     1       3.283   7.332  17.513  0.00  0.00    +0.000 OA
ATOM      3  C   UNL     1       2.475   8.107  18.303  0.00  0.00    +0.000 A 
ATOM      4  C   UNL     1       2.151   9.362  17.774  0.00  0.00    +0.000 A 
ATOM      5  C   UNL     1       1.357  10.238  18.508  0.00  0.00    +0.000 A 
ATOM      6  C   UNL     1       0.877   9.885  19.764  0.00  0.00    +0.000 A 
ATOM      7  C   UNL     1       1.202   8.636  20.295  0.00  0.00    +0.000 A 
ATOM      8  C   UNL     1       2.000   7.741  19.565  0.00  0.00    +0.000 A 
ATOM      9  C   UNL     1       2.397   6.415  20.082  0.00  0.00    +0.000 C 
ATOM     10  O   UNL     1       1.791   5.817  20.966  0.00  0.00    +0.000 OA
ATOM     11  C   UNL     1       3.625   5.801  19.429  0.00  0.00    +0.000 C 
ENDROOT
BRANCH   1  17
ATOM     12  C   UNL     1       4.515   4.063  16.556  0.00  0.00    +0.000 A 
ATOM     13  C   UNL     1       5.550   3.557  15.756  0.00  0.00    +0.000 A 
ATOM     14  C   UNL     1       6.718   4.282  15.568  0.00  0.00    +0.000 A 
ATOM     15  C   UNL     1       6.852   5.531  16.159  0.00  0.00    +0.000 A 
ATOM     16  C   UNL     1       5.804   6.089  16.905  0.00  0.00    +0.000 A 
ATOM     17  C   UNL     1       4.607   5.361  17.111  0.00  0.00    +0.000 A 
BRANCH  12  19
ATOM     18  C   UNL     1       3.554   2.174  17.601  0.00  0.00    +0.000 C 
ATOM     19  O   UNL     1       3.370   3.338  16.793  0.00  0.00    +0.000 OA
ENDBRANCH  12  19
BRANCH  16  20
ATOM     20  O   UNL     1       5.896   7.329  17.491  0.00  0.00    +0.000 OA
ATOM     21  C   UNL     1       7.203   7.894  17.548  0.00  0.00    +0.000 C 
ENDBRANCH  16  20
ENDBRANCH   1  17
BRANCH   5  22
ATOM     22  O   UNL     1       1.036  11.477  18.033  0.00  0.00    +0.000 OA
ATOM     23  H   UNL     1       1.124  12.123  18.753  0.00  0.00    +0.000 HD
ENDBRANCH   5  22
BRANCH   7  24
ATOM     24  O   UNL     1       0.765   8.325  21.551  0.00  0.00    +0.000 OA
ATOM     25  H   UNL     1       1.169   7.491  21.846  0.00  0.00    +0.000 HD
ENDBRANCH   7  24
BRANCH  11  26
ATOM     26  O   UNL     1       3.713   4.425  19.827  0.00  0.00    +0.000 OA
ATOM     27  H   UNL     1       4.389   4.396  20.538  0.00  0.00    +0.000 HD
ENDBRANCH  11  26
TORSDOF 6
ENDMDL
MODEL 2
REMARK VINA RESULT:      -7.0      0.060      2.595
REMARK  Name = 
REMARK  8 active torsions:
REMARK  status: ('A' for Active; 'I' for Inactive)
REMARK    1  A    between atoms: C_1  and  O_2
REMARK    2  A    between atoms: O_2  and  C_3
REMARK    3  A    between atoms: C_7  and  O_8
REMARK    4  A    between atoms: O_8  and  C_9
REMARK    5  A    between atoms: C_10  and  C_11
REMARK    6  A    between atoms: C_15  and  O_16
REMARK    7  A    between atoms: C_18  and  O_19
REMARK    8  A    between atoms: C_23  and  O_24
REMARK                            x       y       z     vdW  Elec       q    Type
REMARK                         _______ _______ _______ _____ _____    ______ ____
ROOT
ATOM      1  C   UNL     1       3.433   5.944  17.926  0.00  0.00    +0.000 C 
ATOM      2  O   UNL     1       3.282   7.325  17.524  0.00  0.00    +0.000 OA
ATOM      3  C   UNL     1       2.477   8.105  18.312  0.00  0.00    +0.000 A 
ATOM      4  C   UNL     1       2.160   9.361  17.782  0.00  0.00    +0.000 A 
ATOM      5  C   UNL     1       1.369  10.243  18.513  0.00  0.00    +0.000 A 
ATOM      6  C   UNL     1       0.886   9.894  19.769  0.00  0.00    +0.000 A 
ATOM      7  C   UNL     1       1.205   8.643  20.302  0.00  0.00    +0.000 A 
ATOM      8  C   UNL     1       1.998   7.743  19.574  0.00  0.00    +0.000 A 
ATOM      9  C   UNL     1       2.389   6.416  20.093  0.00  0.00    +0.000 C 
ATOM     10  O   UNL     1       1.778   5.822  20.977  0.00  0.00    +0.000 OA
ATOM     11  C   UNL     1       3.614   5.796  19.442  0.00  0.00    +0.000 C 
ENDROOT
BRANCH   1  17
ATOM     12  C   UNL     1       5.780   6.093  16.912  0.00  0.00    +0.000 A 
ATOM     13  C   UNL     1       6.873   5.518  16.248  0.00  0.00    +0.000 A 
ATOM     14  C   UNL     1       6.782   4.241  15.710  0.00  0.00    +0.000 A 
ATOM     15  C   UNL     1       5.604   3.520  15.853  0.00  0.00    +0.000 A 
ATOM     16  C   UNL     1       4.523   4.046  16.575  0.00  0.00    +0.000 A 
ATOM     17  C   UNL     1       4.596   5.348  17.125  0.00  0.00    +0.000 A 
BRANCH  12  19
ATOM     18  C   UNL     1       7.153   7.913  17.535  0.00  0.00    +0.000 C 
ATOM     19  O   UNL     1       5.835   7.375  17.409  0.00  0.00    +0.000 OA
ENDBRANCH  12  19
BRANCH  16  20
ATOM     20  O   UNL     1       3.349   3.353  16.751  0.00  0.00    +0.000 OA
ATOM     21  C   UNL     1       3.432   2.184  17.562  0.00  0.00    +0.000 C 
ENDBRANCH  16  20
ENDBRANCH   1  17
BRANCH   5  22
ATOM     22  O   UNL     1       1.054  11.482  18.037  0.00  0.00    +0.000 OA
ATOM     23  H   UNL     1       0.468  11.925  18.673  0.00  0.00    +0.000 HD
ENDBRANCH   5  22
BRANCH   7  24
ATOM     24  O   UNL     1       0.764   8.336  21.558  0.00  0.00    +0.000 OA
ATOM     25  H   UNL     1       1.513   8.060  22.114  0.00  0.00    +0.000 HD
ENDBRANCH   7  24
BRANCH  11  26
ATOM     26  O   UNL     1       3.694   4.420  19.842  0.00  0.00    +0.000 OA
ATOM     27  H   UNL     1       2.918   3.978  19.436  0.00  0.00    +0.000 HD
ENDBRANCH  11  26
TORSDOF 6
ENDMDL
MODEL 3
REMARK VINA RESULT:      -7.0      2.155      6.793
REMARK  Name = 
REMARK  8 active torsions:
REMARK  status: ('A' for Active; 'I' for Inactive)
REMARK    1  A    between atoms: C_1  and  O_2
REMARK    2  A    between atoms: O_2  and  C_3
REMARK    3  A    between atoms: C_7  and  O_8
REMARK    4  A    between atoms: O_8  and  C_9
REMARK    5  A    between atoms: C_10  and  C_11
REMARK    6  A    between atoms: C_15  and  O_16
REMARK    7  A    between atoms: C_18  and  O_19
REMARK    8  A    between atoms: C_23  and  O_24
REMARK                            x       y       z     vdW  Elec       q    Type
REMARK                         _______ _______ _______ _____ _____    ______ ____
ROOT
ATOM      1  C   UNL     1       4.546   5.357  17.131  0.00  0.00    +0.000 C 
ATOM      2  O   UNL     1       4.303   4.413  16.062  0.00  0.00    +0.000 OA
ATOM      3  C   UNL     1       5.210   4.406  15.035  0.00  0.00    +0.000 A 
ATOM      4  C   UNL     1       4.835   3.659  13.912  0.00  0.00    +0.000 A 
ATOM      5  C   UNL     1       5.696   3.566  12.823  0.00  0.00    +0.000 A 
ATOM      6  C   UNL     1       6.930   4.205  12.832  0.00  0.00    +0.000 A 
ATOM      7  C   UNL     1       7.309   4.947  13.953  0.00  0.00    +0.000 A 
ATOM      8  C   UNL     1       6.449   5.053  15.057  0.00  0.00    +0.000 A 
ATOM      9  C   UNL     1       6.801   5.803  16.280  0.00  0.00    +0.000 C 
ATOM     10  O   UNL     1       7.646   6.693  16.315  0.00  0.00    +0.000 OA
ATOM     11  C   UNL     1       6.026   5.417  17.529  0.00  0.00    +0.000 C 
ENDROOT
BRANCH   1  17
ATOM     12  C   UNL     1       2.978   5.996  19.053  0.00  0.00    +0.000 A 
ATOM     13  C   UNL     1       2.077   5.654  20.071  0.00  0.00    +0.000 A 
ATOM     14  C   UNL     1       1.874   4.325  20.419  0.00  0.00    +0.000 A 
ATOM     15  C   UNL     1       2.553   3.326  19.735  0.00  0.00    +0.000 A 
ATOM     16  C   UNL     1       3.405   3.639  18.666  0.00  0.00    +0.000 A 
ATOM     17  C   UNL     1       3.628   4.988  18.301  0.00  0.00    +0.000 A 
BRANCH  12  19
ATOM     18  C   UNL     1       2.128   7.998  18.130  0.00  0.00    +0.000 C 
ATOM     19  O   UNL     1       3.229   7.308  18.726  0.00  0.00    +0.000 OA
ENDBRANCH  12  19
BRANCH  16  20
ATOM     20  O   UNL     1       4.080   2.674  17.957  0.00  0.00    +0.000 OA
ATOM     21  C   UNL     1       3.773   1.324  18.295  0.00  0.00    +0.000 C 
ENDBRANCH  16  20
ENDBRANCH   1  17
BRANCH   5  22
ATOM     22  O   UNL     1       5.372   2.832  11.719  0.00  0.00    +0.000 OA
ATOM     23  H   UNL     1       4.458   3.037  11.461  0.00  0.00    +0.000 HD
ENDBRANCH   5  22
BRANCH   7  24
ATOM     24  O   UNL     1       8.546   5.527  13.966  0.00  0.00    +0.000 OA
ATOM     25  H   UNL     1       8.698   6.003  13.133  0.00  0.00    +0.000 HD
ENDBRANCH   7  24
BRANCH  11  26
ATOM     26  O   UNL     1       6.271   6.405  18.541  0.00  0.00    +0.000 OA
ATOM     27  H   UNL     1       7.192   6.711  18.398  0.00  0.00    +0.000 HD
ENDBRANCH  11  26
TORSDOF 6
ENDMDL
MODEL 4
REMARK VINA RESULT:      -6.9      2.150      6.425
REMARK  Name = 
REMARK  8 active torsions:
REMARK  status: ('A' for Active; 'I' for Inactive)
REMARK    1  A    between atoms: C_1  and  O_2
REMARK    2  A    between atoms: O_2  and  C_3
REMARK    3  A    between atoms: C_7  and  O_8
REMARK    4  A    between atoms: O_8  and  C_9
REMARK    5  A    between atoms: C_10  and  C_11
REMARK    6  A    between atoms: C_15  and  O_16
REMARK    7  A    between atoms: C_18  and  O_19
REMARK    8  A    between atoms: C_23  and  O_24
REMARK                            x       y       z     vdW  Elec       q    Type
REMARK                         _______ _______ _______ _____ _____    ______ ____
ROOT
ATOM      1  C   UNL     1       4.594   5.343  17.182  0.00  0.00    +0.000 C 
ATOM      2  O   UNL     1       4.345   4.398  16.115  0.00  0.00    +0.000 OA
ATOM      3  C   UNL     1       5.238   4.401  15.076  0.00  0.00    +0.000 A 
ATOM      4  C   UNL     1       4.855   3.653  13.957  0.00  0.00    +0.000 A 
ATOM      5  C   UNL     1       5.702   3.569  12.856  0.00  0.00    +0.000 A 
ATOM      6  C   UNL     1       6.930   4.219  12.850  0.00  0.00    +0.000 A 
ATOM      7  C   UNL     1       7.318   4.962  13.967  0.00  0.00    +0.000 A 
ATOM      8  C   UNL     1       6.472   5.059  15.082  0.00  0.00    +0.000 A 
ATOM      9  C   UNL     1       6.833   5.810  16.302  0.00  0.00    +0.000 C 
ATOM     10  O   UNL     1       7.670   6.708  16.327  0.00  0.00    +0.000 OA
ATOM     11  C   UNL     1       6.078   5.415  17.561  0.00  0.00    +0.000 C 
ENDROOT
BRANCH   1  17
ATOM     12  C   UNL     1       3.488   3.604  18.703  0.00  0.00    +0.000 A 
ATOM     13  C   UNL     1       2.729   3.261  19.831  0.00  0.00    +0.000 A 
ATOM     14  C   UNL     1       2.095   4.241  20.582  0.00  0.00    +0.000 A 
ATOM     15  C   UNL     1       2.233   5.576  20.224  0.00  0.00    +0.000 A 
ATOM     16  C   UNL     1       3.044   5.949  19.143  0.00  0.00    +0.000 A 
ATOM     17  C   UNL     1       3.695   4.963  18.363  0.00  0.00    +0.000 A 
BRANCH  12  19
ATOM     18  C   UNL     1       3.726   1.299  18.242  0.00  0.00    +0.000 C 
ATOM     19  O   UNL     1       4.084   2.644  17.919  0.00  0.00    +0.000 OA
ENDBRANCH  12  19
BRANCH  16  20
ATOM     20  O   UNL     1       3.217   7.261  18.771  0.00  0.00    +0.000 OA
ATOM     21  C   UNL     1       2.117   7.865  18.095  0.00  0.00    +0.000 C 
ENDBRANCH  16  20
ENDBRANCH   1  17
BRANCH   5  22
ATOM     22  O   UNL     1       5.370   2.833  11.755  0.00  0.00    +0.000 OA
ATOM     23  H   UNL     1       5.982   3.053  11.033  0.00  0.00    +0.000 HD
ENDBRANCH   5  22
BRANCH   7  24
ATOM     24  O   UNL     1       8.549   5.554  13.965  0.00  0.00    +0.000 OA
ATOM     25  H   UNL     1       8.612   6.187  13.230  0.00  0.00    +0.000 HD
ENDBRANCH   7  24
BRANCH  11  26
ATOM     26  O   UNL     1       6.328   6.404  18.571  0.00  0.00    +0.000 OA
ATOM     27  H   UNL     1       7.049   6.969  18.219  0.00  0.00    +0.000 HD
ENDBRANCH  11  26
TORSDOF 6
ENDMDL
MODEL 5
REMARK VINA RESULT:      -6.8      2.197      6.565
REMARK  Name = 
REMARK  8 active torsions:
REMARK  status: ('A' for Active; 'I' for Inactive)
REMARK    1  A    between atoms: C_1  and  O_2
REMARK    2  A    between atoms: O_2  and  C_3
REMARK    3  A    between atoms: C_7  and  O_8
REMARK    4  A    between atoms: O_8  and  C_9
REMARK    5  A    between atoms: C_10  and  C_11
REMARK    6  A    between atoms: C_15  and  O_16
REMARK    7  A    between atoms: C_18  and  O_19
REMARK    8  A    between atoms: C_23  and  O_24
REMARK                            x       y       z     vdW  Elec       q    Type
REMARK                         _______ _______ _______ _____ _____    ______ ____
ROOT
ATOM      1  C   UNL     1       4.451   5.041  18.090  0.00  0.00    +0.000 C 
ATOM      2  O   UNL     1       4.086   4.334  16.881  0.00  0.00    +0.000 OA
ATOM      3  C   UNL     1       4.979   4.400  15.844  0.00  0.00    +0.000 A 
ATOM      4  C   UNL     1       4.507   3.912  14.619  0.00  0.00    +0.000 A 
ATOM      5  C   UNL     1       5.344   3.909  13.506  0.00  0.00    +0.000 A 
ATOM      6  C   UNL     1       6.646   4.384  13.592  0.00  0.00    +0.000 A 
ATOM      7  C   UNL     1       7.121   4.867  14.813  0.00  0.00    +0.000 A 
ATOM      8  C   UNL     1       6.288   4.880  15.942  0.00  0.00    +0.000 A 
ATOM      9  C   UNL     1       6.738   5.356  17.267  0.00  0.00    +0.000 C 
ATOM     10  O   UNL     1       7.686   6.118  17.432  0.00  0.00    +0.000 OA
ATOM     11  C   UNL     1       5.929   4.852  18.451  0.00  0.00    +0.000 C 
ENDROOT
BRANCH   1  17
ATOM     12  C   UNL     1       2.613   5.501  19.813  0.00  0.00    +0.000 A 
ATOM     13  C   UNL     1       1.690   5.064  20.775  0.00  0.00    +0.000 A 
ATOM     14  C   UNL     1       1.693   3.746  21.211  0.00  0.00    +0.000 A 
ATOM     15  C   UNL     1       2.602   2.847  20.670  0.00  0.00    +0.000 A 
ATOM     16  C   UNL     1       3.486   3.243  19.656  0.00  0.00    +0.000 A 
ATOM     17  C   UNL     1       3.502   4.583  19.203  0.00  0.00    +0.000 A 
BRANCH  12  19
ATOM     18  C   UNL     1       1.878   7.714  20.194  0.00  0.00    +0.000 C 
ATOM     19  O   UNL     1       2.657   6.814  19.404  0.00  0.00    +0.000 OA
ENDBRANCH  12  19
BRANCH  16  20
ATOM     20  O   UNL     1       4.388   2.376  19.087  0.00  0.00    +0.000 OA
ATOM     21  C   UNL     1       3.829   1.257  18.404  0.00  0.00    +0.000 C 
ENDBRANCH  16  20
ENDBRANCH   1  17
BRANCH   5  22
ATOM     22  O   UNL     1       4.925   3.425  12.301  0.00  0.00    +0.000 OA
ATOM     23  H   UNL     1       4.025   3.748  12.127  0.00  0.00    +0.000 HD
ENDBRANCH   5  22
BRANCH   7  24
ATOM     24  O   UNL     1       8.420   5.284  14.893  0.00  0.00    +0.000 OA
ATOM     25  H   UNL     1       8.770   5.450  14.002  0.00  0.00    +0.000 HD
ENDBRANCH   7  24
BRANCH  11  26
ATOM     26  O   UNL     1       6.300   5.610  19.612  0.00  0.00    +0.000 OA
ATOM     27  H   UNL     1       6.976   6.252  19.306  0.00  0.00    +0.000 HD
ENDBRANCH  11  26
TORSDOF 6
ENDMDL
MODEL 6
REMARK VINA RESULT:      -6.5      1.565      3.383
REMARK  Name = 
REMARK  8 active torsions:
REMARK  status: ('A' for Active; 'I' for Inactive)
REMARK    1  A    between atoms: C_1  and  O_2
REMARK    2  A    between atoms: O_2  and  C_3
REMARK    3  A    between atoms: C_7  and  O_8
REMARK    4  A    between atoms: O_8  and  C_9
REMARK    5  A    between atoms: C_10  and  C_11
REMARK    6  A    between atoms: C_15  and  O_16
REMARK    7  A    between atoms: C_18  and  O_19
REMARK    8  A    between atoms: C_23  and  O_24
REMARK                            x       y       z     vdW  Elec       q    Type
REMARK                         _______ _______ _______ _____ _____    ______ ____
ROOT
ATOM      1  C   UNL     1       2.938   7.159  18.963  0.00  0.00    +0.000 C 
ATOM      2  O   UNL     1       2.115   7.078  20.150  0.00  0.00    +0.000 OA
ATOM      3  C   UNL     1       1.398   8.200  20.473  0.00  0.00    +0.000 A 
ATOM      4  C   UNL     1       0.798   8.180  21.737  0.00  0.00    +0.000 A 
ATOM      5  C   UNL     1       0.024   9.260  22.153  0.00  0.00    +0.000 A 
ATOM      6  C   UNL     1      -0.164  10.363  21.329  0.00  0.00    +0.000 A 
ATOM      7  C   UNL     1       0.429  10.383  20.065  0.00  0.00    +0.000 A 
ATOM      8  C   UNL     1       1.215   9.303  19.634  0.00  0.00    +0.000 A 
ATOM      9  C   UNL     1       1.850   9.253  18.301  0.00  0.00    +0.000 C 
ATOM     10  O   UNL     1       2.088  10.247  17.621  0.00  0.00    +0.000 OA
ATOM     11  C   UNL     1       2.221   7.865  17.805  0.00  0.00    +0.000 C 
ENDROOT
BRANCH   1  17
ATOM     12  C   UNL     1       2.545   4.631  18.861  0.00  0.00    +0.000 A 
ATOM     13  C   UNL     1       2.926   3.341  18.463  0.00  0.00    +0.000 A 
ATOM     14  C   UNL     1       4.172   3.115  17.896  0.00  0.00    +0.000 A 
ATOM     15  C   UNL     1       5.040   4.181  17.700  0.00  0.00    +0.000 A 
ATOM     16  C   UNL     1       4.654   5.489  18.024  0.00  0.00    +0.000 A 
ATOM     17  C   UNL     1       3.389   5.738  18.607  0.00  0.00    +0.000 A 
BRANCH  12  19
ATOM     18  C   UNL     1       0.878   3.818  20.325  0.00  0.00    +0.000 C 
ATOM     19  O   UNL     1       1.333   4.867  19.468  0.00  0.00    +0.000 OA
ENDBRANCH  12  19
BRANCH  16  20
ATOM     20  O   UNL     1       5.481   6.570  17.828  0.00  0.00    +0.000 OA
ATOM     21  C   UNL     1       6.607   6.346  16.984  0.00  0.00    +0.000 C 
ENDBRANCH  16  20
ENDBRANCH   1  17
BRANCH   5  22
ATOM     22  O   UNL     1      -0.592   9.269  23.371  0.00  0.00    +0.000 OA
ATOM     23  H   UNL     1      -0.797  10.187  23.614  0.00  0.00    +0.000 HD
ENDBRANCH   5  22
BRANCH   7  24
ATOM     24  O   UNL     1       0.193  11.451  19.247  0.00  0.00    +0.000 OA
ATOM     25  H   UNL     1       0.682  11.345  18.414  0.00  0.00    +0.000 HD
ENDBRANCH   7  24
BRANCH  11  26
ATOM     26  O   UNL     1       3.067   8.004  16.654  0.00  0.00    +0.000 OA
ATOM     27  H   UNL     1       3.226   7.092  16.328  0.00  0.00    +0.000 HD
ENDBRANCH  11  26
TORSDOF 6
ENDMDL
MODEL 7
REMARK VINA RESULT:      -6.5      1.595      4.059
REMARK  Name = 
REMARK  8 active torsions:
REMARK  status: ('A' for Active; 'I' for Inactive)
REMARK    1  A    between atoms: C_1  and  O_2
REMARK    2  A    between atoms: O_2  and  C_3
REMARK    3  A    between atoms: C_7  and  O_8
REMARK    4  A    between atoms: O_8  and  C_9
REMARK    5  A    between atoms: C_10  and  C_11
REMARK    6  A    between atoms: C_15  and  O_16
REMARK    7  A    between atoms: C_18  and  O_19
REMARK    8  A    between atoms: C_23  and  O_24
REMARK                            x       y       z     vdW  Elec       q    Type
REMARK                         _______ _______ _______ _____ _____    ______ ____
ROOT
ATOM      1  C   UNL     1       2.985   7.175  19.037  0.00  0.00    +0.000 C 
ATOM      2  O   UNL     1       2.141   7.110  20.211  0.00  0.00    +0.000 OA
ATOM      3  C   UNL     1       1.389   8.222  20.485  0.00  0.00    +0.000 A 
ATOM      4  C   UNL     1       0.765   8.226  21.738  0.00  0.00    +0.000 A 
ATOM      5  C   UNL     1      -0.044   9.298  22.105  0.00  0.00    +0.000 A 
ATOM      6  C   UNL     1      -0.243  10.369  21.243  0.00  0.00    +0.000 A 
ATOM      7  C   UNL     1       0.374  10.365  19.990  0.00  0.00    +0.000 A 
ATOM      8  C   UNL     1       1.196   9.293  19.608  0.00  0.00    +0.000 A 
ATOM      9  C   UNL     1       1.858   9.219  18.290  0.00  0.00    +0.000 C 
ATOM     10  O   UNL     1       2.084  10.198  17.584  0.00  0.00    +0.000 OA
ATOM     11  C   UNL     1       2.274   7.826  17.845  0.00  0.00    +0.000 C 
ENDROOT
BRANCH   1  17
ATOM     12  C   UNL     1       4.767   5.543  18.190  0.00  0.00    +0.000 A 
ATOM     13  C   UNL     1       5.247   4.241  17.988  0.00  0.00    +0.000 A 
ATOM     14  C   UNL     1       4.436   3.141  18.236  0.00  0.00    +0.000 A 
ATOM     15  C   UNL     1       3.146   3.334  18.710  0.00  0.00    +0.000 A 
ATOM     16  C   UNL     1       2.668   4.624  18.987  0.00  0.00    +0.000 A 
ATOM     17  C   UNL     1       3.479   5.756  18.736  0.00  0.00    +0.000 A 
BRANCH  12  19
ATOM     18  C   UNL     1       6.634   6.397  17.020  0.00  0.00    +0.000 C 
ATOM     19  O   UNL     1       5.539   6.645  17.905  0.00  0.00    +0.000 OA
ENDBRANCH  12  19
BRANCH  16  20
ATOM     20  O   UNL     1       1.402   4.851  19.472  0.00  0.00    +0.000 OA
ATOM     21  C   UNL     1       0.874   3.841  20.329  0.00  0.00    +0.000 C 
ENDBRANCH  16  20
ENDBRANCH   1  17
BRANCH   5  22
ATOM     22  O   UNL     1      -0.683   9.328  23.310  0.00  0.00    +0.000 OA
ATOM     23  H   UNL     1      -0.263   8.685  23.906  0.00  0.00    +0.000 HD
ENDBRANCH   5  22
BRANCH   7  24
ATOM     24  O   UNL     1       0.128  11.402  19.135  0.00  0.00    +0.000 OA
ATOM     25  H   UNL     1      -0.824  11.595  19.114  0.00  0.00    +0.000 HD
ENDBRANCH   7  24
BRANCH  11  26
ATOM     26  O   UNL     1       3.138   7.951  16.706  0.00  0.00    +0.000 OA
ATOM     27  H   UNL     1       4.017   8.202  17.064  0.00  0.00    +0.000 HD
ENDBRANCH  11  26
TORSDOF 6
ENDMDL
MODEL 8
REMARK VINA RESULT:      -6.5      1.384      1.965
REMARK  Name = 
REMARK  8 active torsions:
REMARK  status: ('A' for Active; 'I' for Inactive)
REMARK    1  A    between atoms: C_1  and  O_2
REMARK    2  A    between atoms: O_2  and  C_3
REMARK    3  A    between atoms: C_7  and  O_8
REMARK    4  A    between atoms: O_8  and  C_9
REMARK    5  A    between atoms: C_10  and  C_11
REMARK    6  A    between atoms: C_15  and  O_16
REMARK    7  A    between atoms: C_18  and  O_19
REMARK    8  A    between atoms: C_23  and  O_24
REMARK                            x       y       z     vdW  Elec       q    Type
REMARK                         _______ _______ _______ _____ _____    ______ ____
ROOT
ATOM      1  C   UNL     1       2.029   6.594  18.713  0.00  0.00    +0.000 C 
ATOM      2  O   UNL     1       2.256   7.845  18.022  0.00  0.00    +0.000 OA
ATOM      3  C   UNL     1       1.843   8.981  18.665  0.00  0.00    +0.000 A 
ATOM      4  C   UNL     1       1.859  10.146  17.888  0.00  0.00    +0.000 A 
ATOM      5  C   UNL     1       1.483  11.361  18.454  0.00  0.00    +0.000 A 
ATOM      6  C   UNL     1       1.090  11.437  19.784  0.00  0.00    +0.000 A 
ATOM      7  C   UNL     1       1.078  10.278  20.563  0.00  0.00    +0.000 A 
ATOM      8  C   UNL     1       1.451   9.046  20.005  0.00  0.00    +0.000 A 
ATOM      9  C   UNL     1       1.481   7.789  20.782  0.00  0.00    +0.000 C 
ATOM     10  O   UNL     1       0.843   7.610  21.815  0.00  0.00    +0.000 OA
ATOM     11  C   UNL     1       2.358   6.688  20.208  0.00  0.00    +0.000 C 
ENDROOT
BRANCH   1  17
ATOM     12  C   UNL     1       2.314   4.198  17.855  0.00  0.00    +0.000 A 
ATOM     13  C   UNL     1       3.016   3.227  17.126  0.00  0.00    +0.000 A 
ATOM     14  C   UNL     1       4.273   3.505  16.605  0.00  0.00    +0.000 A 
ATOM     15  C   UNL     1       4.827   4.765  16.786  0.00  0.00    +0.000 A 
ATOM     16  C   UNL     1       4.113   5.774  17.449  0.00  0.00    +0.000 A 
ATOM     17  C   UNL     1       2.834   5.507  17.992  0.00  0.00    +0.000 A 
BRANCH  12  19
ATOM     18  C   UNL     1       0.977   2.630  19.010  0.00  0.00    +0.000 C 
ATOM     19  O   UNL     1       1.090   3.926  18.420  0.00  0.00    +0.000 OA
ENDBRANCH  12  19
BRANCH  16  20
ATOM     20  O   UNL     1       4.624   7.037  17.633  0.00  0.00    +0.000 OA
ATOM     21  C   UNL     1       6.008   7.198  17.332  0.00  0.00    +0.000 C 
ENDBRANCH  16  20
ENDBRANCH   1  17
BRANCH   5  22
ATOM     22  O   UNL     1       1.503  12.519  17.732  0.00  0.00    +0.000 OA
ATOM     23  H   UNL     1       0.874  12.443  16.996  0.00  0.00    +0.000 HD
ENDBRANCH   5  22
BRANCH   7  24
ATOM     24  O   UNL     1       0.738  10.379  21.882  0.00  0.00    +0.000 OA
ATOM     25  H   UNL     1      -0.230  10.390  21.975  0.00  0.00    +0.000 HD
ENDBRANCH   7  24
BRANCH  11  26
ATOM     26  O   UNL     1       2.065   5.465  20.901  0.00  0.00    +0.000 OA
ATOM     27  H   UNL     1       2.012   5.703  21.851  0.00  0.00    +0.000 HD
ENDBRANCH  11  26
TORSDOF 6
ENDMDL
MODEL 9
REMARK VINA RESULT:      -6.5      1.361      3.179
REMARK  Name = 
REMARK  8 active torsions:
REMARK  status: ('A' for Active; 'I' for Inactive)
REMARK    1  A    between atoms: C_1  and  O_2
REMARK    2  A    between atoms: O_2  and  C_3
REMARK    3  A    between atoms: C_7  and  O_8
REMARK    4  A    between atoms: O_8  and  C_9
REMARK    5  A    between atoms: C_10  and  C_11
REMARK    6  A    between atoms: C_15  and  O_16
REMARK    7  A    between atoms: C_18  and  O_19
REMARK    8  A    between atoms: C_23  and  O_24
REMARK                            x       y       z     vdW  Elec       q    Type
REMARK                         _______ _______ _______ _____ _____    ______ ____
ROOT
ATOM      1  C   UNL     1       2.056   6.569  18.711  0.00  0.00    +0.000 C 
ATOM      2  O   UNL     1       2.283   7.824  18.026  0.00  0.00    +0.000 OA
ATOM      3  C   UNL     1       1.850   8.955  18.667  0.00  0.00    +0.000 A 
ATOM      4  C   UNL     1       1.868  10.122  17.894  0.00  0.00    +0.000 A 
ATOM      5  C   UNL     1       1.472  11.332  18.457  0.00  0.00    +0.000 A 
ATOM      6  C   UNL     1       1.058  11.401  19.782  0.00  0.00    +0.000 A 
ATOM      7  C   UNL     1       1.044  10.239  20.556  0.00  0.00    +0.000 A 
ATOM      8  C   UNL     1       1.437   9.012  20.001  0.00  0.00    +0.000 A 
ATOM      9  C   UNL     1       1.466   7.753  20.774  0.00  0.00    +0.000 C 
ATOM     10  O   UNL     1       0.813   7.565  21.796  0.00  0.00    +0.000 OA
ATOM     11  C   UNL     1       2.361   6.661  20.211  0.00  0.00    +0.000 C 
ENDROOT
BRANCH   1  17
ATOM     12  C   UNL     1       4.168   5.790  17.489  0.00  0.00    +0.000 A 
ATOM     13  C   UNL     1       4.954   4.784  16.910  0.00  0.00    +0.000 A 
ATOM     14  C   UNL     1       4.451   3.501  16.744  0.00  0.00    +0.000 A 
ATOM     15  C   UNL     1       3.166   3.207  17.179  0.00  0.00    +0.000 A 
ATOM     16  C   UNL     1       2.387   4.177  17.826  0.00  0.00    +0.000 A 
ATOM     17  C   UNL     1       2.882   5.492  17.999  0.00  0.00    +0.000 A 
BRANCH  12  19
ATOM     18  C   UNL     1       5.993   7.268  17.228  0.00  0.00    +0.000 C 
ATOM     19  O   UNL     1       4.632   7.079  17.618  0.00  0.00    +0.000 OA
ENDBRANCH  12  19
BRANCH  16  20
ATOM     20  O   UNL     1       1.118   3.917  18.284  0.00  0.00    +0.000 OA
ATOM     21  C   UNL     1       0.916   2.628  18.858  0.00  0.00    +0.000 C 
ENDBRANCH  16  20
ENDBRANCH   1  17
BRANCH   5  22
ATOM     22  O   UNL     1       1.493  12.493  17.740  0.00  0.00    +0.000 OA
ATOM     23  H   UNL     1       0.874  12.415  16.995  0.00  0.00    +0.000 HD
ENDBRANCH   5  22
BRANCH   7  24
ATOM     24  O   UNL     1       0.682  10.333  21.870  0.00  0.00    +0.000 OA
ATOM     25  H   UNL     1       0.349   9.476  22.185  0.00  0.00    +0.000 HD
ENDBRANCH   7  24
BRANCH  11  26
ATOM     26  O   UNL     1       2.068   5.434  20.895  0.00  0.00    +0.000 OA
ATOM     27  H   UNL     1       2.748   4.793  20.597  0.00  0.00    +0.000 HD
ENDBRANCH  11  26
TORSDOF 6
ENDMDL
