MODEL 1
REMARK VINA RESULT:      -6.4      0.000      0.000
REMARK  Name = 
REMARK  11 active torsions:
REMARK  status: ('A' for Active; 'I' for Inactive)
REMARK    1  A    between atoms: C_1  and  C_2
REMARK    2  A    between atoms: C_2  and  C_3
REMARK    3  A    between atoms: C_2  and  C_4
REMARK    4  A    between atoms: C_2  and  N_7
REMARK    5  A    between atoms: C_4  and  C_5
REMARK    6  A    between atoms: C_5  and  O_6
REMARK    7  A    between atoms: C_8  and  C_10
REMARK    8  A    between atoms: C_13  and  C_14
REMARK    9  A    between atoms: C_17  and  O_18
REMARK   10  A    between atoms: O_18  and  C_19
REMARK   11  A    between atoms: C_19  and  C_20
REMARK                            x       y       z     vdW  Elec       q    Type
REMARK                         _______ _______ _______ _____ _____    ______ ____
ROOT
ATOM      1  C   UNL     1       2.468   7.984  18.438  0.00  0.00    +0.000 A 
ATOM      2  C   UNL     1       3.417   7.815  17.442  0.00  0.00    +0.000 A 
ATOM      3  N   UNL     1       4.141   6.679  17.315  0.00  0.00    +0.000 NA
ATOM      4  C   UNL     1       3.896   5.693  18.225  0.00  0.00    +0.000 A 
ATOM      5  C   UNL     1       2.922   5.891  19.226  0.00  0.00    +0.000 A 
ATOM      6  N   UNL     1       2.187   7.027  19.368  0.00  0.00    +0.000 NA
ENDROOT
BRANCH   1   8
ATOM      7  N   UNL     1       1.017   9.497  19.664  0.00  0.00    +0.000 N 
ATOM      8  C   UNL     1       1.729   9.275  18.505  0.00  0.00    +0.000 C 
ATOM      9  O   UNL     1       1.791  10.067  17.568  0.00  0.00    +0.000 OA
ATOM     10  H   UNL     1       1.089   8.775  20.375  0.00  0.00    +0.000 HD
BRANCH   7  12
ATOM     11  C   UNL     1       1.131  11.930  19.931  0.00  0.00    +0.000 C 
ATOM     12  C   UNL     1       0.204  10.698  19.927  0.00  0.00    +0.000 C 
ATOM     13  C   UNL     1      -0.430  10.608  21.332  0.00  0.00    +0.000 C 
BRANCH  12  14
ATOM     14  C   UNL     1      -0.910  10.868  18.863  0.00  0.00    +0.000 C 
BRANCH  14  15
ATOM     15  C   UNL     1      -1.161  12.314  18.436  0.00  0.00    +0.000 C 
BRANCH  15  16
ATOM     16  O   UNL     1      -1.548  12.355  17.067  0.00  0.00    +0.000 OA
ATOM     17  H   UNL     1      -1.070  13.095  16.654  0.00  0.00    +0.000 HD
ENDBRANCH  15  16
ENDBRANCH  14  15
ENDBRANCH  12  14
ENDBRANCH   7  12
ENDBRANCH   1   8
BRANCH   4  18
ATOM     18  C   UNL     1       4.693   4.409  18.133  0.00  0.00    +0.000 C 
ATOM     19  C   UNL     1       4.327   3.366  17.100  0.00  0.00    +0.000 C 
ATOM     20  C   UNL     1       5.594   4.153  16.947  0.00  0.00    +0.000 C 
ENDBRANCH   4  18
BRANCH   5  21
ATOM     21  O   UNL     1       2.799   4.882  20.161  0.00  0.00    +0.000 OA
BRANCH  21  22
ATOM     22  C   UNL     1       1.474   4.683  20.635  0.00  0.00    +0.000 C 
BRANCH  22  23
ATOM     23  C   UNL     1       1.180   3.212  20.526  0.00  0.00    +0.000 C 
ATOM     24  C   UNL     1       0.675   2.637  19.224  0.00  0.00    +0.000 C 
ATOM     25  C   UNL     1       2.057   2.302  19.704  0.00  0.00    +0.000 C 
ENDBRANCH  22  23
ENDBRANCH  21  22
ENDBRANCH   5  21
TORSDOF 9
ENDMDL
MODEL 2
REMARK VINA RESULT:      -6.3      1.788      3.555
REMARK  Name = 
REMARK  11 active torsions:
REMARK  status: ('A' for Active; 'I' for Inactive)
REMARK    1  A    between atoms: C_1  and  C_2
REMARK    2  A    between atoms: C_2  and  C_3
REMARK    3  A    between atoms: C_2  and  C_4
REMARK    4  A    between atoms: C_2  and  N_7
REMARK    5  A    between atoms: C_4  and  C_5
REMARK    6  A    between atoms: C_5  and  O_6
REMARK    7  A    between atoms: C_8  and  C_10
REMARK    8  A    between atoms: C_13  and  C_14
REMARK    9  A    between atoms: C_17  and  O_18
REMARK   10  A    between atoms: O_18  and  C_19
REMARK   11  A    between atoms: C_19  and  C_20
REMARK                            x       y       z     vdW  Elec       q    Type
REMARK                         _______ _______ _______ _____ _____    ______ ____
ROOT
ATOM      1  C   UNL     1       2.609   7.397  18.619  0.00  0.00    +0.000 A 
ATOM      2  C   UNL     1       2.185   6.617  19.684  0.00  0.00    +0.000 A 
ATOM      3  N   UNL     1       2.741   5.417  19.971  0.00  0.00    +0.000 NA
ATOM      4  C   UNL     1       3.750   5.000  19.154  0.00  0.00    +0.000 A 
ATOM      5  C   UNL     1       4.163   5.816  18.079  0.00  0.00    +0.000 A 
ATOM      6  N   UNL     1       3.614   7.023  17.777  0.00  0.00    +0.000 NA
ENDROOT
BRANCH   1   8
ATOM      7  N   UNL     1       1.185   9.191  19.425  0.00  0.00    +0.000 N 
ATOM      8  C   UNL     1       1.928   8.698  18.374  0.00  0.00    +0.000 C 
ATOM      9  O   UNL     1       2.060   9.267  17.294  0.00  0.00    +0.000 OA
ATOM     10  H   UNL     1       1.198   8.638  20.276  0.00  0.00    +0.000 HD
BRANCH   7  12
ATOM     11  C   UNL     1       1.395  11.615  19.137  0.00  0.00    +0.000 C 
ATOM     12  C   UNL     1       0.418  10.450  19.387  0.00  0.00    +0.000 C 
ATOM     13  C   UNL     1      -0.244  10.704  20.759  0.00  0.00    +0.000 C 
BRANCH  12  14
ATOM     14  C   UNL     1      -0.669  10.414  18.283  0.00  0.00    +0.000 C 
BRANCH  14  15
ATOM     15  C   UNL     1      -1.643  11.590  18.318  0.00  0.00    +0.000 C 
BRANCH  15  16
ATOM     16  O   UNL     1      -1.418  12.440  17.198  0.00  0.00    +0.000 OA
ATOM     17  H   UNL     1      -1.816  12.007  16.424  0.00  0.00    +0.000 HD
ENDBRANCH  15  16
ENDBRANCH  14  15
ENDBRANCH  12  14
ENDBRANCH   7  12
ENDBRANCH   1   8
BRANCH   4  18
ATOM     18  C   UNL     1       4.393   3.657  19.425  0.00  0.00    +0.000 C 
ATOM     19  C   UNL     1       3.653   2.616  20.237  0.00  0.00    +0.000 C 
ATOM     20  C   UNL     1       3.856   2.407  18.766  0.00  0.00    +0.000 C 
ENDBRANCH   4  18
BRANCH   5  21
ATOM     21  O   UNL     1       5.127   5.281  17.247  0.00  0.00    +0.000 OA
BRANCH  21  22
ATOM     22  C   UNL     1       5.786   6.236  16.426  0.00  0.00    +0.000 C 
BRANCH  22  23
ATOM     23  C   UNL     1       7.208   6.327  16.906  0.00  0.00    +0.000 C 
ATOM     24  C   UNL     1       7.691   7.576  17.605  0.00  0.00    +0.000 C 
ATOM     25  C   UNL     1       7.537   6.298  18.378  0.00  0.00    +0.000 C 
ENDBRANCH  22  23
ENDBRANCH  21  22
ENDBRANCH   5  21
TORSDOF 9
ENDMDL
MODEL 3
REMARK VINA RESULT:      -6.3      1.857      3.745
REMARK  Name = 
REMARK  11 active torsions:
REMARK  status: ('A' for Active; 'I' for Inactive)
REMARK    1  A    between atoms: C_1  and  C_2
REMARK    2  A    between atoms: C_2  and  C_3
REMARK    3  A    between atoms: C_2  and  C_4
REMARK    4  A    between atoms: C_2  and  N_7
REMARK    5  A    between atoms: C_4  and  C_5
REMARK    6  A    between atoms: C_5  and  O_6
REMARK    7  A    between atoms: C_8  and  C_10
REMARK    8  A    between atoms: C_13  and  C_14
REMARK    9  A    between atoms: C_17  and  O_18
REMARK   10  A    between atoms: O_18  and  C_19
REMARK   11  A    between atoms: C_19  and  C_20
REMARK                            x       y       z     vdW  Elec       q    Type
REMARK                         _______ _______ _______ _____ _____    ______ ____
ROOT
ATOM      1  C   UNL     1       2.608   7.474  18.693  0.00  0.00    +0.000 A 
ATOM      2  C   UNL     1       2.250   6.674  19.768  0.00  0.00    +0.000 A 
ATOM      3  N   UNL     1       2.817   5.467  19.994  0.00  0.00    +0.000 NA
ATOM      4  C   UNL     1       3.768   5.063  19.105  0.00  0.00    +0.000 A 
ATOM      5  C   UNL     1       4.116   5.899  18.023  0.00  0.00    +0.000 A 
ATOM      6  N   UNL     1       3.554   7.113  17.780  0.00  0.00    +0.000 NA
ENDROOT
BRANCH   1   8
ATOM      7  N   UNL     1       1.213   9.236  19.612  0.00  0.00    +0.000 N 
ATOM      8  C   UNL     1       1.919   8.783  18.519  0.00  0.00    +0.000 C 
ATOM      9  O   UNL     1       2.014   9.390  17.456  0.00  0.00    +0.000 OA
ATOM     10  H   UNL     1       1.255   8.653  20.442  0.00  0.00    +0.000 HD
BRANCH   7  12
ATOM     11  C   UNL     1      -0.426  10.507  20.917  0.00  0.00    +0.000 C 
ATOM     12  C   UNL     1       0.445  10.495  19.646  0.00  0.00    +0.000 C 
ATOM     13  C   UNL     1      -0.517  10.558  18.440  0.00  0.00    +0.000 C 
BRANCH  12  14
ATOM     14  C   UNL     1       1.385  11.728  19.628  0.00  0.00    +0.000 C 
BRANCH  14  15
ATOM     15  C   UNL     1       1.275  12.586  18.368  0.00  0.00    +0.000 C 
BRANCH  15  16
ATOM     16  O   UNL     1       2.393  12.345  17.520  0.00  0.00    +0.000 OA
ATOM     17  H   UNL     1       2.836  11.544  17.848  0.00  0.00    +0.000 HD
ENDBRANCH  15  16
ENDBRANCH  14  15
ENDBRANCH  12  14
ENDBRANCH   7  12
ENDBRANCH   1   8
BRANCH   4  18
ATOM     18  C   UNL     1       4.421   3.712  19.308  0.00  0.00    +0.000 C 
ATOM     19  C   UNL     1       3.707   2.640  20.101  0.00  0.00    +0.000 C 
ATOM     20  C   UNL     1       3.866   2.485  18.618  0.00  0.00    +0.000 C 
ENDBRANCH   4  18
BRANCH   5  21
ATOM     21  O   UNL     1       5.021   5.377  17.119  0.00  0.00    +0.000 OA
BRANCH  21  22
ATOM     22  C   UNL     1       5.765   6.355  16.406  0.00  0.00    +0.000 C 
BRANCH  22  23
ATOM     23  C   UNL     1       7.178   6.298  16.916  0.00  0.00    +0.000 C 
ATOM     24  C   UNL     1       7.715   7.414  17.780  0.00  0.00    +0.000 C 
ATOM     25  C   UNL     1       7.469   6.058  18.376  0.00  0.00    +0.000 C 
ENDBRANCH  22  23
ENDBRANCH  21  22
ENDBRANCH   5  21
TORSDOF 9
ENDMDL
MODEL 4
REMARK VINA RESULT:      -6.3      1.703      2.414
REMARK  Name = 
REMARK  11 active torsions:
REMARK  status: ('A' for Active; 'I' for Inactive)
REMARK    1  A    between atoms: C_1  and  C_2
REMARK    2  A    between atoms: C_2  and  C_3
REMARK    3  A    between atoms: C_2  and  C_4
REMARK    4  A    between atoms: C_2  and  N_7
REMARK    5  A    between atoms: C_4  and  C_5
REMARK    6  A    between atoms: C_5  and  O_6
REMARK    7  A    between atoms: C_8  and  C_10
REMARK    8  A    between atoms: C_13  and  C_14
REMARK    9  A    between atoms: C_17  and  O_18
REMARK   10  A    between atoms: O_18  and  C_19
REMARK   11  A    between atoms: C_19  and  C_20
REMARK                            x       y       z     vdW  Elec       q    Type
REMARK                         _______ _______ _______ _____ _____    ______ ____
ROOT
ATOM      1  C   UNL     1       2.764   7.627  17.944  0.00  0.00    +0.000 A 
ATOM      2  C   UNL     1       4.057   7.789  17.471  0.00  0.00    +0.000 A 
ATOM      3  N   UNL     1       4.866   6.739  17.201  0.00  0.00    +0.000 NA
ATOM      4  C   UNL     1       4.349   5.496  17.417  0.00  0.00    +0.000 A 
ATOM      5  C   UNL     1       3.028   5.362  17.895  0.00  0.00    +0.000 A 
ATOM      6  N   UNL     1       2.203   6.406  18.174  0.00  0.00    +0.000 NA
ENDROOT
BRANCH   1   8
ATOM      7  N   UNL     1       1.275   8.846  19.425  0.00  0.00    +0.000 N 
ATOM      8  C   UNL     1       1.952   8.844  18.225  0.00  0.00    +0.000 C 
ATOM      9  O   UNL     1       1.930   9.768  17.416  0.00  0.00    +0.000 OA
ATOM     10  H   UNL     1       1.417   8.034  20.017  0.00  0.00    +0.000 HD
BRANCH   7  12
ATOM     11  C   UNL     1      -0.725  10.143  18.858  0.00  0.00    +0.000 C 
ATOM     12  C   UNL     1       0.402   9.940  19.889  0.00  0.00    +0.000 C 
ATOM     13  C   UNL     1       1.201  11.260  19.950  0.00  0.00    +0.000 C 
BRANCH  12  14
ATOM     14  C   UNL     1      -0.197   9.630  21.285  0.00  0.00    +0.000 C 
BRANCH  14  15
ATOM     15  C   UNL     1       0.842   9.331  22.365  0.00  0.00    +0.000 C 
BRANCH  15  16
ATOM     16  O   UNL     1       0.354   9.753  23.635  0.00  0.00    +0.000 OA
ATOM     17  H   UNL     1      -0.579   9.485  23.688  0.00  0.00    +0.000 HD
ENDBRANCH  15  16
ENDBRANCH  14  15
ENDBRANCH  12  14
ENDBRANCH   7  12
ENDBRANCH   1   8
BRANCH   4  18
ATOM     18  C   UNL     1       5.222   4.290  17.143  0.00  0.00    +0.000 C 
ATOM     19  C   UNL     1       5.640   3.967  15.726  0.00  0.00    +0.000 C 
ATOM     20  C   UNL     1       6.658   4.472  16.705  0.00  0.00    +0.000 C 
ENDBRANCH   4  18
BRANCH   5  21
ATOM     21  O   UNL     1       2.612   4.075  18.174  0.00  0.00    +0.000 OA
BRANCH  21  22
ATOM     22  C   UNL     1       1.524   3.996  19.085  0.00  0.00    +0.000 C 
BRANCH  22  23
ATOM     23  C   UNL     1       2.107   3.924  20.469  0.00  0.00    +0.000 C 
ATOM     24  C   UNL     1       1.529   2.969  21.485  0.00  0.00    +0.000 C 
ATOM     25  C   UNL     1       2.897   2.721  20.919  0.00  0.00    +0.000 C 
ENDBRANCH  22  23
ENDBRANCH  21  22
ENDBRANCH   5  21
TORSDOF 9
ENDMDL
MODEL 5
REMARK VINA RESULT:      -6.3      2.053      4.012
REMARK  Name = 
REMARK  11 active torsions:
REMARK  status: ('A' for Active; 'I' for Inactive)
REMARK    1  A    between atoms: C_1  and  C_2
REMARK    2  A    between atoms: C_2  and  C_3
REMARK    3  A    between atoms: C_2  and  C_4
REMARK    4  A    between atoms: C_2  and  N_7
REMARK    5  A    between atoms: C_4  and  C_5
REMARK    6  A    between atoms: C_5  and  O_6
REMARK    7  A    between atoms: C_8  and  C_10
REMARK    8  A    between atoms: C_13  and  C_14
REMARK    9  A    between atoms: C_17  and  O_18
REMARK   10  A    between atoms: O_18  and  C_19
REMARK   11  A    between atoms: C_19  and  C_20
REMARK                            x       y       z     vdW  Elec       q    Type
REMARK                         _______ _______ _______ _____ _____    ______ ____
ROOT
ATOM      1  C   UNL     1       2.584   7.424  18.682  0.00  0.00    +0.000 A 
ATOM      2  C   UNL     1       2.208   6.628  19.753  0.00  0.00    +0.000 A 
ATOM      3  N   UNL     1       2.779   5.427  19.999  0.00  0.00    +0.000 NA
ATOM      4  C   UNL     1       3.753   5.024  19.135  0.00  0.00    +0.000 A 
ATOM      5  C   UNL     1       4.118   5.856  18.054  0.00  0.00    +0.000 A 
ATOM      6  N   UNL     1       3.553   7.065  17.792  0.00  0.00    +0.000 NA
ENDROOT
BRANCH   1   8
ATOM      7  N   UNL     1       1.125   9.163  19.545  0.00  0.00    +0.000 N 
ATOM      8  C   UNL     1       1.889   8.726  18.484  0.00  0.00    +0.000 C 
ATOM      9  O   UNL     1       2.029   9.343  17.431  0.00  0.00    +0.000 OA
ATOM     10  H   UNL     1       1.133   8.573  20.371  0.00  0.00    +0.000 HD
BRANCH   7  12
ATOM     11  C   UNL     1      -0.698  10.348  18.415  0.00  0.00    +0.000 C 
ATOM     12  C   UNL     1       0.342  10.412  19.551  0.00  0.00    +0.000 C 
ATOM     13  C   UNL     1       1.265  11.613  19.249  0.00  0.00    +0.000 C 
BRANCH  12  14
ATOM     14  C   UNL     1      -0.364  10.628  20.914  0.00  0.00    +0.000 C 
BRANCH  14  15
ATOM     15  C   UNL     1      -0.022   9.582  21.974  0.00  0.00    +0.000 C 
BRANCH  15  16
ATOM     16  O   UNL     1       1.302   9.791  22.452  0.00  0.00    +0.000 OA
ATOM     17  H   UNL     1       1.830  10.118  21.703  0.00  0.00    +0.000 HD
ENDBRANCH  15  16
ENDBRANCH  14  15
ENDBRANCH  12  14
ENDBRANCH   7  12
ENDBRANCH   1   8
BRANCH   4  18
ATOM     18  C   UNL     1       4.412   3.680  19.360  0.00  0.00    +0.000 C 
ATOM     19  C   UNL     1       3.706   2.622  20.179  0.00  0.00    +0.000 C 
ATOM     20  C   UNL     1       3.857   2.438  18.699  0.00  0.00    +0.000 C 
ENDBRANCH   4  18
BRANCH   5  21
ATOM     21  O   UNL     1       5.047   5.336  17.175  0.00  0.00    +0.000 OA
BRANCH  21  22
ATOM     22  C   UNL     1       5.763   6.315  16.434  0.00  0.00    +0.000 C 
BRANCH  22  23
ATOM     23  C   UNL     1       7.180   6.304  16.937  0.00  0.00    +0.000 C 
ATOM     24  C   UNL     1       7.733   7.505  17.665  0.00  0.00    +0.000 C 
ATOM     25  C   UNL     1       7.482   6.228  18.413  0.00  0.00    +0.000 C 
ENDBRANCH  22  23
ENDBRANCH  21  22
ENDBRANCH   5  21
TORSDOF 9
ENDMDL
MODEL 6
REMARK VINA RESULT:      -6.2      1.688      3.306
REMARK  Name = 
REMARK  11 active torsions:
REMARK  status: ('A' for Active; 'I' for Inactive)
REMARK    1  A    between atoms: C_1  and  C_2
REMARK    2  A    between atoms: C_2  and  C_3
REMARK    3  A    between atoms: C_2  and  C_4
REMARK    4  A    between atoms: C_2  and  N_7
REMARK    5  A    between atoms: C_4  and  C_5
REMARK    6  A    between atoms: C_5  and  O_6
REMARK    7  A    between atoms: C_8  and  C_10
REMARK    8  A    between atoms: C_13  and  C_14
REMARK    9  A    between atoms: C_17  and  O_18
REMARK   10  A    between atoms: O_18  and  C_19
REMARK   11  A    between atoms: C_19  and  C_20
REMARK                            x       y       z     vdW  Elec       q    Type
REMARK                         _______ _______ _______ _____ _____    ______ ____
ROOT
ATOM      1  C   UNL     1       2.698   7.579  18.450  0.00  0.00    +0.000 A 
ATOM      2  C   UNL     1       2.230   6.615  19.329  0.00  0.00    +0.000 A 
ATOM      3  N   UNL     1       2.836   5.414  19.478  0.00  0.00    +0.000 NA
ATOM      4  C   UNL     1       3.943   5.189  18.714  0.00  0.00    +0.000 A 
ATOM      5  C   UNL     1       4.399   6.190  17.830  0.00  0.00    +0.000 A 
ATOM      6  N   UNL     1       3.800   7.400  17.667  0.00  0.00    +0.000 NA
ENDROOT
BRANCH   1   8
ATOM      7  N   UNL     1       1.143   9.176  19.413  0.00  0.00    +0.000 N 
ATOM      8  C   UNL     1       1.957   8.866  18.345  0.00  0.00    +0.000 C 
ATOM      9  O   UNL     1       2.104   9.581  17.357  0.00  0.00    +0.000 OA
ATOM     10  H   UNL     1       1.150   8.515  20.183  0.00  0.00    +0.000 HD
BRANCH   7  12
ATOM     11  C   UNL     1       1.228  11.625  19.434  0.00  0.00    +0.000 C 
ATOM     12  C   UNL     1       0.310  10.389  19.503  0.00  0.00    +0.000 C 
ATOM     13  C   UNL     1      -0.406  10.436  20.870  0.00  0.00    +0.000 C 
BRANCH  12  14
ATOM     14  C   UNL     1      -0.741  10.437  18.364  0.00  0.00    +0.000 C 
BRANCH  14  15
ATOM     15  C   UNL     1      -1.637  11.674  18.383  0.00  0.00    +0.000 C 
BRANCH  15  16
ATOM     16  O   UNL     1      -1.432  12.439  17.199  0.00  0.00    +0.000 OA
ATOM     17  H   UNL     1      -2.203  13.024  17.098  0.00  0.00    +0.000 HD
ENDBRANCH  15  16
ENDBRANCH  14  15
ENDBRANCH  12  14
ENDBRANCH   7  12
ENDBRANCH   1   8
BRANCH   4  18
ATOM     18  C   UNL     1       4.647   3.854  18.834  0.00  0.00    +0.000 C 
ATOM     19  C   UNL     1       4.104   2.796  19.769  0.00  0.00    +0.000 C 
ATOM     20  C   UNL     1       4.004   2.600  18.286  0.00  0.00    +0.000 C 
ENDBRANCH   4  18
BRANCH   5  21
ATOM     21  O   UNL     1       5.470   5.849  17.028  0.00  0.00    +0.000 OA
BRANCH  21  22
ATOM     22  C   UNL     1       5.246   6.048  15.638  0.00  0.00    +0.000 C 
BRANCH  22  23
ATOM     23  C   UNL     1       5.261   4.692  14.988  0.00  0.00    +0.000 C 
ATOM     24  C   UNL     1       6.393   4.310  14.064  0.00  0.00    +0.000 C 
ATOM     25  C   UNL     1       6.261   3.641  15.401  0.00  0.00    +0.000 C 
ENDBRANCH  22  23
ENDBRANCH  21  22
ENDBRANCH   5  21
TORSDOF 9
ENDMDL
MODEL 7
REMARK VINA RESULT:      -6.1      1.109      1.419
REMARK  Name = 
REMARK  11 active torsions:
REMARK  status: ('A' for Active; 'I' for Inactive)
REMARK    1  A    between atoms: C_1  and  C_2
REMARK    2  A    between atoms: C_2  and  C_3
REMARK    3  A    between atoms: C_2  and  C_4
REMARK    4  A    between atoms: C_2  and  N_7
REMARK    5  A    between atoms: C_4  and  C_5
REMARK    6  A    between atoms: C_5  and  O_6
REMARK    7  A    between atoms: C_8  and  C_10
REMARK    8  A    between atoms: C_13  and  C_14
REMARK    9  A    between atoms: C_17  and  O_18
REMARK   10  A    between atoms: O_18  and  C_19
REMARK   11  A    between atoms: C_19  and  C_20
REMARK                            x       y       z     vdW  Elec       q    Type
REMARK                         _______ _______ _______ _____ _____    ______ ____
ROOT
ATOM      1  C   UNL     1       2.903   7.485  17.920  0.00  0.00    +0.000 A 
ATOM      2  C   UNL     1       4.119   7.722  17.296  0.00  0.00    +0.000 A 
ATOM      3  N   UNL     1       4.982   6.727  16.988  0.00  0.00    +0.000 NA
ATOM      4  C   UNL     1       4.601   5.462  17.324  0.00  0.00    +0.000 A 
ATOM      5  C   UNL     1       3.356   5.249  17.955  0.00  0.00    +0.000 A 
ATOM      6  N   UNL     1       2.479   6.239  18.273  0.00  0.00    +0.000 NA
ENDROOT
BRANCH   1   8
ATOM      7  N   UNL     1       1.410   8.617  19.463  0.00  0.00    +0.000 N 
ATOM      8  C   UNL     1       2.025   8.647  18.231  0.00  0.00    +0.000 C 
ATOM      9  O   UNL     1       1.899   9.557  17.416  0.00  0.00    +0.000 OA
ATOM     10  H   UNL     1       1.637   7.825  20.055  0.00  0.00    +0.000 HD
BRANCH   7  12
ATOM     11  C   UNL     1       1.295  10.937  20.243  0.00  0.00    +0.000 C 
ATOM     12  C   UNL     1       0.488   9.656  19.961  0.00  0.00    +0.000 C 
ATOM     13  C   UNL     1      -0.133   9.209  21.302  0.00  0.00    +0.000 C 
BRANCH  12  14
ATOM     14  C   UNL     1      -0.639   9.946  18.937  0.00  0.00    +0.000 C 
BRANCH  14  15
ATOM     15  C   UNL     1      -1.101  11.402  18.902  0.00  0.00    +0.000 C 
BRANCH  15  16
ATOM     16  O   UNL     1      -1.039  11.898  17.569  0.00  0.00    +0.000 OA
ATOM     17  H   UNL     1      -0.303  11.442  17.126  0.00  0.00    +0.000 HD
ENDBRANCH  15  16
ENDBRANCH  14  15
ENDBRANCH  12  14
ENDBRANCH   7  12
ENDBRANCH   1   8
BRANCH   4  18
ATOM     18  C   UNL     1       5.540   4.316  17.013  0.00  0.00    +0.000 C 
ATOM     19  C   UNL     1       5.798   3.920  15.576  0.00  0.00    +0.000 C 
ATOM     20  C   UNL     1       6.883   4.583  16.371  0.00  0.00    +0.000 C 
ENDBRANCH   4  18
BRANCH   5  21
ATOM     21  O   UNL     1       3.087   3.952  18.344  0.00  0.00    +0.000 OA
BRANCH  21  22
ATOM     22  C   UNL     1       3.354   3.684  19.714  0.00  0.00    +0.000 C 
BRANCH  22  23
ATOM     23  C   UNL     1       2.267   2.771  20.208  0.00  0.00    +0.000 C 
ATOM     24  C   UNL     1       1.736   2.921  21.614  0.00  0.00    +0.000 C 
ATOM     25  C   UNL     1       0.868   3.284  20.444  0.00  0.00    +0.000 C 
ENDBRANCH  22  23
ENDBRANCH  21  22
ENDBRANCH   5  21
TORSDOF 9
ENDMDL
MODEL 8
REMARK VINA RESULT:      -6.1      1.264      1.313
REMARK  Name = 
REMARK  11 active torsions:
REMARK  status: ('A' for Active; 'I' for Inactive)
REMARK    1  A    between atoms: C_1  and  C_2
REMARK    2  A    between atoms: C_2  and  C_3
REMARK    3  A    between atoms: C_2  and  C_4
REMARK    4  A    between atoms: C_2  and  N_7
REMARK    5  A    between atoms: C_4  and  C_5
REMARK    6  A    between atoms: C_5  and  O_6
REMARK    7  A    between atoms: C_8  and  C_10
REMARK    8  A    between atoms: C_13  and  C_14
REMARK    9  A    between atoms: C_17  and  O_18
REMARK   10  A    between atoms: O_18  and  C_19
REMARK   11  A    between atoms: C_19  and  C_20
REMARK                            x       y       z     vdW  Elec       q    Type
REMARK                         _______ _______ _______ _____ _____    ______ ____
ROOT
ATOM      1  C   UNL     1       1.965   8.011  19.391  0.00  0.00    +0.000 A 
ATOM      2  C   UNL     1       2.625   8.196  18.186  0.00  0.00    +0.000 A 
ATOM      3  N   UNL     1       3.438   7.254  17.654  0.00  0.00    +0.000 NA
ATOM      4  C   UNL     1       3.585   6.100  18.364  0.00  0.00    +0.000 A 
ATOM      5  C   UNL     1       2.897   5.938  19.586  0.00  0.00    +0.000 A 
ATOM      6  N   UNL     1       2.079   6.874  20.136  0.00  0.00    +0.000 NA
ENDROOT
BRANCH   1   8
ATOM      7  N   UNL     1       1.107  10.271  19.164  0.00  0.00    +0.000 N 
ATOM      8  C   UNL     1       1.100   9.109  19.905  0.00  0.00    +0.000 C 
ATOM      9  O   UNL     1       0.430   8.940  20.920  0.00  0.00    +0.000 OA
ATOM     10  H   UNL     1       1.674  10.258  18.322  0.00  0.00    +0.000 HD
BRANCH   7  12
ATOM     11  C   UNL     1       0.795  12.631  18.583  0.00  0.00    +0.000 C 
ATOM     12  C   UNL     1       0.339  11.483  19.505  0.00  0.00    +0.000 C 
ATOM     13  C   UNL     1       0.654  11.915  20.953  0.00  0.00    +0.000 C 
BRANCH  12  14
ATOM     14  C   UNL     1      -1.185  11.245  19.352  0.00  0.00    +0.000 C 
BRANCH  14  15
ATOM     15  C   UNL     1      -1.690  11.292  17.911  0.00  0.00    +0.000 C 
BRANCH  15  16
ATOM     16  O   UNL     1      -1.206  10.164  17.191  0.00  0.00    +0.000 OA
ATOM     17  H   UNL     1      -0.251  10.100  17.365  0.00  0.00    +0.000 HD
ENDBRANCH  15  16
ENDBRANCH  14  15
ENDBRANCH  12  14
ENDBRANCH   7  12
ENDBRANCH   1   8
BRANCH   4  18
ATOM     18  C   UNL     1       4.496   5.023  17.815  0.00  0.00    +0.000 C 
ATOM     19  C   UNL     1       3.970   4.034  16.799  0.00  0.00    +0.000 C 
ATOM     20  C   UNL     1       4.962   5.077  16.378  0.00  0.00    +0.000 C 
ENDBRANCH   4  18
BRANCH   5  21
ATOM     21  O   UNL     1       3.171   4.779  20.286  0.00  0.00    +0.000 OA
BRANCH  21  22
ATOM     22  C   UNL     1       2.144   4.385  21.188  0.00  0.00    +0.000 C 
BRANCH  22  23
ATOM     23  C   UNL     1       1.692   3.013  20.773  0.00  0.00    +0.000 C 
ATOM     24  C   UNL     1       0.791   2.844  19.573  0.00  0.00    +0.000 C 
ATOM     25  C   UNL     1       2.214   2.368  19.513  0.00  0.00    +0.000 C 
ENDBRANCH  22  23
ENDBRANCH  21  22
ENDBRANCH   5  21
TORSDOF 9
ENDMDL
MODEL 9
REMARK VINA RESULT:      -6.1      1.290      2.177
REMARK  Name = 
REMARK  11 active torsions:
REMARK  status: ('A' for Active; 'I' for Inactive)
REMARK    1  A    between atoms: C_1  and  C_2
REMARK    2  A    between atoms: C_2  and  C_3
REMARK    3  A    between atoms: C_2  and  C_4
REMARK    4  A    between atoms: C_2  and  N_7
REMARK    5  A    between atoms: C_4  and  C_5
REMARK    6  A    between atoms: C_5  and  O_6
REMARK    7  A    between atoms: C_8  and  C_10
REMARK    8  A    between atoms: C_13  and  C_14
REMARK    9  A    between atoms: C_17  and  O_18
REMARK   10  A    between atoms: O_18  and  C_19
REMARK   11  A    between atoms: C_19  and  C_20
REMARK                            x       y       z     vdW  Elec       q    Type
REMARK                         _______ _______ _______ _____ _____    ______ ____
ROOT
ATOM      1  C   UNL     1       2.380   7.994  18.632  0.00  0.00    +0.000 A 
ATOM      2  C   UNL     1       3.251   7.913  17.557  0.00  0.00    +0.000 A 
ATOM      3  N   UNL     1       4.075   6.856  17.370  0.00  0.00    +0.000 NA
ATOM      4  C   UNL     1       4.014   5.861  18.300  0.00  0.00    +0.000 A 
ATOM      5  C   UNL     1       3.115   5.969  19.382  0.00  0.00    +0.000 A 
ATOM      6  N   UNL     1       2.282   7.025  19.586  0.00  0.00    +0.000 NA
ENDROOT
BRANCH   1   8
ATOM      7  N   UNL     1       0.991   9.430  20.013  0.00  0.00    +0.000 N 
ATOM      8  C   UNL     1       1.520   9.203  18.761  0.00  0.00    +0.000 C 
ATOM      9  O   UNL     1       1.335   9.931  17.789  0.00  0.00    +0.000 OA
ATOM     10  H   UNL     1       1.262   8.770  20.736  0.00  0.00    +0.000 HD
BRANCH   7  12
ATOM     11  C   UNL     1      -1.129  10.508  19.425  0.00  0.00    +0.000 C 
ATOM     12  C   UNL     1       0.101  10.556  20.352  0.00  0.00    +0.000 C 
ATOM     13  C   UNL     1       0.819  11.895  20.078  0.00  0.00    +0.000 C 
BRANCH  12  14
ATOM     14  C   UNL     1      -0.342  10.496  21.836  0.00  0.00    +0.000 C 
BRANCH  14  15
ATOM     15  C   UNL     1       0.199   9.294  22.609  0.00  0.00    +0.000 C 
BRANCH  15  16
ATOM     16  O   UNL     1       1.567   9.506  22.940  0.00  0.00    +0.000 OA
ATOM     17  H   UNL     1       2.086   9.352  22.132  0.00  0.00    +0.000 HD
ENDBRANCH  15  16
ENDBRANCH  14  15
ENDBRANCH  12  14
ENDBRANCH   7  12
ENDBRANCH   1   8
BRANCH   4  18
ATOM     18  C   UNL     1       4.928   4.664  18.141  0.00  0.00    +0.000 C 
ATOM     19  C   UNL     1       4.625   3.617  17.093  0.00  0.00    +0.000 C 
ATOM     20  C   UNL     1       5.802   4.529  16.915  0.00  0.00    +0.000 C 
ENDBRANCH   4  18
BRANCH   5  21
ATOM     21  O   UNL     1       3.180   4.963  20.327  0.00  0.00    +0.000 OA
BRANCH  21  22
ATOM     22  C   UNL     1       1.941   4.308  20.568  0.00  0.00    +0.000 C 
BRANCH  22  23
ATOM     23  C   UNL     1       1.889   3.110  19.660  0.00  0.00    +0.000 C 
ATOM     24  C   UNL     1       0.564   2.457  19.347  0.00  0.00    +0.000 C 
ATOM     25  C   UNL     1       1.300   3.208  18.275  0.00  0.00    +0.000 C 
ENDBRANCH  22  23
ENDBRANCH  21  22
ENDBRANCH   5  21
TORSDOF 9
ENDMDL
