MODEL 1
REMARK VINA RESULT:      -9.2      0.000      0.000
REMARK  Name = 
REMARK  7 active torsions:
REMARK  status: ('A' for Active; 'I' for Inactive)
REMARK    1  A    between atoms: C_2  and  C_3
REMARK    2  A    between atoms: C_3  and  O_4
REMARK    3  A    between atoms: O_4  and  C_5
REMARK    4  A    between atoms: C_5  and  C_7
REMARK    5  A    between atoms: C_8  and  C_9
REMARK    6  A    between atoms: N_16  and  C_17
REMARK    7  A    between atoms: C_22  and  C_23
REMARK                            x       y       z     vdW  Elec       q    Type
REMARK                         _______ _______ _______ _____ _____    ______ ____
ROOT
ATOM      1  O   UNL     1       3.960   4.484  16.526  0.00  0.00    +0.000 OA
ATOM      2  C   UNL     1       4.697   5.298  17.079  0.00  0.00    +0.000 C 
ATOM      3  N   UNL     1       4.667   5.620  18.432  0.00  0.00    +0.000 N 
ATOM      4  H   UNL     1       5.527   5.977  18.830  0.00  0.00    +0.000 HD
ENDROOT
BRANCH   3   5
ATOM      5  C   UNL     1       3.746   5.017  19.322  0.00  0.00    +0.000 A 
ATOM      6  C   UNL     1       3.970   3.680  19.690  0.00  0.00    +0.000 A 
ATOM      7  C   UNL     1       3.065   3.000  20.500  0.00  0.00    +0.000 A 
ATOM      8  C   UNL     1       1.955   3.668  20.997  0.00  0.00    +0.000 A 
ATOM      9  C   UNL     1       1.737   5.006  20.654  0.00  0.00    +0.000 A 
ATOM     10  C   UNL     1       2.594   5.708  19.777  0.00  0.00    +0.000 A 
BRANCH  10  11
ATOM     11  C   UNL     1       2.248   7.104  19.384  0.00  0.00    +0.000 A 
ATOM     12  C   UNL     1       2.418   7.594  18.076  0.00  0.00    +0.000 A 
ATOM     13  C   UNL     1       1.950   8.858  17.699  0.00  0.00    +0.000 A 
ATOM     14  C   UNL     1       1.368   9.695  18.645  0.00  0.00    +0.000 A 
ATOM     15  C   UNL     1       1.272   9.277  19.966  0.00  0.00    +0.000 A 
ATOM     16  C   UNL     1       1.697   7.996  20.327  0.00  0.00    +0.000 A 
ENDBRANCH  10  11
ENDBRANCH   3   5
BRANCH   2  17
ATOM     17  C   UNL     1       5.868   5.938  16.326  0.00  0.00    +0.000 C 
BRANCH  17  18
ATOM     18  O   UNL     1       6.247   7.242  16.756  0.00  0.00    +0.000 OA
BRANCH  18  19
ATOM     19  C   UNL     1       7.314   7.246  17.586  0.00  0.00    +0.000 C 
ATOM     20  O   UNL     1       7.848   6.267  18.081  0.00  0.00    +0.000 OA
BRANCH  19  21
ATOM     21  C   UNL     1       7.760   8.633  17.764  0.00  0.00    +0.000 C 
ATOM     22  C   UNL     1       8.669   8.911  18.708  0.00  0.00    +0.000 C 
BRANCH  22  23
ATOM     23  C   UNL     1       9.226  10.249  18.923  0.00  0.00    +0.000 A 
ATOM     24  C   UNL     1       9.527  11.122  17.864  0.00  0.00    +0.000 A 
ATOM     25  C   UNL     1      10.081  12.382  18.113  0.00  0.00    +0.000 A 
ATOM     26  C   UNL     1      10.325  12.785  19.424  0.00  0.00    +0.000 A 
ATOM     27  C   UNL     1      10.000  11.934  20.472  0.00  0.00    +0.000 A 
ATOM     28  F   UNL     1      10.225  12.325  21.732  0.00  0.00    +0.000 F 
ATOM     29  C   UNL     1       9.449  10.679  20.235  0.00  0.00    +0.000 A 
ENDBRANCH  22  23
ENDBRANCH  19  21
ENDBRANCH  18  19
ENDBRANCH  17  18
ENDBRANCH   2  17
TORSDOF 7
ENDMDL
MODEL 2
REMARK VINA RESULT:      -9.2      1.523      2.123
REMARK  Name = 
REMARK  7 active torsions:
REMARK  status: ('A' for Active; 'I' for Inactive)
REMARK    1  A    between atoms: C_2  and  C_3
REMARK    2  A    between atoms: C_3  and  O_4
REMARK    3  A    between atoms: O_4  and  C_5
REMARK    4  A    between atoms: C_5  and  C_7
REMARK    5  A    between atoms: C_8  and  C_9
REMARK    6  A    between atoms: N_16  and  C_17
REMARK    7  A    between atoms: C_22  and  C_23
REMARK                            x       y       z     vdW  Elec       q    Type
REMARK                         _______ _______ _______ _____ _____    ______ ____
ROOT
ATOM      1  O   UNL     1       6.075   4.036  17.293  0.00  0.00    +0.000 OA
ATOM      2  C   UNL     1       6.036   4.713  18.319  0.00  0.00    +0.000 C 
ATOM      3  N   UNL     1       4.997   4.709  19.244  0.00  0.00    +0.000 N 
ATOM      4  H   UNL     1       5.235   4.979  20.191  0.00  0.00    +0.000 HD
ENDROOT
BRANCH   3   5
ATOM      5  C   UNL     1       3.850   3.897  19.076  0.00  0.00    +0.000 A 
ATOM      6  C   UNL     1       4.042   2.514  18.925  0.00  0.00    +0.000 A 
ATOM      7  C   UNL     1       2.967   1.664  18.678  0.00  0.00    +0.000 A 
ATOM      8  C   UNL     1       1.681   2.184  18.636  0.00  0.00    +0.000 A 
ATOM      9  C   UNL     1       1.478   3.557  18.807  0.00  0.00    +0.000 A 
ATOM     10  C   UNL     1       2.551   4.460  18.988  0.00  0.00    +0.000 A 
BRANCH  10  11
ATOM     11  C   UNL     1       2.264   5.920  19.072  0.00  0.00    +0.000 A 
ATOM     12  C   UNL     1       1.822   6.544  20.253  0.00  0.00    +0.000 A 
ATOM     13  C   UNL     1       1.702   7.936  20.347  0.00  0.00    +0.000 A 
ATOM     14  C   UNL     1       1.947   8.732  19.234  0.00  0.00    +0.000 A 
ATOM     15  C   UNL     1       2.292   8.138  18.026  0.00  0.00    +0.000 A 
ATOM     16  C   UNL     1       2.458   6.752  17.951  0.00  0.00    +0.000 A 
ENDBRANCH  10  11
ENDBRANCH   3   5
BRANCH   2  17
ATOM     17  C   UNL     1       7.249   5.533  18.768  0.00  0.00    +0.000 C 
BRANCH  17  18
ATOM     18  O   UNL     1       7.131   6.946  18.632  0.00  0.00    +0.000 OA
BRANCH  18  19
ATOM     19  C   UNL     1       7.633   7.418  17.468  0.00  0.00    +0.000 C 
ATOM     20  O   UNL     1       7.664   6.827  16.402  0.00  0.00    +0.000 OA
BRANCH  19  21
ATOM     21  C   UNL     1       8.103   8.791  17.688  0.00  0.00    +0.000 C 
ATOM     22  C   UNL     1       8.737   9.089  18.830  0.00  0.00    +0.000 C 
BRANCH  22  23
ATOM     23  C   UNL     1       9.300  10.411  19.119  0.00  0.00    +0.000 A 
ATOM     24  C   UNL     1       9.603  10.835  20.424  0.00  0.00    +0.000 A 
ATOM     25  C   UNL     1      10.117  12.115  20.657  0.00  0.00    +0.000 A 
ATOM     26  C   UNL     1      10.346  12.975  19.586  0.00  0.00    +0.000 A 
ATOM     27  C   UNL     1      10.076  12.545  18.294  0.00  0.00    +0.000 A 
ATOM     28  F   UNL     1      10.306  13.368  17.263  0.00  0.00    +0.000 F 
ATOM     29  C   UNL     1       9.564  11.274  18.051  0.00  0.00    +0.000 A 
ENDBRANCH  22  23
ENDBRANCH  19  21
ENDBRANCH  18  19
ENDBRANCH  17  18
ENDBRANCH   2  17
TORSDOF 7
ENDMDL
MODEL 3
REMARK VINA RESULT:      -9.1      1.215      1.679
REMARK  Name = 
REMARK  7 active torsions:
REMARK  status: ('A' for Active; 'I' for Inactive)
REMARK    1  A    between atoms: C_2  and  C_3
REMARK    2  A    between atoms: C_3  and  O_4
REMARK    3  A    between atoms: O_4  and  C_5
REMARK    4  A    between atoms: C_5  and  C_7
REMARK    5  A    between atoms: C_8  and  C_9
REMARK    6  A    between atoms: N_16  and  C_17
REMARK    7  A    between atoms: C_22  and  C_23
REMARK                            x       y       z     vdW  Elec       q    Type
REMARK                         _______ _______ _______ _____ _____    ______ ____
ROOT
ATOM      1  O   UNL     1       6.421   5.053  20.084  0.00  0.00    +0.000 OA
ATOM      2  C   UNL     1       5.962   5.004  18.945  0.00  0.00    +0.000 C 
ATOM      3  N   UNL     1       4.674   4.593  18.614  0.00  0.00    +0.000 N 
ATOM      4  H   UNL     1       4.294   4.953  17.747  0.00  0.00    +0.000 HD
ENDROOT
BRANCH   3   5
ATOM      5  C   UNL     1       3.747   4.178  19.600  0.00  0.00    +0.000 A 
ATOM      6  C   UNL     1       3.894   2.887  20.135  0.00  0.00    +0.000 A 
ATOM      7  C   UNL     1       2.974   2.384  21.051  0.00  0.00    +0.000 A 
ATOM      8  C   UNL     1       1.930   3.189  21.485  0.00  0.00    +0.000 A 
ATOM      9  C   UNL     1       1.790   4.482  20.973  0.00  0.00    +0.000 A 
ATOM     10  C   UNL     1       2.661   5.002  19.989  0.00  0.00    +0.000 A 
BRANCH  10  11
ATOM     11  C   UNL     1       2.394   6.356  19.424  0.00  0.00    +0.000 A 
ATOM     12  C   UNL     1       1.832   7.401  20.180  0.00  0.00    +0.000 A 
ATOM     13  C   UNL     1       1.728   8.701  19.673  0.00  0.00    +0.000 A 
ATOM     14  C   UNL     1       2.113   8.969  18.364  0.00  0.00    +0.000 A 
ATOM     15  C   UNL     1       2.583   7.937  17.560  0.00  0.00    +0.000 A 
ATOM     16  C   UNL     1       2.730   6.652  18.088  0.00  0.00    +0.000 A 
ENDBRANCH  10  11
ENDBRANCH   3   5
BRANCH   2  17
ATOM     17  C   UNL     1       6.747   5.564  17.754  0.00  0.00    +0.000 C 
BRANCH  17  18
ATOM     18  O   UNL     1       7.829   6.432  18.074  0.00  0.00    +0.000 OA
BRANCH  18  19
ATOM     19  C   UNL     1       7.628   7.711  17.682  0.00  0.00    +0.000 C 
ATOM     20  O   UNL     1       6.769   8.102  16.910  0.00  0.00    +0.000 OA
BRANCH  19  21
ATOM     21  C   UNL     1       8.594   8.569  18.378  0.00  0.00    +0.000 C 
ATOM     22  C   UNL     1       8.652   9.871  18.069  0.00  0.00    +0.000 C 
BRANCH  22  23
ATOM     23  C   UNL     1       9.535  10.823  18.749  0.00  0.00    +0.000 A 
ATOM     24  C   UNL     1      10.566  11.506  18.084  0.00  0.00    +0.000 A 
ATOM     25  C   UNL     1      11.401  12.388  18.778  0.00  0.00    +0.000 A 
ATOM     26  C   UNL     1      11.202  12.605  20.139  0.00  0.00    +0.000 A 
ATOM     27  C   UNL     1      10.164  11.952  20.790  0.00  0.00    +0.000 A 
ATOM     28  F   UNL     1       9.967  12.168  22.097  0.00  0.00    +0.000 F 
ATOM     29  C   UNL     1       9.328  11.073  20.110  0.00  0.00    +0.000 A 
ENDBRANCH  22  23
ENDBRANCH  19  21
ENDBRANCH  18  19
ENDBRANCH  17  18
ENDBRANCH   2  17
TORSDOF 7
ENDMDL
MODEL 4
REMARK VINA RESULT:      -9.1      1.545      2.003
REMARK  Name = 
REMARK  7 active torsions:
REMARK  status: ('A' for Active; 'I' for Inactive)
REMARK    1  A    between atoms: C_2  and  C_3
REMARK    2  A    between atoms: C_3  and  O_4
REMARK    3  A    between atoms: O_4  and  C_5
REMARK    4  A    between atoms: C_5  and  C_7
REMARK    5  A    between atoms: C_8  and  C_9
REMARK    6  A    between atoms: N_16  and  C_17
REMARK    7  A    between atoms: C_22  and  C_23
REMARK                            x       y       z     vdW  Elec       q    Type
REMARK                         _______ _______ _______ _____ _____    ______ ____
ROOT
ATOM      1  O   UNL     1       6.622   4.254  17.770  0.00  0.00    +0.000 OA
ATOM      2  C   UNL     1       6.347   5.115  18.603  0.00  0.00    +0.000 C 
ATOM      3  N   UNL     1       5.095   5.304  19.180  0.00  0.00    +0.000 N 
ATOM      4  H   UNL     1       5.080   5.747  20.091  0.00  0.00    +0.000 HD
ENDROOT
BRANCH   3   5
ATOM      5  C   UNL     1       3.987   4.491  18.842  0.00  0.00    +0.000 A 
ATOM      6  C   UNL     1       4.222   3.125  18.610  0.00  0.00    +0.000 A 
ATOM      7  C   UNL     1       3.193   2.282  18.198  0.00  0.00    +0.000 A 
ATOM      8  C   UNL     1       1.907   2.785  18.069  0.00  0.00    +0.000 A 
ATOM      9  C   UNL     1       1.660   4.139  18.319  0.00  0.00    +0.000 A 
ATOM     10  C   UNL     1       2.691   5.041  18.669  0.00  0.00    +0.000 A 
BRANCH  10  11
ATOM     11  C   UNL     1       2.367   6.487  18.831  0.00  0.00    +0.000 A 
ATOM     12  C   UNL     1       2.409   7.402  17.763  0.00  0.00    +0.000 A 
ATOM     13  C   UNL     1       1.960   8.720  17.908  0.00  0.00    +0.000 A 
ATOM     14  C   UNL     1       1.532   9.176  19.149  0.00  0.00    +0.000 A 
ATOM     15  C   UNL     1       1.569   8.323  20.246  0.00  0.00    +0.000 A 
ATOM     16  C   UNL     1       1.972   6.995  20.084  0.00  0.00    +0.000 A 
ENDBRANCH  10  11
ENDBRANCH   3   5
BRANCH   2  17
ATOM     17  C   UNL     1       7.442   5.989  19.223  0.00  0.00    +0.000 C 
BRANCH  17  18
ATOM     18  O   UNL     1       8.194   6.785  18.313  0.00  0.00    +0.000 OA
BRANCH  18  19
ATOM     19  C   UNL     1       7.438   7.664  17.616  0.00  0.00    +0.000 C 
ATOM     20  O   UNL     1       6.454   7.398  16.947  0.00  0.00    +0.000 OA
BRANCH  19  21
ATOM     21  C   UNL     1       7.976   9.013  17.832  0.00  0.00    +0.000 C 
ATOM     22  C   UNL     1       8.856   9.214  18.822  0.00  0.00    +0.000 C 
BRANCH  22  23
ATOM     23  C   UNL     1       9.499  10.505  19.080  0.00  0.00    +0.000 A 
ATOM     24  C   UNL     1       9.737  10.985  20.379  0.00  0.00    +0.000 A 
ATOM     25  C   UNL     1      10.332  12.235  20.580  0.00  0.00    +0.000 A 
ATOM     26  C   UNL     1      10.706  13.009  19.484  0.00  0.00    +0.000 A 
ATOM     27  C   UNL     1      10.498  12.521  18.200  0.00  0.00    +0.000 A 
ATOM     28  F   UNL     1      10.867  13.261  17.147  0.00  0.00    +0.000 F 
ATOM     29  C   UNL     1       9.907  11.280  17.990  0.00  0.00    +0.000 A 
ENDBRANCH  22  23
ENDBRANCH  19  21
ENDBRANCH  18  19
ENDBRANCH  17  18
ENDBRANCH   2  17
TORSDOF 7
ENDMDL
MODEL 5
REMARK VINA RESULT:      -9.1      1.318      1.844
REMARK  Name = 
REMARK  7 active torsions:
REMARK  status: ('A' for Active; 'I' for Inactive)
REMARK    1  A    between atoms: C_2  and  C_3
REMARK    2  A    between atoms: C_3  and  O_4
REMARK    3  A    between atoms: O_4  and  C_5
REMARK    4  A    between atoms: C_5  and  C_7
REMARK    5  A    between atoms: C_8  and  C_9
REMARK    6  A    between atoms: N_16  and  C_17
REMARK    7  A    between atoms: C_22  and  C_23
REMARK                            x       y       z     vdW  Elec       q    Type
REMARK                         _______ _______ _______ _____ _____    ______ ____
ROOT
ATOM      1  O   UNL     1       5.342   5.275  17.325  0.00  0.00    +0.000 OA
ATOM      2  C   UNL     1       5.571   5.308  18.532  0.00  0.00    +0.000 C 
ATOM      3  N   UNL     1       4.826   4.655  19.509  0.00  0.00    +0.000 N 
ATOM      4  H   UNL     1       5.309   4.434  20.372  0.00  0.00    +0.000 HD
ENDROOT
BRANCH   3   5
ATOM      5  C   UNL     1       3.694   3.870  19.185  0.00  0.00    +0.000 A 
ATOM      6  C   UNL     1       3.889   2.495  18.973  0.00  0.00    +0.000 A 
ATOM      7  C   UNL     1       2.836   1.676  18.576  0.00  0.00    +0.000 A 
ATOM      8  C   UNL     1       1.564   2.214  18.442  0.00  0.00    +0.000 A 
ATOM      9  C   UNL     1       1.357   3.578  18.672  0.00  0.00    +0.000 A 
ATOM     10  C   UNL     1       2.414   4.454  19.006  0.00  0.00    +0.000 A 
BRANCH  10  11
ATOM     11  C   UNL     1       2.133   5.911  19.147  0.00  0.00    +0.000 A 
ATOM     12  C   UNL     1       1.746   6.500  20.366  0.00  0.00    +0.000 A 
ATOM     13  C   UNL     1       1.631   7.887  20.507  0.00  0.00    +0.000 A 
ATOM     14  C   UNL     1       1.825   8.717  19.408  0.00  0.00    +0.000 A 
ATOM     15  C   UNL     1       2.114   8.159  18.168  0.00  0.00    +0.000 A 
ATOM     16  C   UNL     1       2.275   6.777  18.044  0.00  0.00    +0.000 A 
ENDBRANCH  10  11
ENDBRANCH   3   5
BRANCH   2  17
ATOM     17  C   UNL     1       6.844   5.967  19.074  0.00  0.00    +0.000 C 
BRANCH  17  18
ATOM     18  O   UNL     1       7.814   6.342  18.102  0.00  0.00    +0.000 OA
BRANCH  18  19
ATOM     19  C   UNL     1       7.692   7.623  17.686  0.00  0.00    +0.000 C 
ATOM     20  O   UNL     1       6.917   8.037  16.841  0.00  0.00    +0.000 OA
BRANCH  19  21
ATOM     21  C   UNL     1       8.626   8.453  18.457  0.00  0.00    +0.000 C 
ATOM     22  C   UNL     1       8.708   9.763  18.189  0.00  0.00    +0.000 C 
BRANCH  22  23
ATOM     23  C   UNL     1       9.559  10.689  18.942  0.00  0.00    +0.000 A 
ATOM     24  C   UNL     1      10.709  11.278  18.391  0.00  0.00    +0.000 A 
ATOM     25  C   UNL     1      11.507  12.137  19.154  0.00  0.00    +0.000 A 
ATOM     26  C   UNL     1      11.153  12.425  20.470  0.00  0.00    +0.000 A 
ATOM     27  C   UNL     1      10.001  11.866  21.005  0.00  0.00    +0.000 A 
ATOM     28  F   UNL     1       9.655  12.150  22.268  0.00  0.00    +0.000 F 
ATOM     29  C   UNL     1       9.201  11.010  20.256  0.00  0.00    +0.000 A 
ENDBRANCH  22  23
ENDBRANCH  19  21
ENDBRANCH  18  19
ENDBRANCH  17  18
ENDBRANCH   2  17
TORSDOF 7
ENDMDL
MODEL 6
REMARK VINA RESULT:      -9.1      1.559      1.874
REMARK  Name = 
REMARK  7 active torsions:
REMARK  status: ('A' for Active; 'I' for Inactive)
REMARK    1  A    between atoms: C_2  and  C_3
REMARK    2  A    between atoms: C_3  and  O_4
REMARK    3  A    between atoms: O_4  and  C_5
REMARK    4  A    between atoms: C_5  and  C_7
REMARK    5  A    between atoms: C_8  and  C_9
REMARK    6  A    between atoms: N_16  and  C_17
REMARK    7  A    between atoms: C_22  and  C_23
REMARK                            x       y       z     vdW  Elec       q    Type
REMARK                         _______ _______ _______ _____ _____    ______ ____
ROOT
ATOM      1  O   UNL     1       5.522   4.244  15.531  0.00  0.00    +0.000 OA
ATOM      2  C   UNL     1       5.716   5.089  16.402  0.00  0.00    +0.000 C 
ATOM      3  N   UNL     1       4.956   5.241  17.558  0.00  0.00    +0.000 N 
ATOM      4  H   UNL     1       5.418   5.675  18.348  0.00  0.00    +0.000 HD
ENDROOT
BRANCH   3   5
ATOM      5  C   UNL     1       3.850   4.404  17.839  0.00  0.00    +0.000 A 
ATOM      6  C   UNL     1       3.964   3.039  17.527  0.00  0.00    +0.000 A 
ATOM      7  C   UNL     1       2.890   2.172  17.705  0.00  0.00    +0.000 A 
ATOM      8  C   UNL     1       1.707   2.651  18.250  0.00  0.00    +0.000 A 
ATOM      9  C   UNL     1       1.592   4.004  18.583  0.00  0.00    +0.000 A 
ATOM     10  C   UNL     1       2.635   4.928  18.351  0.00  0.00    +0.000 A 
BRANCH  10  11
ATOM     11  C   UNL     1       2.407   6.371  18.647  0.00  0.00    +0.000 A 
ATOM     12  C   UNL     1       2.431   7.368  17.654  0.00  0.00    +0.000 A 
ATOM     13  C   UNL     1       2.069   8.691  17.932  0.00  0.00    +0.000 A 
ATOM     14  C   UNL     1       1.750   9.065  19.233  0.00  0.00    +0.000 A 
ATOM     15  C   UNL     1       1.810   8.125  20.254  0.00  0.00    +0.000 A 
ATOM     16  C   UNL     1       2.124   6.795  19.961  0.00  0.00    +0.000 A 
ENDBRANCH  10  11
ENDBRANCH   3   5
BRANCH   2  17
ATOM     17  C   UNL     1       6.958   5.985  16.368  0.00  0.00    +0.000 C 
BRANCH  17  18
ATOM     18  O   UNL     1       6.839   7.241  17.028  0.00  0.00    +0.000 OA
BRANCH  18  19
ATOM     19  C   UNL     1       7.718   7.401  18.044  0.00  0.00    +0.000 C 
ATOM     20  O   UNL     1       8.054   6.547  18.848  0.00  0.00    +0.000 OA
BRANCH  19  21
ATOM     21  C   UNL     1       8.240   8.772  17.996  0.00  0.00    +0.000 C 
ATOM     22  C   UNL     1       8.871   9.267  19.069  0.00  0.00    +0.000 C 
BRANCH  22  23
ATOM     23  C   UNL     1       9.484  10.598  19.101  0.00  0.00    +0.000 A 
ATOM     24  C   UNL     1       9.809  11.252  20.301  0.00  0.00    +0.000 A 
ATOM     25  C   UNL     1      10.371  12.533  20.286  0.00  0.00    +0.000 A 
ATOM     26  C   UNL     1      10.625  13.164  19.071  0.00  0.00    +0.000 A 
ATOM     27  C   UNL     1      10.332  12.505  17.884  0.00  0.00    +0.000 A 
ATOM     28  F   UNL     1      10.585  13.108  16.715  0.00  0.00    +0.000 F 
ATOM     29  C   UNL     1       9.773  11.232  17.888  0.00  0.00    +0.000 A 
ENDBRANCH  22  23
ENDBRANCH  19  21
ENDBRANCH  18  19
ENDBRANCH  17  18
ENDBRANCH   2  17
TORSDOF 7
ENDMDL
MODEL 7
REMARK VINA RESULT:      -9.0      1.071      1.655
REMARK  Name = 
REMARK  7 active torsions:
REMARK  status: ('A' for Active; 'I' for Inactive)
REMARK    1  A    between atoms: C_2  and  C_3
REMARK    2  A    between atoms: C_3  and  O_4
REMARK    3  A    between atoms: O_4  and  C_5
REMARK    4  A    between atoms: C_5  and  C_7
REMARK    5  A    between atoms: C_8  and  C_9
REMARK    6  A    between atoms: N_16  and  C_17
REMARK    7  A    between atoms: C_22  and  C_23
REMARK                            x       y       z     vdW  Elec       q    Type
REMARK                         _______ _______ _______ _____ _____    ______ ____
ROOT
ATOM      1  O   UNL     1       4.504   4.438  16.597  0.00  0.00    +0.000 OA
ATOM      2  C   UNL     1       5.034   5.377  17.187  0.00  0.00    +0.000 C 
ATOM      3  N   UNL     1       4.812   5.717  18.518  0.00  0.00    +0.000 N 
ATOM      4  H   UNL     1       5.555   6.223  18.984  0.00  0.00    +0.000 HD
ENDROOT
BRANCH   3   5
ATOM      5  C   UNL     1       3.920   4.985  19.337  0.00  0.00    +0.000 A 
ATOM      6  C   UNL     1       4.267   3.665  19.669  0.00  0.00    +0.000 A 
ATOM      7  C   UNL     1       3.402   2.861  20.406  0.00  0.00    +0.000 A 
ATOM      8  C   UNL     1       2.204   3.388  20.867  0.00  0.00    +0.000 A 
ATOM      9  C   UNL     1       1.861   4.708  20.559  0.00  0.00    +0.000 A 
ATOM     10  C   UNL     1       2.679   5.532  19.754  0.00  0.00    +0.000 A 
BRANCH  10  11
ATOM     11  C   UNL     1       2.204   6.898  19.393  0.00  0.00    +0.000 A 
ATOM     12  C   UNL     1       1.639   7.782  20.330  0.00  0.00    +0.000 A 
ATOM     13  C   UNL     1       1.337   9.108  20.000  0.00  0.00    +0.000 A 
ATOM     14  C   UNL     1       1.520   9.559  18.697  0.00  0.00    +0.000 A 
ATOM     15  C   UNL     1       1.986   8.682  17.725  0.00  0.00    +0.000 A 
ATOM     16  C   UNL     1       2.332   7.374  18.073  0.00  0.00    +0.000 A 
ENDBRANCH  10  11
ENDBRANCH   3   5
BRANCH   2  17
ATOM     17  C   UNL     1       6.152   6.192  16.528  0.00  0.00    +0.000 C 
BRANCH  17  18
ATOM     18  O   UNL     1       6.403   7.475  17.092  0.00  0.00    +0.000 OA
BRANCH  18  19
ATOM     19  C   UNL     1       7.519   7.519  17.855  0.00  0.00    +0.000 C 
ATOM     20  O   UNL     1       8.042   6.576  18.425  0.00  0.00    +0.000 OA
BRANCH  19  21
ATOM     21  C   UNL     1       8.032   8.895  17.849  0.00  0.00    +0.000 C 
ATOM     22  C   UNL     1       8.819   9.302  18.854  0.00  0.00    +0.000 C 
BRANCH  22  23
ATOM     23  C   UNL     1       9.433  10.631  18.910  0.00  0.00    +0.000 A 
ATOM     24  C   UNL     1       9.439  11.413  20.077  0.00  0.00    +0.000 A 
ATOM     25  C   UNL     1      10.015  12.687  20.079  0.00  0.00    +0.000 A 
ATOM     26  C   UNL     1      10.603  13.184  18.919  0.00  0.00    +0.000 A 
ATOM     27  C   UNL     1      10.623  12.399  17.774  0.00  0.00    +0.000 A 
ATOM     28  F   UNL     1      11.197  12.874  16.660  0.00  0.00    +0.000 F 
ATOM     29  C   UNL     1      10.053  11.131  17.761  0.00  0.00    +0.000 A 
ENDBRANCH  22  23
ENDBRANCH  19  21
ENDBRANCH  18  19
ENDBRANCH  17  18
ENDBRANCH   2  17
TORSDOF 7
ENDMDL
MODEL 8
REMARK VINA RESULT:      -9.0      1.504      1.895
REMARK  Name = 
REMARK  7 active torsions:
REMARK  status: ('A' for Active; 'I' for Inactive)
REMARK    1  A    between atoms: C_2  and  C_3
REMARK    2  A    between atoms: C_3  and  O_4
REMARK    3  A    between atoms: O_4  and  C_5
REMARK    4  A    between atoms: C_5  and  C_7
REMARK    5  A    between atoms: C_8  and  C_9
REMARK    6  A    between atoms: N_16  and  C_17
REMARK    7  A    between atoms: C_22  and  C_23
REMARK                            x       y       z     vdW  Elec       q    Type
REMARK                         _______ _______ _______ _____ _____    ______ ____
ROOT
ATOM      1  O   UNL     1       6.028   4.007  19.400  0.00  0.00    +0.000 OA
ATOM      2  C   UNL     1       5.747   4.348  18.253  0.00  0.00    +0.000 C 
ATOM      3  N   UNL     1       4.485   4.254  17.673  0.00  0.00    +0.000 N 
ATOM      4  H   UNL     1       4.289   4.896  16.915  0.00  0.00    +0.000 HD
ENDROOT
BRANCH   3   5
ATOM      5  C   UNL     1       3.375   3.734  18.381  0.00  0.00    +0.000 A 
ATOM      6  C   UNL     1       3.241   2.337  18.455  0.00  0.00    +0.000 A 
ATOM      7  C   UNL     1       2.135   1.756  19.068  0.00  0.00    +0.000 A 
ATOM      8  C   UNL     1       1.178   2.567  19.663  0.00  0.00    +0.000 A 
ATOM      9  C   UNL     1       1.315   3.958  19.612  0.00  0.00    +0.000 A 
ATOM     10  C   UNL     1       2.387   4.585  18.938  0.00  0.00    +0.000 A 
BRANCH  10  11
ATOM     11  C   UNL     1       2.418   6.073  18.848  0.00  0.00    +0.000 A 
ATOM     12  C   UNL     1       2.923   6.760  17.729  0.00  0.00    +0.000 A 
ATOM     13  C   UNL     1       2.807   8.149  17.606  0.00  0.00    +0.000 A 
ATOM     14  C   UNL     1       2.250   8.894  18.639  0.00  0.00    +0.000 A 
ATOM     15  C   UNL     1       1.828   8.255  19.799  0.00  0.00    +0.000 A 
ATOM     16  C   UNL     1       1.903   6.863  19.895  0.00  0.00    +0.000 A 
ENDBRANCH  10  11
ENDBRANCH   3   5
BRANCH   2  17
ATOM     17  C   UNL     1       6.766   5.085  17.378  0.00  0.00    +0.000 C 
BRANCH  17  18
ATOM     18  O   UNL     1       7.527   6.099  18.028  0.00  0.00    +0.000 OA
BRANCH  18  19
ATOM     19  C   UNL     1       7.314   7.337  17.526  0.00  0.00    +0.000 C 
ATOM     20  O   UNL     1       6.531   7.630  16.639  0.00  0.00    +0.000 OA
BRANCH  19  21
ATOM     21  C   UNL     1       8.156   8.288  18.262  0.00  0.00    +0.000 C 
ATOM     22  C   UNL     1       8.272   9.543  17.808  0.00  0.00    +0.000 C 
BRANCH  22  23
ATOM     23  C   UNL     1       9.034  10.584  18.502  0.00  0.00    +0.000 A 
ATOM     24  C   UNL     1       9.602  10.387  19.772  0.00  0.00    +0.000 A 
ATOM     25  C   UNL     1      10.301  11.417  20.409  0.00  0.00    +0.000 A 
ATOM     26  C   UNL     1      10.451  12.648  19.775  0.00  0.00    +0.000 A 
ATOM     27  C   UNL     1       9.916  12.833  18.507  0.00  0.00    +0.000 A 
ATOM     28  F   UNL     1      10.069  14.014  17.894  0.00  0.00    +0.000 F 
ATOM     29  C   UNL     1       9.218  11.816  17.865  0.00  0.00    +0.000 A 
ENDBRANCH  22  23
ENDBRANCH  19  21
ENDBRANCH  18  19
ENDBRANCH  17  18
ENDBRANCH   2  17
TORSDOF 7
ENDMDL
MODEL 9
REMARK VINA RESULT:      -9.0      4.513      8.399
REMARK  Name = 
REMARK  7 active torsions:
REMARK  status: ('A' for Active; 'I' for Inactive)
REMARK    1  A    between atoms: C_2  and  C_3
REMARK    2  A    between atoms: C_3  and  O_4
REMARK    3  A    between atoms: O_4  and  C_5
REMARK    4  A    between atoms: C_5  and  C_7
REMARK    5  A    between atoms: C_8  and  C_9
REMARK    6  A    between atoms: N_16  and  C_17
REMARK    7  A    between atoms: C_22  and  C_23
REMARK                            x       y       z     vdW  Elec       q    Type
REMARK                         _______ _______ _______ _____ _____    ______ ____
ROOT
ATOM      1  O   UNL     1       2.606   6.440  20.343  0.00  0.00    +0.000 OA
ATOM      2  C   UNL     1       2.419   6.939  19.235  0.00  0.00    +0.000 C 
ATOM      3  N   UNL     1       2.421   6.244  18.030  0.00  0.00    +0.000 N 
ATOM      4  H   UNL     1       1.890   6.655  17.271  0.00  0.00    +0.000 HD
ENDROOT
BRANCH   3   5
ATOM      5  C   UNL     1       2.650   4.848  17.973  0.00  0.00    +0.000 A 
ATOM      6  C   UNL     1       1.531   3.999  17.996  0.00  0.00    +0.000 A 
ATOM      7  C   UNL     1       1.684   2.615  18.021  0.00  0.00    +0.000 A 
ATOM      8  C   UNL     1       2.957   2.066  17.966  0.00  0.00    +0.000 A 
ATOM      9  C   UNL     1       4.075   2.905  17.921  0.00  0.00    +0.000 A 
ATOM     10  C   UNL     1       3.963   4.313  17.967  0.00  0.00    +0.000 A 
BRANCH  10  11
ATOM     11  C   UNL     1       5.203   5.139  18.007  0.00  0.00    +0.000 A 
ATOM     12  C   UNL     1       6.034   5.215  19.140  0.00  0.00    +0.000 A 
ATOM     13  C   UNL     1       7.266   5.878  19.105  0.00  0.00    +0.000 A 
ATOM     14  C   UNL     1       7.661   6.550  17.953  0.00  0.00    +0.000 A 
ATOM     15  C   UNL     1       6.819   6.575  16.848  0.00  0.00    +0.000 A 
ATOM     16  C   UNL     1       5.612   5.870  16.873  0.00  0.00    +0.000 A 
ENDBRANCH  10  11
ENDBRANCH   3   5
BRANCH   2  17
ATOM     17  C   UNL     1       1.993   8.404  19.093  0.00  0.00    +0.000 C 
BRANCH  17  18
ATOM     18  O   UNL     1       1.104   8.894  20.092  0.00  0.00    +0.000 OA
BRANCH  18  19
ATOM     19  C   UNL     1       0.812  10.207  19.955  0.00  0.00    +0.000 C 
ATOM     20  O   UNL     1       1.218  11.115  20.662  0.00  0.00    +0.000 OA
BRANCH  19  21
ATOM     21  C   UNL     1      -0.049  10.372  18.778  0.00  0.00    +0.000 C 
ATOM     22  C   UNL     1      -1.379  10.321  18.930  0.00  0.00    +0.000 C 
BRANCH  22  23
ATOM     23  C   UNL     1      -2.325  10.536  17.832  0.00  0.00    +0.000 A 
ATOM     24  C   UNL     1      -3.533  11.233  18.001  0.00  0.00    +0.000 A 
ATOM     25  C   UNL     1      -4.420  11.394  16.931  0.00  0.00    +0.000 A 
ATOM     26  C   UNL     1      -4.098  10.873  15.680  0.00  0.00    +0.000 A 
ATOM     27  C   UNL     1      -2.890  10.211  15.506  0.00  0.00    +0.000 A 
ATOM     28  F   UNL     1      -2.577   9.718  14.301  0.00  0.00    +0.000 F 
ATOM     29  C   UNL     1      -2.002  10.044  16.563  0.00  0.00    +0.000 A 
ENDBRANCH  22  23
ENDBRANCH  19  21
ENDBRANCH  18  19
ENDBRANCH  17  18
ENDBRANCH   2  17
TORSDOF 7
ENDMDL
