MODEL 1
REMARK VINA RESULT:      -8.5      0.000      0.000
REMARK  Name = 
REMARK  2 active torsions:
REMARK  status: ('A' for Active; 'I' for Inactive)
REMARK    1  A    between atoms: N_3  and  N_4
REMARK    2  A    between atoms: C_5  and  C_6
REMARK                            x       y       z     vdW  Elec       q    Type
REMARK                         _______ _______ _______ _____ _____    ______ ____
ROOT
ATOM      1  O   UNL     1       1.960   9.251  22.688  0.00  0.00    +0.000 OA
ATOM      2  C   UNL     1       1.187   9.448  21.753  0.00  0.00    +0.000 C 
ATOM      3  N   UNL     1       1.087   8.659  20.633  0.00  0.00    +0.000 N 
ATOM      4  N   UNL     1       0.334  10.507  21.833  0.00  0.00    +0.000 N 
ATOM      5  C   UNL     1      -0.604  10.871  20.914  0.00  0.00    +0.000 A 
ATOM      6  N   UNL     1      -0.808  10.408  19.703  0.00  0.00    +0.000 NA
ATOM      7  C   UNL     1      -1.958  11.016  19.169  0.00  0.00    +0.000 A 
ATOM      8  C   UNL     1      -2.588  11.910  20.042  0.00  0.00    +0.000 A 
ATOM      9  C   UNL     1      -3.796  12.550  19.731  0.00  0.00    +0.000 A 
ATOM     10  C   UNL     1      -4.387  12.288  18.498  0.00  0.00    +0.000 A 
ATOM     11  C   UNL     1      -3.782  11.445  17.568  0.00  0.00    +0.000 A 
ATOM     12  C   UNL     1      -4.392  11.223  16.326  0.00  0.00    +0.000 A 
ATOM     13  C   UNL     1      -3.793  10.394  15.378  0.00  0.00    +0.000 A 
ATOM     14  C   UNL     1      -2.579   9.776  15.662  0.00  0.00    +0.000 A 
ATOM     15  C   UNL     1      -1.959   9.973  16.902  0.00  0.00    +0.000 A 
ATOM     16  C   UNL     1      -2.551  10.803  17.878  0.00  0.00    +0.000 A 
ATOM     17  S   UNL     1      -1.662  12.069  21.482  0.00  0.00    +0.000 S 
ATOM     18  H   UNL     1       0.438   8.937  19.901  0.00  0.00    +0.000 HD
ATOM     19  H   UNL     1       0.373  11.017  22.704  0.00  0.00    +0.000 HD
ENDROOT
BRANCH   3  20
ATOM     20  N   UNL     1       1.931   7.605  20.448  0.00  0.00    +0.000 NA
ATOM     21  C   UNL     1       1.411   6.443  20.670  0.00  0.00    +0.000 C 
BRANCH  21  22
ATOM     22  C   UNL     1       2.174   5.199  20.444  0.00  0.00    +0.000 A 
ATOM     23  C   UNL     1       1.880   4.038  21.171  0.00  0.00    +0.000 A 
ATOM     24  C   UNL     1       2.656   2.893  20.988  0.00  0.00    +0.000 A 
ATOM     25  C   UNL     1       3.713   2.917  20.084  0.00  0.00    +0.000 A 
ATOM     26  F   UNL     1       4.471   1.825  19.924  0.00  0.00    +0.000 F 
ATOM     27  C   UNL     1       4.001   4.063  19.347  0.00  0.00    +0.000 A 
ATOM     28  C   UNL     1       3.226   5.211  19.523  0.00  0.00    +0.000 A 
ENDBRANCH  21  22
ENDBRANCH   3  20
TORSDOF 2
ENDMDL
MODEL 2
REMARK VINA RESULT:      -8.1      1.272      1.606
REMARK  Name = 
REMARK  2 active torsions:
REMARK  status: ('A' for Active; 'I' for Inactive)
REMARK    1  A    between atoms: N_3  and  N_4
REMARK    2  A    between atoms: C_5  and  C_6
REMARK                            x       y       z     vdW  Elec       q    Type
REMARK                         _______ _______ _______ _____ _____    ______ ____
ROOT
ATOM      1  O   UNL     1       1.880   9.440  22.664  0.00  0.00    +0.000 OA
ATOM      2  C   UNL     1       1.097   9.635  21.736  0.00  0.00    +0.000 C 
ATOM      3  N   UNL     1       1.033   8.884  20.587  0.00  0.00    +0.000 N 
ATOM      4  N   UNL     1       0.195  10.648  21.855  0.00  0.00    +0.000 N 
ATOM      5  C   UNL     1      -0.761  11.001  20.950  0.00  0.00    +0.000 A 
ATOM      6  N   UNL     1      -0.944  10.575  19.722  0.00  0.00    +0.000 NA
ATOM      7  C   UNL     1      -2.123  11.147  19.211  0.00  0.00    +0.000 A 
ATOM      8  C   UNL     1      -2.794  11.976  20.116  0.00  0.00    +0.000 A 
ATOM      9  C   UNL     1      -4.031  12.568  19.829  0.00  0.00    +0.000 A 
ATOM     10  C   UNL     1      -4.610  12.325  18.587  0.00  0.00    +0.000 A 
ATOM     11  C   UNL     1      -3.967  11.548  17.626  0.00  0.00    +0.000 A 
ATOM     12  C   UNL     1      -4.567  11.343  16.377  0.00  0.00    +0.000 A 
ATOM     13  C   UNL     1      -3.931  10.580  15.398  0.00  0.00    +0.000 A 
ATOM     14  C   UNL     1      -2.689  10.010  15.660  0.00  0.00    +0.000 A 
ATOM     15  C   UNL     1      -2.077  10.190  16.907  0.00  0.00    +0.000 A 
ATOM     16  C   UNL     1      -2.706  10.953  17.912  0.00  0.00    +0.000 A 
ATOM     17  S   UNL     1      -1.874  12.125  21.562  0.00  0.00    +0.000 S 
ATOM     18  H   UNL     1       0.371   9.159  19.865  0.00  0.00    +0.000 HD
ATOM     19  H   UNL     1       0.210  11.126  22.745  0.00  0.00    +0.000 HD
ENDROOT
BRANCH   3  20
ATOM     20  N   UNL     1       1.926   7.880  20.364  0.00  0.00    +0.000 NA
ATOM     21  C   UNL     1       2.184   7.644  19.119  0.00  0.00    +0.000 C 
BRANCH  21  22
ATOM     22  C   UNL     1       3.185   6.637  18.715  0.00  0.00    +0.000 A 
ATOM     23  C   UNL     1       3.422   5.506  19.507  0.00  0.00    +0.000 A 
ATOM     24  C   UNL     1       4.419   4.600  19.140  0.00  0.00    +0.000 A 
ATOM     25  C   UNL     1       5.165   4.831  17.989  0.00  0.00    +0.000 A 
ATOM     26  F   UNL     1       6.135   3.974  17.648  0.00  0.00    +0.000 F 
ATOM     27  C   UNL     1       4.925   5.945  17.189  0.00  0.00    +0.000 A 
ATOM     28  C   UNL     1       3.927   6.853  17.549  0.00  0.00    +0.000 A 
ENDBRANCH  21  22
ENDBRANCH   3  20
TORSDOF 2
ENDMDL
MODEL 3
REMARK VINA RESULT:      -8.1      4.407      8.769
REMARK  Name = 
REMARK  2 active torsions:
REMARK  status: ('A' for Active; 'I' for Inactive)
REMARK    1  A    between atoms: N_3  and  N_4
REMARK    2  A    between atoms: C_5  and  C_6
REMARK                            x       y       z     vdW  Elec       q    Type
REMARK                         _______ _______ _______ _____ _____    ______ ____
ROOT
ATOM      1  O   UNL     1       2.173  11.072  17.830  0.00  0.00    +0.000 OA
ATOM      2  C   UNL     1       2.116   9.875  18.103  0.00  0.00    +0.000 C 
ATOM      3  N   UNL     1       1.099   9.274  18.805  0.00  0.00    +0.000 N 
ATOM      4  N   UNL     1       3.113   9.062  17.654  0.00  0.00    +0.000 N 
ATOM      5  C   UNL     1       3.212   7.715  17.834  0.00  0.00    +0.000 A 
ATOM      6  N   UNL     1       2.486   6.919  18.585  0.00  0.00    +0.000 NA
ATOM      7  C   UNL     1       2.893   5.591  18.368  0.00  0.00    +0.000 A 
ATOM      8  C   UNL     1       3.913   5.453  17.421  0.00  0.00    +0.000 A 
ATOM      9  C   UNL     1       4.394   4.207  16.999  0.00  0.00    +0.000 A 
ATOM     10  C   UNL     1       3.837   3.058  17.556  0.00  0.00    +0.000 A 
ATOM     11  C   UNL     1       2.853   3.132  18.539  0.00  0.00    +0.000 A 
ATOM     12  C   UNL     1       2.331   1.957  19.094  0.00  0.00    +0.000 A 
ATOM     13  C   UNL     1       1.356   2.013  20.089  0.00  0.00    +0.000 A 
ATOM     14  C   UNL     1       0.889   3.245  20.537  0.00  0.00    +0.000 A 
ATOM     15  C   UNL     1       1.387   4.432  19.986  0.00  0.00    +0.000 A 
ATOM     16  C   UNL     1       2.369   4.397  18.974  0.00  0.00    +0.000 A 
ATOM     17  S   UNL     1       4.436   7.007  16.898  0.00  0.00    +0.000 S 
ATOM     18  H   UNL     1       1.173   8.280  19.008  0.00  0.00    +0.000 HD
ATOM     19  H   UNL     1       3.800   9.518  17.070  0.00  0.00    +0.000 HD
ENDROOT
BRANCH   3  20
ATOM     20  N   UNL     1       0.085  10.016  19.330  0.00  0.00    +0.000 NA
ATOM     21  C   UNL     1       0.145  10.198  20.608  0.00  0.00    +0.000 C 
BRANCH  21  22
ATOM     22  C   UNL     1      -0.839  11.041  21.316  0.00  0.00    +0.000 A 
ATOM     23  C   UNL     1      -1.022  10.918  22.699  0.00  0.00    +0.000 A 
ATOM     24  C   UNL     1      -2.003  11.677  23.338  0.00  0.00    +0.000 A 
ATOM     25  C   UNL     1      -2.788  12.550  22.592  0.00  0.00    +0.000 A 
ATOM     26  F   UNL     1      -3.744  13.264  23.201  0.00  0.00    +0.000 F 
ATOM     27  C   UNL     1      -2.602  12.689  21.219  0.00  0.00    +0.000 A 
ATOM     28  C   UNL     1      -1.620  11.934  20.575  0.00  0.00    +0.000 A 
ENDBRANCH  21  22
ENDBRANCH   3  20
TORSDOF 2
ENDMDL
MODEL 4
REMARK VINA RESULT:      -8.0      4.045      9.006
REMARK  Name = 
REMARK  2 active torsions:
REMARK  status: ('A' for Active; 'I' for Inactive)
REMARK    1  A    between atoms: N_3  and  N_4
REMARK    2  A    between atoms: C_5  and  C_6
REMARK                            x       y       z     vdW  Elec       q    Type
REMARK                         _______ _______ _______ _____ _____    ______ ____
ROOT
ATOM      1  O   UNL     1       2.246  11.028  17.619  0.00  0.00    +0.000 OA
ATOM      2  C   UNL     1       2.166   9.830  17.883  0.00  0.00    +0.000 C 
ATOM      3  N   UNL     1       1.074   9.220  18.452  0.00  0.00    +0.000 N 
ATOM      4  N   UNL     1       3.219   9.027  17.565  0.00  0.00    +0.000 N 
ATOM      5  C   UNL     1       3.307   7.681  17.758  0.00  0.00    +0.000 A 
ATOM      6  N   UNL     1       2.500   6.878  18.412  0.00  0.00    +0.000 NA
ATOM      7  C   UNL     1       2.943   5.554  18.249  0.00  0.00    +0.000 A 
ATOM      8  C   UNL     1       4.076   5.426  17.438  0.00  0.00    +0.000 A 
ATOM      9  C   UNL     1       4.619   4.184  17.082  0.00  0.00    +0.000 A 
ATOM     10  C   UNL     1       4.006   3.030  17.565  0.00  0.00    +0.000 A 
ATOM     11  C   UNL     1       2.905   3.095  18.415  0.00  0.00    +0.000 A 
ATOM     12  C   UNL     1       2.328   1.915  18.902  0.00  0.00    +0.000 A 
ATOM     13  C   UNL     1       1.234   1.961  19.766  0.00  0.00    +0.000 A 
ATOM     14  C   UNL     1       0.703   3.189  20.150  0.00  0.00    +0.000 A 
ATOM     15  C   UNL     1       1.256   4.381  19.665  0.00  0.00    +0.000 A 
ATOM     16  C   UNL     1       2.358   4.355  18.785  0.00  0.00    +0.000 A 
ATOM     17  S   UNL     1       4.646   6.984  16.985  0.00  0.00    +0.000 S 
ATOM     18  H   UNL     1       1.131   8.226  18.664  0.00  0.00    +0.000 HD
ATOM     19  H   UNL     1       3.970   9.489  17.072  0.00  0.00    +0.000 HD
ENDROOT
BRANCH   3  20
ATOM     20  N   UNL     1      -0.006   9.952  18.844  0.00  0.00    +0.000 NA
ATOM     21  C   UNL     1      -0.956  10.036  17.972  0.00  0.00    +0.000 C 
BRANCH  21  22
ATOM     22  C   UNL     1      -2.222  10.733  18.273  0.00  0.00    +0.000 A 
ATOM     23  C   UNL     1      -2.260  11.773  19.209  0.00  0.00    +0.000 A 
ATOM     24  C   UNL     1      -3.479  12.374  19.528  0.00  0.00    +0.000 A 
ATOM     25  C   UNL     1      -4.644  11.932  18.908  0.00  0.00    +0.000 A 
ATOM     26  F   UNL     1      -5.816  12.494  19.228  0.00  0.00    +0.000 F 
ATOM     27  C   UNL     1      -4.611  10.908  17.965  0.00  0.00    +0.000 A 
ATOM     28  C   UNL     1      -3.394  10.306  17.640  0.00  0.00    +0.000 A 
ENDBRANCH  21  22
ENDBRANCH   3  20
TORSDOF 2
ENDMDL
MODEL 5
REMARK VINA RESULT:      -7.7      3.741      4.669
REMARK  Name = 
REMARK  2 active torsions:
REMARK  status: ('A' for Active; 'I' for Inactive)
REMARK    1  A    between atoms: N_3  and  N_4
REMARK    2  A    between atoms: C_5  and  C_6
REMARK                            x       y       z     vdW  Elec       q    Type
REMARK                         _______ _______ _______ _____ _____    ______ ____
ROOT
ATOM      1  O   UNL     1      -0.412   8.320  21.489  0.00  0.00    +0.000 OA
ATOM      2  C   UNL     1       0.071   9.344  21.012  0.00  0.00    +0.000 C 
ATOM      3  N   UNL     1       1.147   9.385  20.158  0.00  0.00    +0.000 N 
ATOM      4  N   UNL     1      -0.513  10.536  21.317  0.00  0.00    +0.000 N 
ATOM      5  C   UNL     1      -0.139  11.768  20.869  0.00  0.00    +0.000 A 
ATOM      6  N   UNL     1       0.927  12.118  20.187  0.00  0.00    +0.000 NA
ATOM      7  C   UNL     1       0.831  13.482  19.860  0.00  0.00    +0.000 A 
ATOM      8  C   UNL     1      -0.345  14.095  20.304  0.00  0.00    +0.000 A 
ATOM      9  C   UNL     1      -0.669  15.425  20.003  0.00  0.00    +0.000 A 
ATOM     10  C   UNL     1       0.225  16.167  19.235  0.00  0.00    +0.000 A 
ATOM     11  C   UNL     1       1.434  15.627  18.805  0.00  0.00    +0.000 A 
ATOM     12  C   UNL     1       2.321  16.409  18.054  0.00  0.00    +0.000 A 
ATOM     13  C   UNL     1       3.543  15.889  17.627  0.00  0.00    +0.000 A 
ATOM     14  C   UNL     1       3.889  14.579  17.944  0.00  0.00    +0.000 A 
ATOM     15  C   UNL     1       3.012  13.774  18.682  0.00  0.00    +0.000 A 
ATOM     16  C   UNL     1       1.769  14.280  19.118  0.00  0.00    +0.000 A 
ATOM     17  S   UNL     1      -1.267  12.980  21.234  0.00  0.00    +0.000 S 
ATOM     18  H   UNL     1       1.488  10.294  19.853  0.00  0.00    +0.000 HD
ATOM     19  H   UNL     1      -1.351  10.466  21.876  0.00  0.00    +0.000 HD
ENDROOT
BRANCH   3  20
ATOM     20  N   UNL     1       1.820   8.246  19.834  0.00  0.00    +0.000 NA
ATOM     21  C   UNL     1       2.085   8.105  18.577  0.00  0.00    +0.000 C 
BRANCH  21  22
ATOM     22  C   UNL     1       2.872   6.961  18.077  0.00  0.00    +0.000 A 
ATOM     23  C   UNL     1       4.083   7.167  17.403  0.00  0.00    +0.000 A 
ATOM     24  C   UNL     1       4.778   6.075  16.880  0.00  0.00    +0.000 A 
ATOM     25  C   UNL     1       4.261   4.794  17.037  0.00  0.00    +0.000 A 
ATOM     26  F   UNL     1       4.917   3.748  16.518  0.00  0.00    +0.000 F 
ATOM     27  C   UNL     1       3.066   4.580  17.719  0.00  0.00    +0.000 A 
ATOM     28  C   UNL     1       2.367   5.668  18.247  0.00  0.00    +0.000 A 
ENDBRANCH  21  22
ENDBRANCH   3  20
TORSDOF 2
ENDMDL
MODEL 6
REMARK VINA RESULT:      -7.6      4.659      8.949
REMARK  Name = 
REMARK  2 active torsions:
REMARK  status: ('A' for Active; 'I' for Inactive)
REMARK    1  A    between atoms: N_3  and  N_4
REMARK    2  A    between atoms: C_5  and  C_6
REMARK                            x       y       z     vdW  Elec       q    Type
REMARK                         _______ _______ _______ _____ _____    ______ ____
ROOT
ATOM      1  O   UNL     1       1.104  11.276  18.454  0.00  0.00    +0.000 OA
ATOM      2  C   UNL     1       1.329  10.113  18.781  0.00  0.00    +0.000 C 
ATOM      3  N   UNL     1       0.686   9.440  19.792  0.00  0.00    +0.000 N 
ATOM      4  N   UNL     1       2.260   9.413  18.076  0.00  0.00    +0.000 N 
ATOM      5  C   UNL     1       2.628   8.115  18.272  0.00  0.00    +0.000 A 
ATOM      6  N   UNL     1       2.306   7.296  19.246  0.00  0.00    +0.000 NA
ATOM      7  C   UNL     1       2.838   6.025  18.968  0.00  0.00    +0.000 A 
ATOM      8  C   UNL     1       3.529   5.948  17.754  0.00  0.00    +0.000 A 
ATOM      9  C   UNL     1       4.057   4.749  17.256  0.00  0.00    +0.000 A 
ATOM     10  C   UNL     1       3.890   3.589  18.007  0.00  0.00    +0.000 A 
ATOM     11  C   UNL     1       3.254   3.611  19.246  0.00  0.00    +0.000 A 
ATOM     12  C   UNL     1       3.125   2.429  19.986  0.00  0.00    +0.000 A 
ATOM     13  C   UNL     1       2.504   2.436  21.235  0.00  0.00    +0.000 A 
ATOM     14  C   UNL     1       2.001   3.625  21.755  0.00  0.00    +0.000 A 
ATOM     15  C   UNL     1       2.107   4.816  21.025  0.00  0.00    +0.000 A 
ATOM     16  C   UNL     1       2.726   4.829  19.758  0.00  0.00    +0.000 A 
ATOM     17  S   UNL     1       3.607   7.506  17.029  0.00  0.00    +0.000 S 
ATOM     18  H   UNL     1       0.980   8.489  20.003  0.00  0.00    +0.000 HD
ATOM     19  H   UNL     1       2.653   9.906  17.287  0.00  0.00    +0.000 HD
ENDROOT
BRANCH   3  20
ATOM     20  N   UNL     1      -0.227  10.075  20.579  0.00  0.00    +0.000 NA
ATOM     21  C   UNL     1       0.246  11.043  21.293  0.00  0.00    +0.000 C 
BRANCH  21  22
ATOM     22  C   UNL     1      -0.630  11.876  22.141  0.00  0.00    +0.000 A 
ATOM     23  C   UNL     1      -1.712  11.309  22.826  0.00  0.00    +0.000 A 
ATOM     24  C   UNL     1      -2.565  12.126  23.569  0.00  0.00    +0.000 A 
ATOM     25  C   UNL     1      -2.329  13.496  23.623  0.00  0.00    +0.000 A 
ATOM     26  F   UNL     1      -3.159  14.283  24.319  0.00  0.00    +0.000 F 
ATOM     27  C   UNL     1      -1.246  14.064  22.957  0.00  0.00    +0.000 A 
ATOM     28  C   UNL     1      -0.387  13.252  22.214  0.00  0.00    +0.000 A 
ENDBRANCH  21  22
ENDBRANCH   3  20
TORSDOF 2
ENDMDL
MODEL 7
REMARK VINA RESULT:      -7.6      3.599      4.429
REMARK  Name = 
REMARK  2 active torsions:
REMARK  status: ('A' for Active; 'I' for Inactive)
REMARK    1  A    between atoms: N_3  and  N_4
REMARK    2  A    between atoms: C_5  and  C_6
REMARK                            x       y       z     vdW  Elec       q    Type
REMARK                         _______ _______ _______ _____ _____    ______ ____
ROOT
ATOM      1  O   UNL     1       2.096   5.612  20.677  0.00  0.00    +0.000 OA
ATOM      2  C   UNL     1       1.808   6.792  20.485  0.00  0.00    +0.000 C 
ATOM      3  N   UNL     1       1.919   7.445  19.281  0.00  0.00    +0.000 N 
ATOM      4  N   UNL     1       1.307   7.512  21.527  0.00  0.00    +0.000 N 
ATOM      5  C   UNL     1       0.911   8.815  21.504  0.00  0.00    +0.000 A 
ATOM      6  N   UNL     1       1.052   9.712  20.555  0.00  0.00    +0.000 NA
ATOM      7  C   UNL     1       0.391  10.892  20.941  0.00  0.00    +0.000 A 
ATOM      8  C   UNL     1      -0.250  10.808  22.182  0.00  0.00    +0.000 A 
ATOM      9  C   UNL     1      -1.035  11.845  22.702  0.00  0.00    +0.000 A 
ATOM     10  C   UNL     1      -1.175  13.010  21.952  0.00  0.00    +0.000 A 
ATOM     11  C   UNL     1      -0.522  13.171  20.732  0.00  0.00    +0.000 A 
ATOM     12  C   UNL     1      -0.666  14.367  20.016  0.00  0.00    +0.000 A 
ATOM     13  C   UNL     1      -0.008  14.550  18.800  0.00  0.00    +0.000 A 
ATOM     14  C   UNL     1       0.798  13.539  18.286  0.00  0.00    +0.000 A 
ATOM     15  C   UNL     1       0.945  12.331  18.979  0.00  0.00    +0.000 A 
ATOM     16  C   UNL     1       0.283  12.123  20.207  0.00  0.00    +0.000 A 
ATOM     17  S   UNL     1       0.085   9.285  22.908  0.00  0.00    +0.000 S 
ATOM     18  H   UNL     1       1.688   8.434  19.244  0.00  0.00    +0.000 HD
ATOM     19  H   UNL     1       1.158   6.982  22.374  0.00  0.00    +0.000 HD
ENDROOT
BRANCH   3  20
ATOM     20  N   UNL     1       2.452   6.815  18.197  0.00  0.00    +0.000 NA
ATOM     21  C   UNL     1       3.724   6.597  18.262  0.00  0.00    +0.000 C 
BRANCH  21  22
ATOM     22  C   UNL     1       4.437   5.860  17.199  0.00  0.00    +0.000 A 
ATOM     23  C   UNL     1       5.010   6.540  16.118  0.00  0.00    +0.000 A 
ATOM     24  C   UNL     1       5.621   5.819  15.091  0.00  0.00    +0.000 A 
ATOM     25  C   UNL     1       5.656   4.430  15.156  0.00  0.00    +0.000 A 
ATOM     26  F   UNL     1       6.225   3.736  14.161  0.00  0.00    +0.000 F 
ATOM     27  C   UNL     1       5.102   3.747  16.236  0.00  0.00    +0.000 A 
ATOM     28  C   UNL     1       4.492   4.463  17.267  0.00  0.00    +0.000 A 
ENDBRANCH  21  22
ENDBRANCH   3  20
TORSDOF 2
ENDMDL
MODEL 8
REMARK VINA RESULT:      -7.3      4.412      8.914
REMARK  Name = 
REMARK  2 active torsions:
REMARK  status: ('A' for Active; 'I' for Inactive)
REMARK    1  A    between atoms: N_3  and  N_4
REMARK    2  A    between atoms: C_5  and  C_6
REMARK                            x       y       z     vdW  Elec       q    Type
REMARK                         _______ _______ _______ _____ _____    ______ ____
ROOT
ATOM      1  O   UNL     1      -0.015   8.813  22.107  0.00  0.00    +0.000 OA
ATOM      2  C   UNL     1       0.743   8.327  21.270  0.00  0.00    +0.000 C 
ATOM      3  N   UNL     1       1.508   9.047  20.385  0.00  0.00    +0.000 N 
ATOM      4  N   UNL     1       0.868   6.971  21.225  0.00  0.00    +0.000 N 
ATOM      5  C   UNL     1       1.669   6.252  20.389  0.00  0.00    +0.000 A 
ATOM      6  N   UNL     1       2.373   6.657  19.357  0.00  0.00    +0.000 NA
ATOM      7  C   UNL     1       3.126   5.576  18.866  0.00  0.00    +0.000 A 
ATOM      8  C   UNL     1       2.963   4.390  19.591  0.00  0.00    +0.000 A 
ATOM      9  C   UNL     1       3.693   3.226  19.315  0.00  0.00    +0.000 A 
ATOM     10  C   UNL     1       4.613   3.252  18.270  0.00  0.00    +0.000 A 
ATOM     11  C   UNL     1       4.784   4.388  17.482  0.00  0.00    +0.000 A 
ATOM     12  C   UNL     1       5.701   4.371  16.423  0.00  0.00    +0.000 A 
ATOM     13  C   UNL     1       5.874   5.494  15.615  0.00  0.00    +0.000 A 
ATOM     14  C   UNL     1       5.135   6.647  15.859  0.00  0.00    +0.000 A 
ATOM     15  C   UNL     1       4.223   6.691  16.921  0.00  0.00    +0.000 A 
ATOM     16  C   UNL     1       4.037   5.568  17.754  0.00  0.00    +0.000 A 
ATOM     17  S   UNL     1       1.771   4.613  20.811  0.00  0.00    +0.000 S 
ATOM     18  H   UNL     1       2.072   8.539  19.708  0.00  0.00    +0.000 HD
ATOM     19  H   UNL     1       0.359   6.474  21.942  0.00  0.00    +0.000 HD
ENDROOT
BRANCH   3  20
ATOM     20  N   UNL     1       1.413  10.404  20.330  0.00  0.00    +0.000 NA
ATOM     21  C   UNL     1       1.285  10.895  19.141  0.00  0.00    +0.000 C 
BRANCH  21  22
ATOM     22  C   UNL     1       1.095  12.343  18.919  0.00  0.00    +0.000 A 
ATOM     23  C   UNL     1       2.198  13.193  18.768  0.00  0.00    +0.000 A 
ATOM     24  C   UNL     1       1.998  14.567  18.625  0.00  0.00    +0.000 A 
ATOM     25  C   UNL     1       0.704  15.076  18.633  0.00  0.00    +0.000 A 
ATOM     26  F   UNL     1       0.512  16.396  18.516  0.00  0.00    +0.000 F 
ATOM     27  C   UNL     1      -0.398  14.235  18.768  0.00  0.00    +0.000 A 
ATOM     28  C   UNL     1      -0.205  12.860  18.908  0.00  0.00    +0.000 A 
ENDBRANCH  21  22
ENDBRANCH   3  20
TORSDOF 2
ENDMDL
MODEL 9
REMARK VINA RESULT:      -7.2      8.744     11.224
REMARK  Name = 
REMARK  2 active torsions:
REMARK  status: ('A' for Active; 'I' for Inactive)
REMARK    1  A    between atoms: N_3  and  N_4
REMARK    2  A    between atoms: C_5  and  C_6
REMARK                            x       y       z     vdW  Elec       q    Type
REMARK                         _______ _______ _______ _____ _____    ______ ____
ROOT
ATOM      1  O   UNL     1       3.520  17.182  18.481  0.00  0.00    +0.000 OA
ATOM      2  C   UNL     1       4.531  16.486  18.407  0.00  0.00    +0.000 C 
ATOM      3  N   UNL     1       4.552  15.161  18.045  0.00  0.00    +0.000 N 
ATOM      4  N   UNL     1       5.734  17.068  18.672  0.00  0.00    +0.000 N 
ATOM      5  C   UNL     1       6.958  16.471  18.621  0.00  0.00    +0.000 A 
ATOM      6  N   UNL     1       7.261  15.203  18.465  0.00  0.00    +0.000 NA
ATOM      7  C   UNL     1       8.658  15.076  18.370  0.00  0.00    +0.000 A 
ATOM      8  C   UNL     1       9.348  16.292  18.436  0.00  0.00    +0.000 A 
ATOM      9  C   UNL     1      10.736  16.386  18.271  0.00  0.00    +0.000 A 
ATOM     10  C   UNL     1      11.458  15.218  18.040  0.00  0.00    +0.000 A 
ATOM     11  C   UNL     1      10.833  13.973  18.013  0.00  0.00    +0.000 A 
ATOM     12  C   UNL     1      11.593  12.815  17.802  0.00  0.00    +0.000 A 
ATOM     13  C   UNL     1      10.986  11.559  17.786  0.00  0.00    +0.000 A 
ATOM     14  C   UNL     1       9.612  11.449  17.976  0.00  0.00    +0.000 A 
ATOM     15  C   UNL     1       8.831  12.594  18.175  0.00  0.00    +0.000 A 
ATOM     16  C   UNL     1       9.425  13.874  18.189  0.00  0.00    +0.000 A 
ATOM     17  S   UNL     1       8.241  17.573  18.737  0.00  0.00    +0.000 S 
ATOM     18  H   UNL     1       5.443  14.671  18.056  0.00  0.00    +0.000 HD
ATOM     19  H   UNL     1       5.694  18.061  18.851  0.00  0.00    +0.000 HD
ENDROOT
BRANCH   3  20
ATOM     20  N   UNL     1       3.392  14.488  17.808  0.00  0.00    +0.000 NA
ATOM     21  C   UNL     1       2.943  13.802  18.807  0.00  0.00    +0.000 C 
BRANCH  21  22
ATOM     22  C   UNL     1       1.659  13.077  18.732  0.00  0.00    +0.000 A 
ATOM     23  C   UNL     1       0.447  13.775  18.673  0.00  0.00    +0.000 A 
ATOM     24  C   UNL     1      -0.758  13.070  18.669  0.00  0.00    +0.000 A 
ATOM     25  C   UNL     1      -0.739  11.680  18.723  0.00  0.00    +0.000 A 
ATOM     26  F   UNL     1      -1.895  11.004  18.740  0.00  0.00    +0.000 F 
ATOM     27  C   UNL     1       0.463  10.979  18.766  0.00  0.00    +0.000 A 
ATOM     28  C   UNL     1       1.671  11.678  18.767  0.00  0.00    +0.000 A 
ENDBRANCH  21  22
ENDBRANCH   3  20
TORSDOF 2
ENDMDL
