MODEL 1
REMARK VINA RESULT:      -7.6      0.000      0.000
REMARK  Name = 
REMARK  8 active torsions:
REMARK  status: ('A' for Active; 'I' for Inactive)
REMARK    1  A    between atoms: C_1  and  C_2
REMARK    2  A    between atoms: C_2  and  C_3
REMARK    3  A    between atoms: C_2  and  S_4
REMARK    4  A    between atoms: S_4  and  C_7
REMARK    5  A    between atoms: C_10  and  O_11
REMARK    6  A    between atoms: O_11  and  C_12
REMARK    7  A    between atoms: C_20  and  C_21
REMARK    8  A    between atoms: N_23  and  C_24
REMARK                            x       y       z     vdW  Elec       q    Type
REMARK                         _______ _______ _______ _____ _____    ______ ____
ROOT
ATOM      1  C   UNL     1       0.520  14.596  19.692  0.00  0.00    +0.000 A 
ATOM      2  C   UNL     1       1.579  13.808  20.116  0.00  0.00    +0.000 A 
ATOM      3  C   UNL     1       1.376  12.443  20.311  0.00  0.00    +0.000 A 
ATOM      4  C   UNL     1       0.102  11.850  20.177  0.00  0.00    +0.000 A 
ATOM      5  C   UNL     1      -0.963  12.645  19.703  0.00  0.00    +0.000 A 
ATOM      6  C   UNL     1      -0.732  14.020  19.457  0.00  0.00    +0.000 A 
ENDROOT
BRANCH   5   7
ATOM      7  C   UNL     1      -2.348  12.186  19.413  0.00  0.00    +0.000 A 
ATOM      8  C   UNL     1      -3.319  12.581  20.272  0.00  0.00    +0.000 A 
ATOM      9  N   UNL     1      -4.687  12.437  19.996  0.00  0.00    +0.000 N 
ATOM     10  C   UNL     1      -5.674  12.958  20.921  0.00  0.00    +0.000 C 
ATOM     11  C   UNL     1      -5.162  11.905  18.783  0.00  0.00    +0.000 A 
ATOM     12  O   UNL     1      -6.357  11.796  18.499  0.00  0.00    +0.000 OA
ATOM     13  C   UNL     1      -4.110  11.526  17.874  0.00  0.00    +0.000 A 
ATOM     14  N   UNL     1      -4.239  11.074  16.588  0.00  0.00    +0.000 N 
ATOM     15  C   UNL     1      -2.989  10.895  16.048  0.00  0.00    +0.000 A 
ATOM     16  C   UNL     1      -2.051  11.209  17.012  0.00  0.00    +0.000 A 
ATOM     17  C   UNL     1      -2.761  11.632  18.152  0.00  0.00    +0.000 A 
ATOM     18  H   UNL     1      -5.125  10.947  16.110  0.00  0.00    +0.000 HD
ENDBRANCH   5   7
BRANCH   1  19
ATOM     19  S   UNL     1       0.818  16.300  19.262  0.00  0.00    +0.000 S 
ATOM     20  O   UNL     1       1.904  16.305  18.303  0.00  0.00    +0.000 OA
ATOM     21  O   UNL     1       0.952  17.016  20.520  0.00  0.00    +0.000 OA
BRANCH  19  23
ATOM     22  C   UNL     1      -1.571  17.562  19.490  0.00  0.00    +0.000 C 
ATOM     23  C   UNL     1      -0.671  16.887  18.454  0.00  0.00    +0.000 C 
ATOM     24  C   UNL     1      -0.379  17.849  17.308  0.00  0.00    +0.000 C 
ENDBRANCH  19  23
ENDBRANCH   1  19
BRANCH   4  25
ATOM     25  O   UNL     1      -0.099  10.505  20.475  0.00  0.00    +0.000 OA
BRANCH  25  26
ATOM     26  C   UNL     1       0.673   9.562  19.806  0.00  0.00    +0.000 A 
ATOM     27  C   UNL     1       0.875   9.718  18.428  0.00  0.00    +0.000 A 
ATOM     28  C   UNL     1       1.733   8.843  17.742  0.00  0.00    +0.000 A 
ATOM     29  C   UNL     1       2.390   7.830  18.436  0.00  0.00    +0.000 A 
ATOM     30  F   UNL     1       3.257   7.037  17.793  0.00  0.00    +0.000 F 
ATOM     31  C   UNL     1       2.161   7.631  19.788  0.00  0.00    +0.000 A 
ATOM     32  C   UNL     1       1.273   8.469  20.453  0.00  0.00    +0.000 A 
ATOM     33  F   UNL     1       1.060   8.245  21.758  0.00  0.00    +0.000 F 
ENDBRANCH  25  26
ENDBRANCH   4  25
TORSDOF 5
ENDMDL
MODEL 2
REMARK VINA RESULT:      -7.5      2.800      5.529
REMARK  Name = 
REMARK  8 active torsions:
REMARK  status: ('A' for Active; 'I' for Inactive)
REMARK    1  A    between atoms: C_1  and  C_2
REMARK    2  A    between atoms: C_2  and  C_3
REMARK    3  A    between atoms: C_2  and  S_4
REMARK    4  A    between atoms: S_4  and  C_7
REMARK    5  A    between atoms: C_10  and  O_11
REMARK    6  A    between atoms: O_11  and  C_12
REMARK    7  A    between atoms: C_20  and  C_21
REMARK    8  A    between atoms: N_23  and  C_24
REMARK                            x       y       z     vdW  Elec       q    Type
REMARK                         _______ _______ _______ _____ _____    ______ ____
ROOT
ATOM      1  C   UNL     1      -3.357  11.377  18.201  0.00  0.00    +0.000 A 
ATOM      2  C   UNL     1      -2.746  10.404  17.424  0.00  0.00    +0.000 A 
ATOM      3  C   UNL     1      -1.387  10.146  17.600  0.00  0.00    +0.000 A 
ATOM      4  C   UNL     1      -0.591  10.908  18.481  0.00  0.00    +0.000 A 
ATOM      5  C   UNL     1      -1.222  11.867  19.301  0.00  0.00    +0.000 A 
ATOM      6  C   UNL     1      -2.614  12.083  19.152  0.00  0.00    +0.000 A 
ENDROOT
BRANCH   5   7
ATOM      7  C   UNL     1      -0.574  12.701  20.348  0.00  0.00    +0.000 A 
ATOM      8  C   UNL     1       0.335  13.615  19.930  0.00  0.00    +0.000 A 
ATOM      9  N   UNL     1       0.837  14.627  20.762  0.00  0.00    +0.000 N 
ATOM     10  C   UNL     1       1.743  15.625  20.227  0.00  0.00    +0.000 C 
ATOM     11  C   UNL     1       0.406  14.798  22.090  0.00  0.00    +0.000 A 
ATOM     12  O   UNL     1       0.805  15.697  22.835  0.00  0.00    +0.000 OA
ATOM     13  C   UNL     1      -0.585  13.836  22.498  0.00  0.00    +0.000 A 
ATOM     14  N   UNL     1      -1.271  13.792  23.683  0.00  0.00    +0.000 N 
ATOM     15  C   UNL     1      -2.175  12.758  23.640  0.00  0.00    +0.000 A 
ATOM     16  C   UNL     1      -2.042  12.116  22.424  0.00  0.00    +0.000 A 
ATOM     17  C   UNL     1      -1.059  12.814  21.696  0.00  0.00    +0.000 A 
ATOM     18  H   UNL     1      -1.153  14.457  24.439  0.00  0.00    +0.000 HD
ENDBRANCH   5   7
BRANCH   1  19
ATOM     19  S   UNL     1      -5.125  11.579  18.113  0.00  0.00    +0.000 S 
ATOM     20  O   UNL     1      -5.709  10.288  18.416  0.00  0.00    +0.000 OA
ATOM     21  O   UNL     1      -5.396  12.221  16.838  0.00  0.00    +0.000 OA
BRANCH  19  23
ATOM     22  C   UNL     1      -6.560  13.756  18.857  0.00  0.00    +0.000 C 
ATOM     23  C   UNL     1      -5.569  12.733  19.413  0.00  0.00    +0.000 C 
ATOM     24  C   UNL     1      -6.159  12.042  20.637  0.00  0.00    +0.000 C 
ENDBRANCH  19  23
ENDBRANCH   1  19
BRANCH   4  25
ATOM     25  O   UNL     1       0.783  10.702  18.566  0.00  0.00    +0.000 OA
BRANCH  25  26
ATOM     26  C   UNL     1       1.237   9.435  18.915  0.00  0.00    +0.000 A 
ATOM     27  C   UNL     1       1.894   8.668  17.942  0.00  0.00    +0.000 A 
ATOM     28  C   UNL     1       2.456   7.429  18.288  0.00  0.00    +0.000 A 
ATOM     29  C   UNL     1       2.369   6.970  19.601  0.00  0.00    +0.000 A 
ATOM     30  F   UNL     1       2.961   5.819  19.944  0.00  0.00    +0.000 F 
ATOM     31  C   UNL     1       1.680   7.692  20.561  0.00  0.00    +0.000 A 
ATOM     32  C   UNL     1       1.083   8.895  20.203  0.00  0.00    +0.000 A 
ATOM     33  F   UNL     1       0.410   9.567  21.149  0.00  0.00    +0.000 F 
ENDBRANCH  25  26
ENDBRANCH   4  25
TORSDOF 5
ENDMDL
MODEL 3
REMARK VINA RESULT:      -7.4      2.853      5.649
REMARK  Name = 
REMARK  8 active torsions:
REMARK  status: ('A' for Active; 'I' for Inactive)
REMARK    1  A    between atoms: C_1  and  C_2
REMARK    2  A    between atoms: C_2  and  C_3
REMARK    3  A    between atoms: C_2  and  S_4
REMARK    4  A    between atoms: S_4  and  C_7
REMARK    5  A    between atoms: C_10  and  O_11
REMARK    6  A    between atoms: O_11  and  C_12
REMARK    7  A    between atoms: C_20  and  C_21
REMARK    8  A    between atoms: N_23  and  C_24
REMARK                            x       y       z     vdW  Elec       q    Type
REMARK                         _______ _______ _______ _____ _____    ______ ____
ROOT
ATOM      1  C   UNL     1      -3.301  11.324  18.177  0.00  0.00    +0.000 A 
ATOM      2  C   UNL     1      -2.700  10.335  17.414  0.00  0.00    +0.000 A 
ATOM      3  C   UNL     1      -1.348  10.055  17.602  0.00  0.00    +0.000 A 
ATOM      4  C   UNL     1      -0.545  10.810  18.485  0.00  0.00    +0.000 A 
ATOM      5  C   UNL     1      -1.167  11.786  19.292  0.00  0.00    +0.000 A 
ATOM      6  C   UNL     1      -2.554  12.024  19.130  0.00  0.00    +0.000 A 
ENDROOT
BRANCH   5   7
ATOM      7  C   UNL     1      -0.514  12.616  20.339  0.00  0.00    +0.000 A 
ATOM      8  C   UNL     1       0.447  13.479  19.928  0.00  0.00    +0.000 A 
ATOM      9  N   UNL     1       0.969  14.488  20.750  0.00  0.00    +0.000 N 
ATOM     10  C   UNL     1       1.935  15.431  20.220  0.00  0.00    +0.000 C 
ATOM     11  C   UNL     1       0.507  14.711  22.060  0.00  0.00    +0.000 A 
ATOM     12  O   UNL     1       0.924  15.610  22.795  0.00  0.00    +0.000 OA
ATOM     13  C   UNL     1      -0.538  13.804  22.460  0.00  0.00    +0.000 A 
ATOM     14  N   UNL     1      -1.259  13.820  23.624  0.00  0.00    +0.000 N 
ATOM     15  C   UNL     1      -2.207  12.826  23.578  0.00  0.00    +0.000 A 
ATOM     16  C   UNL     1      -2.068  12.149  22.381  0.00  0.00    +0.000 A 
ATOM     17  C   UNL     1      -1.033  12.784  21.669  0.00  0.00    +0.000 A 
ATOM     18  H   UNL     1      -1.134  14.498  24.368  0.00  0.00    +0.000 HD
ENDBRANCH   5   7
BRANCH   1  19
ATOM     19  S   UNL     1      -5.065  11.556  18.074  0.00  0.00    +0.000 S 
ATOM     20  O   UNL     1      -5.673  10.280  18.394  0.00  0.00    +0.000 OA
ATOM     21  O   UNL     1      -5.314  12.181  16.786  0.00  0.00    +0.000 OA
BRANCH  19  23
ATOM     22  C   UNL     1      -6.461  13.774  18.768  0.00  0.00    +0.000 C 
ATOM     23  C   UNL     1      -5.497  12.739  19.350  0.00  0.00    +0.000 C 
ATOM     24  C   UNL     1      -6.114  12.081  20.579  0.00  0.00    +0.000 C 
ENDBRANCH  19  23
ENDBRANCH   1  19
BRANCH   4  25
ATOM     25  O   UNL     1       0.824  10.582  18.583  0.00  0.00    +0.000 OA
BRANCH  25  26
ATOM     26  C   UNL     1       1.252   9.390  19.159  0.00  0.00    +0.000 A 
ATOM     27  C   UNL     1       0.892   9.122  20.488  0.00  0.00    +0.000 A 
ATOM     28  C   UNL     1       1.218   7.885  21.065  0.00  0.00    +0.000 A 
ATOM     29  C   UNL     1       1.888   6.923  20.313  0.00  0.00    +0.000 A 
ATOM     30  F   UNL     1       2.141   5.720  20.844  0.00  0.00    +0.000 F 
ATOM     31  C   UNL     1       2.295   7.192  19.017  0.00  0.00    +0.000 A 
ATOM     32  C   UNL     1       2.013   8.436  18.465  0.00  0.00    +0.000 A 
ATOM     33  F   UNL     1       2.431   8.675  17.212  0.00  0.00    +0.000 F 
ENDBRANCH  25  26
ENDBRANCH   4  25
TORSDOF 5
ENDMDL
MODEL 4
REMARK VINA RESULT:      -7.3      1.025      1.233
REMARK  Name = 
REMARK  8 active torsions:
REMARK  status: ('A' for Active; 'I' for Inactive)
REMARK    1  A    between atoms: C_1  and  C_2
REMARK    2  A    between atoms: C_2  and  C_3
REMARK    3  A    between atoms: C_2  and  S_4
REMARK    4  A    between atoms: S_4  and  C_7
REMARK    5  A    between atoms: C_10  and  O_11
REMARK    6  A    between atoms: O_11  and  C_12
REMARK    7  A    between atoms: C_20  and  C_21
REMARK    8  A    between atoms: N_23  and  C_24
REMARK                            x       y       z     vdW  Elec       q    Type
REMARK                         _______ _______ _______ _____ _____    ______ ____
ROOT
ATOM      1  C   UNL     1       0.534  14.543  19.390  0.00  0.00    +0.000 A 
ATOM      2  C   UNL     1       1.594  13.772  19.839  0.00  0.00    +0.000 A 
ATOM      3  C   UNL     1       1.391  12.417  20.096  0.00  0.00    +0.000 A 
ATOM      4  C   UNL     1       0.114  11.822  20.000  0.00  0.00    +0.000 A 
ATOM      5  C   UNL     1      -0.953  12.598  19.500  0.00  0.00    +0.000 A 
ATOM      6  C   UNL     1      -0.722  13.960  19.192  0.00  0.00    +0.000 A 
ENDROOT
BRANCH   5   7
ATOM      7  C   UNL     1      -2.342  12.131  19.243  0.00  0.00    +0.000 A 
ATOM      8  C   UNL     1      -3.295  12.517  20.126  0.00  0.00    +0.000 A 
ATOM      9  N   UNL     1      -4.668  12.365  19.883  0.00  0.00    +0.000 N 
ATOM     10  C   UNL     1      -5.636  12.878  20.833  0.00  0.00    +0.000 C 
ATOM     11  C   UNL     1      -5.168  11.832  18.681  0.00  0.00    +0.000 A 
ATOM     12  O   UNL     1      -6.370  11.716  18.426  0.00  0.00    +0.000 OA
ATOM     13  C   UNL     1      -4.137  11.462  17.746  0.00  0.00    +0.000 A 
ATOM     14  N   UNL     1      -4.294  11.010  16.463  0.00  0.00    +0.000 N 
ATOM     15  C   UNL     1      -3.056  10.841  15.892  0.00  0.00    +0.000 A 
ATOM     16  C   UNL     1      -2.097  11.159  16.834  0.00  0.00    +0.000 A 
ATOM     17  C   UNL     1      -2.782  11.576  17.992  0.00  0.00    +0.000 A 
ATOM     18  H   UNL     1      -5.191  10.878  16.006  0.00  0.00    +0.000 HD
ENDBRANCH   5   7
BRANCH   1  19
ATOM     19  S   UNL     1       0.831  16.226  18.883  0.00  0.00    +0.000 S 
ATOM     20  O   UNL     1      -0.355  16.664  18.176  0.00  0.00    +0.000 OA
ATOM     21  O   UNL     1       2.121  16.223  18.213  0.00  0.00    +0.000 OA
BRANCH  19  23
ATOM     22  C   UNL     1      -0.012  16.681  21.419  0.00  0.00    +0.000 C 
ATOM     23  C   UNL     1       0.997  17.187  20.387  0.00  0.00    +0.000 C 
ATOM     24  C   UNL     1       2.407  17.138  20.965  0.00  0.00    +0.000 C 
ENDBRANCH  19  23
ENDBRANCH   1  19
BRANCH   4  25
ATOM     25  O   UNL     1      -0.087  10.492  20.358  0.00  0.00    +0.000 OA
BRANCH  25  26
ATOM     26  C   UNL     1       0.692   9.520  19.741  0.00  0.00    +0.000 A 
ATOM     27  C   UNL     1       0.906   9.612  18.359  0.00  0.00    +0.000 A 
ATOM     28  C   UNL     1       1.772   8.708  17.722  0.00  0.00    +0.000 A 
ATOM     29  C   UNL     1       2.424   7.729  18.469  0.00  0.00    +0.000 A 
ATOM     30  F   UNL     1       3.299   6.910  17.872  0.00  0.00    +0.000 F 
ATOM     31  C   UNL     1       2.183   7.594  19.826  0.00  0.00    +0.000 A 
ATOM     32  C   UNL     1       1.288   8.460  20.444  0.00  0.00    +0.000 A 
ATOM     33  F   UNL     1       1.064   8.297  21.756  0.00  0.00    +0.000 F 
ENDBRANCH  25  26
ENDBRANCH   4  25
TORSDOF 5
ENDMDL
MODEL 5
REMARK VINA RESULT:      -7.2      1.362      2.619
REMARK  Name = 
REMARK  8 active torsions:
REMARK  status: ('A' for Active; 'I' for Inactive)
REMARK    1  A    between atoms: C_1  and  C_2
REMARK    2  A    between atoms: C_2  and  C_3
REMARK    3  A    between atoms: C_2  and  S_4
REMARK    4  A    between atoms: S_4  and  C_7
REMARK    5  A    between atoms: C_10  and  O_11
REMARK    6  A    between atoms: O_11  and  C_12
REMARK    7  A    between atoms: C_20  and  C_21
REMARK    8  A    between atoms: N_23  and  C_24
REMARK                            x       y       z     vdW  Elec       q    Type
REMARK                         _______ _______ _______ _____ _____    ______ ____
ROOT
ATOM      1  C   UNL     1       1.320  14.554  19.632  0.00  0.00    +0.000 A 
ATOM      2  C   UNL     1       2.188  13.650  20.226  0.00  0.00    +0.000 A 
ATOM      3  C   UNL     1       1.785  12.326  20.392  0.00  0.00    +0.000 A 
ATOM      4  C   UNL     1       0.484  11.894  20.056  0.00  0.00    +0.000 A 
ATOM      5  C   UNL     1      -0.382  12.803  19.412  0.00  0.00    +0.000 A 
ATOM      6  C   UNL     1       0.058  14.132  19.200  0.00  0.00    +0.000 A 
ENDROOT
BRANCH   5   7
ATOM      7  C   UNL     1      -1.749  12.514  18.903  0.00  0.00    +0.000 A 
ATOM      8  C   UNL     1      -1.839  11.856  17.721  0.00  0.00    +0.000 A 
ATOM      9  N   UNL     1      -3.037  11.303  17.245  0.00  0.00    +0.000 N 
ATOM     10  C   UNL     1      -3.046  10.538  16.013  0.00  0.00    +0.000 C 
ATOM     11  C   UNL     1      -4.238  11.354  17.977  0.00  0.00    +0.000 A 
ATOM     12  O   UNL     1      -5.298  10.849  17.600  0.00  0.00    +0.000 OA
ATOM     13  C   UNL     1      -4.106  12.028  19.244  0.00  0.00    +0.000 A 
ATOM     14  N   UNL     1      -5.054  12.159  20.224  0.00  0.00    +0.000 N 
ATOM     15  C   UNL     1      -4.500  12.809  21.300  0.00  0.00    +0.000 A 
ATOM     16  C   UNL     1      -3.191  13.123  20.990  0.00  0.00    +0.000 A 
ATOM     17  C   UNL     1      -2.939  12.606  19.705  0.00  0.00    +0.000 A 
ATOM     18  H   UNL     1      -5.995  11.783  20.166  0.00  0.00    +0.000 HD
ENDBRANCH   5   7
BRANCH   1  19
ATOM     19  S   UNL     1       1.897  16.195  19.248  0.00  0.00    +0.000 S 
ATOM     20  O   UNL     1       2.624  16.664  20.411  0.00  0.00    +0.000 OA
ATOM     21  O   UNL     1       0.738  16.928  18.767  0.00  0.00    +0.000 OA
BRANCH  19  23
ATOM     22  C   UNL     1       2.793  17.147  16.873  0.00  0.00    +0.000 C 
ATOM     23  C   UNL     1       3.044  16.023  17.880  0.00  0.00    +0.000 C 
ATOM     24  C   UNL     1       4.500  16.036  18.328  0.00  0.00    +0.000 C 
ENDBRANCH  19  23
ENDBRANCH   1  19
BRANCH   4  25
ATOM     25  O   UNL     1       0.068  10.593  20.324  0.00  0.00    +0.000 OA
BRANCH  25  26
ATOM     26  C   UNL     1       0.788   9.544  19.762  0.00  0.00    +0.000 A 
ATOM     27  C   UNL     1       1.063   9.582  18.388  0.00  0.00    +0.000 A 
ATOM     28  C   UNL     1       1.875   8.593  17.809  0.00  0.00    +0.000 A 
ATOM     29  C   UNL     1       2.415   7.585  18.605  0.00  0.00    +0.000 A 
ATOM     30  F   UNL     1       3.242   6.682  18.063  0.00  0.00    +0.000 F 
ATOM     31  C   UNL     1       2.112   7.506  19.954  0.00  0.00    +0.000 A 
ATOM     32  C   UNL     1       1.268   8.458  20.514  0.00  0.00    +0.000 A 
ATOM     33  F   UNL     1       0.980   8.350  21.819  0.00  0.00    +0.000 F 
ENDBRANCH  25  26
ENDBRANCH   4  25
TORSDOF 5
ENDMDL
MODEL 6
REMARK VINA RESULT:      -7.2      3.479      6.027
REMARK  Name = 
REMARK  8 active torsions:
REMARK  status: ('A' for Active; 'I' for Inactive)
REMARK    1  A    between atoms: C_1  and  C_2
REMARK    2  A    between atoms: C_2  and  C_3
REMARK    3  A    between atoms: C_2  and  S_4
REMARK    4  A    between atoms: S_4  and  C_7
REMARK    5  A    between atoms: C_10  and  O_11
REMARK    6  A    between atoms: O_11  and  C_12
REMARK    7  A    between atoms: C_20  and  C_21
REMARK    8  A    between atoms: N_23  and  C_24
REMARK                            x       y       z     vdW  Elec       q    Type
REMARK                         _______ _______ _______ _____ _____    ______ ____
ROOT
ATOM      1  C   UNL     1       1.739  13.818  18.530  0.00  0.00    +0.000 A 
ATOM      2  C   UNL     1       0.484  14.407  18.521  0.00  0.00    +0.000 A 
ATOM      3  C   UNL     1      -0.643  13.613  18.728  0.00  0.00    +0.000 A 
ATOM      4  C   UNL     1      -0.555  12.210  18.855  0.00  0.00    +0.000 A 
ATOM      5  C   UNL     1       0.725  11.618  18.908  0.00  0.00    +0.000 A 
ATOM      6  C   UNL     1       1.866  12.443  18.751  0.00  0.00    +0.000 A 
ENDROOT
BRANCH   5   7
ATOM      7  C   UNL     1       1.026  10.178  19.127  0.00  0.00    +0.000 A 
ATOM      8  C   UNL     1       1.750   9.549  18.169  0.00  0.00    +0.000 A 
ATOM      9  N   UNL     1       2.314   8.278  18.350  0.00  0.00    +0.000 N 
ATOM     10  C   UNL     1       3.149   7.698  17.315  0.00  0.00    +0.000 C 
ATOM     11  C   UNL     1       2.207   7.568  19.560  0.00  0.00    +0.000 A 
ATOM     12  O   UNL     1       2.719   6.464  19.760  0.00  0.00    +0.000 OA
ATOM     13  C   UNL     1       1.463   8.274  20.573  0.00  0.00    +0.000 A 
ATOM     14  N   UNL     1       1.265   7.902  21.876  0.00  0.00    +0.000 N 
ATOM     15  C   UNL     1       0.561   8.890  22.521  0.00  0.00    +0.000 A 
ATOM     16  C   UNL     1       0.281   9.890  21.610  0.00  0.00    +0.000 A 
ATOM     17  C   UNL     1       0.874   9.510  20.390  0.00  0.00    +0.000 A 
ATOM     18  H   UNL     1       1.632   7.054  22.293  0.00  0.00    +0.000 HD
ENDBRANCH   5   7
BRANCH   1  19
ATOM     19  S   UNL     1       3.189  14.851  18.454  0.00  0.00    +0.000 S 
ATOM     20  O   UNL     1       2.839  16.001  17.645  0.00  0.00    +0.000 OA
ATOM     21  O   UNL     1       4.283  13.982  18.054  0.00  0.00    +0.000 OA
BRANCH  19  23
ATOM     22  C   UNL     1       2.617  16.602  20.443  0.00  0.00    +0.000 C 
ATOM     23  C   UNL     1       3.509  15.400  20.131  0.00  0.00    +0.000 C 
ATOM     24  C   UNL     1       3.287  14.300  21.163  0.00  0.00    +0.000 C 
ENDBRANCH  19  23
ENDBRANCH   1  19
BRANCH   4  25
ATOM     25  O   UNL     1      -1.700  11.425  18.959  0.00  0.00    +0.000 OA
BRANCH  25  26
ATOM     26  C   UNL     1      -2.404  11.133  17.796  0.00  0.00    +0.000 A 
ATOM     27  C   UNL     1      -1.793  10.323  16.829  0.00  0.00    +0.000 A 
ATOM     28  C   UNL     1      -2.514   9.924  15.692  0.00  0.00    +0.000 A 
ATOM     29  C   UNL     1      -3.838  10.326  15.535  0.00  0.00    +0.000 A 
ATOM     30  F   UNL     1      -4.545   9.892  14.483  0.00  0.00    +0.000 F 
ATOM     31  C   UNL     1      -4.439  11.168  16.455  0.00  0.00    +0.000 A 
ATOM     32  C   UNL     1      -3.706  11.601  17.554  0.00  0.00    +0.000 A 
ATOM     33  F   UNL     1      -4.309  12.426  18.423  0.00  0.00    +0.000 F 
ENDBRANCH  25  26
ENDBRANCH   4  25
TORSDOF 5
ENDMDL
MODEL 7
REMARK VINA RESULT:      -7.2      3.405      5.849
REMARK  Name = 
REMARK  8 active torsions:
REMARK  status: ('A' for Active; 'I' for Inactive)
REMARK    1  A    between atoms: C_1  and  C_2
REMARK    2  A    between atoms: C_2  and  C_3
REMARK    3  A    between atoms: C_2  and  S_4
REMARK    4  A    between atoms: S_4  and  C_7
REMARK    5  A    between atoms: C_10  and  O_11
REMARK    6  A    between atoms: O_11  and  C_12
REMARK    7  A    between atoms: C_20  and  C_21
REMARK    8  A    between atoms: N_23  and  C_24
REMARK                            x       y       z     vdW  Elec       q    Type
REMARK                         _______ _______ _______ _____ _____    ______ ____
ROOT
ATOM      1  C   UNL     1       1.392  13.971  18.780  0.00  0.00    +0.000 A 
ATOM      2  C   UNL     1       0.109  14.493  18.702  0.00  0.00    +0.000 A 
ATOM      3  C   UNL     1      -0.983  13.636  18.827  0.00  0.00    +0.000 A 
ATOM      4  C   UNL     1      -0.826  12.238  18.939  0.00  0.00    +0.000 A 
ATOM      5  C   UNL     1       0.478  11.714  19.062  0.00  0.00    +0.000 A 
ATOM      6  C   UNL     1       1.580  12.601  18.988  0.00  0.00    +0.000 A 
ENDROOT
BRANCH   5   7
ATOM      7  C   UNL     1       0.843  10.289  19.278  0.00  0.00    +0.000 A 
ATOM      8  C   UNL     1       1.531   9.673  18.285  0.00  0.00    +0.000 A 
ATOM      9  N   UNL     1       2.151   8.425  18.446  0.00  0.00    +0.000 N 
ATOM     10  C   UNL     1       2.943   7.862  17.369  0.00  0.00    +0.000 C 
ATOM     11  C   UNL     1       2.141   7.728  19.668  0.00  0.00    +0.000 A 
ATOM     12  O   UNL     1       2.704   6.645  19.849  0.00  0.00    +0.000 OA
ATOM     13  C   UNL     1       1.434   8.419  20.715  0.00  0.00    +0.000 A 
ATOM     14  N   UNL     1       1.327   8.058  22.032  0.00  0.00    +0.000 N 
ATOM     15  C   UNL     1       0.628   9.029  22.708  0.00  0.00    +0.000 A 
ATOM     16  C   UNL     1       0.258  10.006  21.804  0.00  0.00    +0.000 A 
ATOM     17  C   UNL     1       0.791   9.632  20.555  0.00  0.00    +0.000 A 
ATOM     18  H   UNL     1       1.749   7.228  22.435  0.00  0.00    +0.000 HD
ENDBRANCH   5   7
BRANCH   1  19
ATOM     19  S   UNL     1       2.785  15.082  18.810  0.00  0.00    +0.000 S 
ATOM     20  O   UNL     1       3.396  15.020  17.497  0.00  0.00    +0.000 OA
ATOM     21  O   UNL     1       3.556  14.731  19.991  0.00  0.00    +0.000 OA
BRANCH  19  23
ATOM     22  C   UNL     1       3.022  17.493  20.027  0.00  0.00    +0.000 C 
ATOM     23  C   UNL     1       2.117  16.727  19.060  0.00  0.00    +0.000 C 
ATOM     24  C   UNL     1       1.965  17.505  17.758  0.00  0.00    +0.000 C 
ENDBRANCH  19  23
ENDBRANCH   1  19
BRANCH   4  25
ATOM     25  O   UNL     1      -1.931  11.391  18.960  0.00  0.00    +0.000 OA
BRANCH  25  26
ATOM     26  C   UNL     1      -2.561  11.103  17.754  0.00  0.00    +0.000 A 
ATOM     27  C   UNL     1      -1.889  10.300  16.822  0.00  0.00    +0.000 A 
ATOM     28  C   UNL     1      -2.538   9.905  15.641  0.00  0.00    +0.000 A 
ATOM     29  C   UNL     1      -3.851  10.304  15.405  0.00  0.00    +0.000 A 
ATOM     30  F   UNL     1      -4.490   9.873  14.309  0.00  0.00    +0.000 F 
ATOM     31  C   UNL     1      -4.511  11.139  16.291  0.00  0.00    +0.000 A 
ATOM     32  C   UNL     1      -3.848  11.568  17.435  0.00  0.00    +0.000 A 
ATOM     33  F   UNL     1      -4.506  12.387  18.270  0.00  0.00    +0.000 F 
ENDBRANCH  25  26
ENDBRANCH   4  25
TORSDOF 5
ENDMDL
MODEL 8
REMARK VINA RESULT:      -7.1      3.171      5.954
REMARK  Name = 
REMARK  8 active torsions:
REMARK  status: ('A' for Active; 'I' for Inactive)
REMARK    1  A    between atoms: C_1  and  C_2
REMARK    2  A    between atoms: C_2  and  C_3
REMARK    3  A    between atoms: C_2  and  S_4
REMARK    4  A    between atoms: S_4  and  C_7
REMARK    5  A    between atoms: C_10  and  O_11
REMARK    6  A    between atoms: O_11  and  C_12
REMARK    7  A    between atoms: C_20  and  C_21
REMARK    8  A    between atoms: N_23  and  C_24
REMARK                            x       y       z     vdW  Elec       q    Type
REMARK                         _______ _______ _______ _____ _____    ______ ____
ROOT
ATOM      1  C   UNL     1       1.671  13.757  18.478  0.00  0.00    +0.000 A 
ATOM      2  C   UNL     1       0.398  14.304  18.506  0.00  0.00    +0.000 A 
ATOM      3  C   UNL     1      -0.698  13.472  18.729  0.00  0.00    +0.000 A 
ATOM      4  C   UNL     1      -0.561  12.071  18.837  0.00  0.00    +0.000 A 
ATOM      5  C   UNL     1       0.738  11.521  18.853  0.00  0.00    +0.000 A 
ATOM      6  C   UNL     1       1.847  12.384  18.679  0.00  0.00    +0.000 A 
ENDROOT
BRANCH   5   7
ATOM      7  C   UNL     1       1.091  10.089  19.047  0.00  0.00    +0.000 A 
ATOM      8  C   UNL     1       1.871   9.514  18.100  0.00  0.00    +0.000 A 
ATOM      9  N   UNL     1       2.482   8.263  18.270  0.00  0.00    +0.000 N 
ATOM     10  C   UNL     1       3.374   7.744  17.251  0.00  0.00    +0.000 C 
ATOM     11  C   UNL     1       2.362   7.519  19.458  0.00  0.00    +0.000 A 
ATOM     12  O   UNL     1       2.913   6.431  19.649  0.00  0.00    +0.000 OA
ATOM     13  C   UNL     1       1.557   8.167  20.460  0.00  0.00    +0.000 A 
ATOM     14  N   UNL     1       1.330   7.755  21.746  0.00  0.00    +0.000 N 
ATOM     15  C   UNL     1       0.564   8.696  22.391  0.00  0.00    +0.000 A 
ATOM     16  C   UNL     1       0.274   9.707  21.495  0.00  0.00    +0.000 A 
ATOM     17  C   UNL     1       0.923   9.383  20.288  0.00  0.00    +0.000 A 
ATOM     18  H   UNL     1       1.718   6.911  22.156  0.00  0.00    +0.000 HD
ENDBRANCH   5   7
BRANCH   1  19
ATOM     19  S   UNL     1       3.084  14.838  18.381  0.00  0.00    +0.000 S 
ATOM     20  O   UNL     1       2.728  15.910  17.474  0.00  0.00    +0.000 OA
ATOM     21  O   UNL     1       4.225  13.985  18.091  0.00  0.00    +0.000 OA
BRANCH  19  23
ATOM     22  C   UNL     1       2.463  16.785  20.163  0.00  0.00    +0.000 C 
ATOM     23  C   UNL     1       3.314  15.521  20.023  0.00  0.00    +0.000 C 
ATOM     24  C   UNL     1       2.966  14.530  21.127  0.00  0.00    +0.000 C 
ENDBRANCH  19  23
ENDBRANCH   1  19
BRANCH   4  25
ATOM     25  O   UNL     1      -1.677  11.248  18.958  0.00  0.00    +0.000 OA
BRANCH  25  26
ATOM     26  C   UNL     1      -2.388  10.931  17.805  0.00  0.00    +0.000 A 
ATOM     27  C   UNL     1      -3.565  11.640  17.528  0.00  0.00    +0.000 A 
ATOM     28  C   UNL     1      -4.249  11.418  16.323  0.00  0.00    +0.000 A 
ATOM     29  C   UNL     1      -3.750  10.501  15.401  0.00  0.00    +0.000 A 
ATOM     30  F   UNL     1      -4.368  10.337  14.224  0.00  0.00    +0.000 F 
ATOM     31  C   UNL     1      -2.617   9.756  15.682  0.00  0.00    +0.000 A 
ATOM     32  C   UNL     1      -1.970   9.943  16.898  0.00  0.00    +0.000 A 
ATOM     33  F   UNL     1      -0.883   9.199  17.150  0.00  0.00    +0.000 F 
ENDBRANCH  25  26
ENDBRANCH   4  25
TORSDOF 5
ENDMDL
MODEL 9
REMARK VINA RESULT:      -7.1      0.910      2.200
REMARK  Name = 
REMARK  8 active torsions:
REMARK  status: ('A' for Active; 'I' for Inactive)
REMARK    1  A    between atoms: C_1  and  C_2
REMARK    2  A    between atoms: C_2  and  C_3
REMARK    3  A    between atoms: C_2  and  S_4
REMARK    4  A    between atoms: S_4  and  C_7
REMARK    5  A    between atoms: C_10  and  O_11
REMARK    6  A    between atoms: O_11  and  C_12
REMARK    7  A    between atoms: C_20  and  C_21
REMARK    8  A    between atoms: N_23  and  C_24
REMARK                            x       y       z     vdW  Elec       q    Type
REMARK                         _______ _______ _______ _____ _____    ______ ____
ROOT
ATOM      1  C   UNL     1       1.135  14.585  20.119  0.00  0.00    +0.000 A 
ATOM      2  C   UNL     1       1.991  13.654  20.689  0.00  0.00    +0.000 A 
ATOM      3  C   UNL     1       1.615  12.312  20.720  0.00  0.00    +0.000 A 
ATOM      4  C   UNL     1       0.349  11.881  20.269  0.00  0.00    +0.000 A 
ATOM      5  C   UNL     1      -0.501  12.821  19.649  0.00  0.00    +0.000 A 
ATOM      6  C   UNL     1      -0.086  14.173  19.576  0.00  0.00    +0.000 A 
ENDROOT
BRANCH   5   7
ATOM      7  C   UNL     1      -1.827  12.545  19.034  0.00  0.00    +0.000 A 
ATOM      8  C   UNL     1      -1.828  11.932  17.826  0.00  0.00    +0.000 A 
ATOM      9  N   UNL     1      -2.986  11.392  17.245  0.00  0.00    +0.000 N 
ATOM     10  C   UNL     1      -2.901  10.674  15.988  0.00  0.00    +0.000 C 
ATOM     11  C   UNL     1      -4.235  11.409  17.892  0.00  0.00    +0.000 A 
ATOM     12  O   UNL     1      -5.262  10.914  17.421  0.00  0.00    +0.000 OA
ATOM     13  C   UNL     1      -4.199  12.035  19.189  0.00  0.00    +0.000 A 
ATOM     14  N   UNL     1      -5.214  12.123  20.103  0.00  0.00    +0.000 N 
ATOM     15  C   UNL     1      -4.742  12.735  21.240  0.00  0.00    +0.000 A 
ATOM     16  C   UNL     1      -3.417  13.067  21.036  0.00  0.00    +0.000 A 
ATOM     17  C   UNL     1      -3.070  12.601  19.753  0.00  0.00    +0.000 A 
ATOM     18  H   UNL     1      -6.145  11.745  19.966  0.00  0.00    +0.000 HD
ENDBRANCH   5   7
BRANCH   1  19
ATOM     19  S   UNL     1       1.688  16.266  19.909  0.00  0.00    +0.000 S 
ATOM     20  O   UNL     1       3.116  16.207  19.664  0.00  0.00    +0.000 OA
ATOM     21  O   UNL     1       1.173  17.005  21.049  0.00  0.00    +0.000 OA
BRANCH  19  23
ATOM     22  C   UNL     1      -0.194  17.904  18.849  0.00  0.00    +0.000 C 
ATOM     23  C   UNL     1       0.874  16.888  18.438  0.00  0.00    +0.000 C 
ATOM     24  C   UNL     1       1.846  17.521  17.450  0.00  0.00    +0.000 C 
ENDBRANCH  19  23
ENDBRANCH   1  19
BRANCH   4  25
ATOM     25  O   UNL     1      -0.045  10.552  20.401  0.00  0.00    +0.000 OA
BRANCH  25  26
ATOM     26  C   UNL     1       0.713   9.575  19.766  0.00  0.00    +0.000 A 
ATOM     27  C   UNL     1       0.952   9.703  18.390  0.00  0.00    +0.000 A 
ATOM     28  C   UNL     1       1.799   8.792  17.739  0.00  0.00    +0.000 A 
ATOM     29  C   UNL     1       2.407   7.770  18.464  0.00  0.00    +0.000 A 
ATOM     30  F   UNL     1       3.265   6.941  17.855  0.00  0.00    +0.000 F 
ATOM     31  C   UNL     1       2.140   7.600  19.813  0.00  0.00    +0.000 A 
ATOM     32  C   UNL     1       1.263   8.474  20.443  0.00  0.00    +0.000 A 
ATOM     33  F   UNL     1       1.012   8.278  21.747  0.00  0.00    +0.000 F 
ENDBRANCH  25  26
ENDBRANCH   4  25
TORSDOF 5
ENDMDL
