MODEL 1
REMARK VINA RESULT:      -8.5      0.000      0.000
REMARK  Name = 
REMARK  12 active torsions:
REMARK  status: ('A' for Active; 'I' for Inactive)
REMARK    1  A    between atoms: C_1  and  O_2
REMARK    2  A    between atoms: O_2  and  C_3
REMARK    3  A    between atoms: C_6  and  C_7
REMARK    4  A    between atoms: C_7  and  C_8
REMARK    5  A    between atoms: C_7  and  C_15
REMARK    6  A    between atoms: C_8  and  C_9
REMARK    7  A    between atoms: C_19  and  N_20
REMARK    8  A    between atoms: N_23  and  C_24
REMARK    9  A    between atoms: C_24  and  C_25
REMARK   10  A    between atoms: C_24  and  C_26
REMARK   11  A    between atoms: C_29  and  O_30
REMARK   12  A    between atoms: O_30  and  C_31
REMARK                            x       y       z     vdW  Elec       q    Type
REMARK                         _______ _______ _______ _____ _____    ______ ____
ROOT
ATOM      1  C   UNL     1       2.670   6.286  17.942  0.00  0.00    +0.000 C 
ENDROOT
BRANCH   1   5
ATOM      2  C   UNL     1       1.083   9.244  20.728  0.00  0.00    +0.000 A 
ATOM      3  C   UNL     1       1.486   7.947  21.127  0.00  0.00    +0.000 A 
ATOM      4  C   UNL     1       2.072   7.038  20.262  0.00  0.00    +0.000 A 
ATOM      5  C   UNL     1       2.239   7.362  18.928  0.00  0.00    +0.000 A 
ATOM      6  C   UNL     1       1.876   8.657  18.518  0.00  0.00    +0.000 A 
ATOM      7  C   UNL     1       1.289   9.613  19.389  0.00  0.00    +0.000 A 
BRANCH   2   9
ATOM      8  C   UNL     1       0.206   9.457  22.918  0.00  0.00    +0.000 C 
ATOM      9  O   UNL     1       0.455  10.068  21.636  0.00  0.00    +0.000 OA
ENDBRANCH   2   9
BRANCH   7  10
ATOM     10  O   UNL     1       0.961  10.716  18.659  0.00  0.00    +0.000 OA
BRANCH  10  11
ATOM     11  C   UNL     1      -0.294  11.258  18.293  0.00  0.00    +0.000 C 
ATOM     12  C   UNL     1      -1.290  10.236  17.774  0.00  0.00    +0.000 C 
ATOM     13  C   UNL     1      -2.668  10.722  18.186  0.00  0.00    +0.000 C 
ATOM     14  C   UNL     1      -2.487  11.904  19.130  0.00  0.00    +0.000 C 
ATOM     15  C   UNL     1      -1.000  12.220  19.225  0.00  0.00    +0.000 C 
ENDBRANCH  10  11
ENDBRANCH   7  10
ENDBRANCH   1   5
BRANCH   1  16
ATOM     16  C   UNL     1       4.189   6.185  17.811  0.00  0.00    +0.000 A 
ATOM     17  C   UNL     1       5.047   6.150  18.926  0.00  0.00    +0.000 A 
ATOM     18  C   UNL     1       6.402   5.889  18.757  0.00  0.00    +0.000 A 
ATOM     19  C   UNL     1       6.917   5.641  17.480  0.00  0.00    +0.000 A 
ATOM     20  C   UNL     1       6.097   5.703  16.354  0.00  0.00    +0.000 A 
ATOM     21  C   UNL     1       4.743   6.035  16.525  0.00  0.00    +0.000 A 
BRANCH  20  22
ATOM     22  N   UNL     1       6.540   5.359  15.060  0.00  0.00    +0.000 N 
ATOM     23  C   UNL     1       6.254   4.176  14.431  0.00  0.00    +0.000 C 
ATOM     24  O   UNL     1       5.752   3.196  14.931  0.00  0.00    +0.000 OA
ATOM     25  N   UNL     1       6.542   4.209  13.069  0.00  0.00    +0.000 N 
ATOM     26  H   UNL     1       7.108   6.036  14.571  0.00  0.00    +0.000 HD
ATOM     27  H   UNL     1       7.245   4.857  12.745  0.00  0.00    +0.000 HD
BRANCH  25  28
ATOM     28  C   UNL     1       6.301   3.000  12.283  0.00  0.00    +0.000 C 
ATOM     29  C   UNL     1       4.964   3.058  11.581  0.00  0.00    +0.000 C 
ATOM     30  C   UNL     1       7.452   2.766  11.309  0.00  0.00    +0.000 C 
ENDBRANCH  25  28
ENDBRANCH  20  22
ENDBRANCH   1  16
BRANCH   1  31
ATOM     31  C   UNL     1       1.944   4.948  18.304  0.00  0.00    +0.000 C 
BRANCH  31  32
ATOM     32  C   UNL     1       2.761   3.704  18.607  0.00  0.00    +0.000 A 
ATOM     33  C   UNL     1       3.073   2.724  17.664  0.00  0.00    +0.000 A 
ATOM     34  C   UNL     1       3.687   1.553  18.086  0.00  0.00    +0.000 A 
ATOM     35  N   UNL     1       4.053   1.307  19.361  0.00  0.00    +0.000 NA
ATOM     36  C   UNL     1       3.807   2.288  20.252  0.00  0.00    +0.000 A 
ATOM     37  C   UNL     1       3.174   3.481  19.930  0.00  0.00    +0.000 A 
ENDBRANCH  31  32
ENDBRANCH   1  31
TORSDOF 9
ENDMDL
MODEL 2
REMARK VINA RESULT:      -8.3      3.724      6.614
REMARK  Name = 
REMARK  12 active torsions:
REMARK  status: ('A' for Active; 'I' for Inactive)
REMARK    1  A    between atoms: C_1  and  O_2
REMARK    2  A    between atoms: O_2  and  C_3
REMARK    3  A    between atoms: C_6  and  C_7
REMARK    4  A    between atoms: C_7  and  C_8
REMARK    5  A    between atoms: C_7  and  C_15
REMARK    6  A    between atoms: C_8  and  C_9
REMARK    7  A    between atoms: C_19  and  N_20
REMARK    8  A    between atoms: N_23  and  C_24
REMARK    9  A    between atoms: C_24  and  C_25
REMARK   10  A    between atoms: C_24  and  C_26
REMARK   11  A    between atoms: C_29  and  O_30
REMARK   12  A    between atoms: O_30  and  C_31
REMARK                            x       y       z     vdW  Elec       q    Type
REMARK                         _______ _______ _______ _____ _____    ______ ____
ROOT
ATOM      1  C   UNL     1       5.688   5.292  16.605  0.00  0.00    +0.000 C 
ENDROOT
BRANCH   1   5
ATOM      2  C   UNL     1       1.868   3.979  18.254  0.00  0.00    +0.000 A 
ATOM      3  C   UNL     1       2.599   3.224  17.306  0.00  0.00    +0.000 A 
ATOM      4  C   UNL     1       3.853   3.596  16.848  0.00  0.00    +0.000 A 
ATOM      5  C   UNL     1       4.423   4.779  17.278  0.00  0.00    +0.000 A 
ATOM      6  C   UNL     1       3.727   5.528  18.244  0.00  0.00    +0.000 A 
ATOM      7  C   UNL     1       2.449   5.161  18.742  0.00  0.00    +0.000 A 
BRANCH   2   9
ATOM      8  C   UNL     1       0.515   2.187  19.004  0.00  0.00    +0.000 C 
ATOM      9  O   UNL     1       0.603   3.571  18.614  0.00  0.00    +0.000 OA
ENDBRANCH   2   9
BRANCH   7  10
ATOM     10  O   UNL     1       2.012   6.147  19.574  0.00  0.00    +0.000 OA
BRANCH  10  11
ATOM     11  C   UNL     1       2.131   7.556  19.501  0.00  0.00    +0.000 C 
ATOM     12  C   UNL     1       1.969   8.127  18.103  0.00  0.00    +0.000 C 
ATOM     13  C   UNL     1       1.334   9.496  18.262  0.00  0.00    +0.000 C 
ATOM     14  C   UNL     1       0.916   9.654  19.718  0.00  0.00    +0.000 C 
ATOM     15  C   UNL     1       1.383   8.426  20.489  0.00  0.00    +0.000 C 
ENDBRANCH  10  11
ENDBRANCH   7  10
ENDBRANCH   1   5
BRANCH   1  16
ATOM     16  C   UNL     1       6.618   6.014  17.579  0.00  0.00    +0.000 A 
ATOM     17  C   UNL     1       7.280   5.354  18.629  0.00  0.00    +0.000 A 
ATOM     18  C   UNL     1       8.242   6.021  19.379  0.00  0.00    +0.000 A 
ATOM     19  C   UNL     1       8.570   7.348  19.082  0.00  0.00    +0.000 A 
ATOM     20  C   UNL     1       7.905   8.039  18.069  0.00  0.00    +0.000 A 
ATOM     21  C   UNL     1       6.887   7.380  17.361  0.00  0.00    +0.000 A 
BRANCH  20  22
ATOM     22  N   UNL     1       8.268   9.339  17.659  0.00  0.00    +0.000 N 
ATOM     23  C   UNL     1       8.970  10.228  18.431  0.00  0.00    +0.000 C 
ATOM     24  O   UNL     1       9.221  10.118  19.609  0.00  0.00    +0.000 OA
ATOM     25  N   UNL     1       9.460  11.305  17.698  0.00  0.00    +0.000 N 
ATOM     26  H   UNL     1       7.988   9.627  16.733  0.00  0.00    +0.000 HD
ATOM     27  H   UNL     1       8.981  11.562  16.847  0.00  0.00    +0.000 HD
BRANCH  25  28
ATOM     28  C   UNL     1      10.211  12.338  18.407  0.00  0.00    +0.000 C 
ATOM     29  C   UNL     1      11.558  12.579  17.766  0.00  0.00    +0.000 C 
ATOM     30  C   UNL     1       9.385  13.617  18.506  0.00  0.00    +0.000 C 
ENDBRANCH  25  28
ENDBRANCH  20  22
ENDBRANCH   1  16
BRANCH   1  31
ATOM     31  C   UNL     1       6.346   4.120  15.805  0.00  0.00    +0.000 C 
BRANCH  31  32
ATOM     32  C   UNL     1       6.589   4.267  14.313  0.00  0.00    +0.000 A 
ATOM     33  C   UNL     1       6.001   3.457  13.341  0.00  0.00    +0.000 A 
ATOM     34  C   UNL     1       6.418   3.576  12.022  0.00  0.00    +0.000 A 
ATOM     35  N   UNL     1       7.336   4.466  11.596  0.00  0.00    +0.000 NA
ATOM     36  C   UNL     1       7.849   5.289  12.532  0.00  0.00    +0.000 A 
ATOM     37  C   UNL     1       7.516   5.228  13.879  0.00  0.00    +0.000 A 
ENDBRANCH  31  32
ENDBRANCH   1  31
TORSDOF 9
ENDMDL
MODEL 3
REMARK VINA RESULT:      -8.3      1.177      1.791
REMARK  Name = 
REMARK  12 active torsions:
REMARK  status: ('A' for Active; 'I' for Inactive)
REMARK    1  A    between atoms: C_1  and  O_2
REMARK    2  A    between atoms: O_2  and  C_3
REMARK    3  A    between atoms: C_6  and  C_7
REMARK    4  A    between atoms: C_7  and  C_8
REMARK    5  A    between atoms: C_7  and  C_15
REMARK    6  A    between atoms: C_8  and  C_9
REMARK    7  A    between atoms: C_19  and  N_20
REMARK    8  A    between atoms: N_23  and  C_24
REMARK    9  A    between atoms: C_24  and  C_25
REMARK   10  A    between atoms: C_24  and  C_26
REMARK   11  A    between atoms: C_29  and  O_30
REMARK   12  A    between atoms: O_30  and  C_31
REMARK                            x       y       z     vdW  Elec       q    Type
REMARK                         _______ _______ _______ _____ _____    ______ ____
ROOT
ATOM      1  C   UNL     1       2.554   6.457  17.891  0.00  0.00    +0.000 C 
ENDROOT
BRANCH   1   5
ATOM      2  C   UNL     1       1.038   9.323  20.810  0.00  0.00    +0.000 A 
ATOM      3  C   UNL     1       1.321   7.974  21.129  0.00  0.00    +0.000 A 
ATOM      4  C   UNL     1       1.885   7.086  20.228  0.00  0.00    +0.000 A 
ATOM      5  C   UNL     1       2.150   7.490  18.933  0.00  0.00    +0.000 A 
ATOM      6  C   UNL     1       1.907   8.836  18.605  0.00  0.00    +0.000 A 
ATOM      7  C   UNL     1       1.346   9.770  19.514  0.00  0.00    +0.000 A 
BRANCH   2   9
ATOM      8  C   UNL     1       0.015   9.436  22.942  0.00  0.00    +0.000 C 
ATOM      9  O   UNL     1       0.424  10.126  21.745  0.00  0.00    +0.000 OA
ENDBRANCH   2   9
BRANCH   7  10
ATOM     10  O   UNL     1       1.141  10.944  18.855  0.00  0.00    +0.000 OA
BRANCH  10  11
ATOM     11  C   UNL     1       1.496  12.276  19.179  0.00  0.00    +0.000 C 
ATOM     12  C   UNL     1       2.625  12.846  18.338  0.00  0.00    +0.000 C 
ATOM     13  C   UNL     1       2.358  14.334  18.201  0.00  0.00    +0.000 C 
ATOM     14  C   UNL     1       0.972  14.617  18.764  0.00  0.00    +0.000 C 
ATOM     15  C   UNL     1       0.416  13.324  19.346  0.00  0.00    +0.000 C 
ENDBRANCH  10  11
ENDBRANCH   7  10
ENDBRANCH   1   5
BRANCH   1  16
ATOM     16  C   UNL     1       4.065   6.238  17.839  0.00  0.00    +0.000 A 
ATOM     17  C   UNL     1       4.854   6.102  18.995  0.00  0.00    +0.000 A 
ATOM     18  C   UNL     1       6.191   5.738  18.891  0.00  0.00    +0.000 A 
ATOM     19  C   UNL     1       6.756   5.485  17.636  0.00  0.00    +0.000 A 
ATOM     20  C   UNL     1       6.008   5.646  16.470  0.00  0.00    +0.000 A 
ATOM     21  C   UNL     1       4.677   6.081  16.579  0.00  0.00    +0.000 A 
BRANCH  20  22
ATOM     22  N   UNL     1       6.494   5.304  15.191  0.00  0.00    +0.000 N 
ATOM     23  C   UNL     1       6.162   4.160  14.515  0.00  0.00    +0.000 C 
ATOM     24  O   UNL     1       5.569   3.205  14.961  0.00  0.00    +0.000 OA
ATOM     25  N   UNL     1       6.523   4.206  13.171  0.00  0.00    +0.000 N 
ATOM     26  H   UNL     1       7.131   5.953  14.751  0.00  0.00    +0.000 HD
ATOM     27  H   UNL     1       7.284   4.813  12.901  0.00  0.00    +0.000 HD
BRANCH  25  28
ATOM     28  C   UNL     1       6.243   3.038  12.340  0.00  0.00    +0.000 C 
ATOM     29  C   UNL     1       4.916   3.174  11.629  0.00  0.00    +0.000 C 
ATOM     30  C   UNL     1       7.393   2.792  11.368  0.00  0.00    +0.000 C 
ENDBRANCH  25  28
ENDBRANCH  20  22
ENDBRANCH   1  16
BRANCH   1  31
ATOM     31  C   UNL     1       1.703   5.162  18.106  0.00  0.00    +0.000 C 
BRANCH  31  32
ATOM     32  C   UNL     1       2.383   3.873  18.529  0.00  0.00    +0.000 A 
ATOM     33  C   UNL     1       2.704   3.554  19.849  0.00  0.00    +0.000 A 
ATOM     34  C   UNL     1       3.467   2.422  20.103  0.00  0.00    +0.000 A 
ATOM     35  N   UNL     1       3.893   1.567  19.151  0.00  0.00    +0.000 NA
ATOM     36  C   UNL     1       3.522   1.849  17.887  0.00  0.00    +0.000 A 
ATOM     37  C   UNL     1       2.783   2.969  17.531  0.00  0.00    +0.000 A 
ENDBRANCH  31  32
ENDBRANCH   1  31
TORSDOF 9
ENDMDL
MODEL 4
REMARK VINA RESULT:      -8.0      1.045      1.451
REMARK  Name = 
REMARK  12 active torsions:
REMARK  status: ('A' for Active; 'I' for Inactive)
REMARK    1  A    between atoms: C_1  and  O_2
REMARK    2  A    between atoms: O_2  and  C_3
REMARK    3  A    between atoms: C_6  and  C_7
REMARK    4  A    between atoms: C_7  and  C_8
REMARK    5  A    between atoms: C_7  and  C_15
REMARK    6  A    between atoms: C_8  and  C_9
REMARK    7  A    between atoms: C_19  and  N_20
REMARK    8  A    between atoms: N_23  and  C_24
REMARK    9  A    between atoms: C_24  and  C_25
REMARK   10  A    between atoms: C_24  and  C_26
REMARK   11  A    between atoms: C_29  and  O_30
REMARK   12  A    between atoms: O_30  and  C_31
REMARK                            x       y       z     vdW  Elec       q    Type
REMARK                         _______ _______ _______ _____ _____    ______ ____
ROOT
ATOM      1  C   UNL     1       2.459   5.921  18.029  0.00  0.00    +0.000 C 
ENDROOT
BRANCH   1   5
ATOM      2  C   UNL     1       1.138   9.046  20.772  0.00  0.00    +0.000 A 
ATOM      3  C   UNL     1       1.449   7.731  21.193  0.00  0.00    +0.000 A 
ATOM      4  C   UNL     1       1.953   6.763  20.340  0.00  0.00    +0.000 A 
ATOM      5  C   UNL     1       2.124   7.046  18.997  0.00  0.00    +0.000 A 
ATOM      6  C   UNL     1       1.851   8.356  18.565  0.00  0.00    +0.000 A 
ATOM      7  C   UNL     1       1.351   9.371  19.422  0.00  0.00    +0.000 A 
BRANCH   2   9
ATOM      8  C   UNL     1      -0.370   9.344  22.573  0.00  0.00    +0.000 C 
ATOM      9  O   UNL     1       0.586   9.932  21.670  0.00  0.00    +0.000 OA
ENDBRANCH   2   9
BRANCH   7  10
ATOM     10  O   UNL     1       1.094  10.480  18.673  0.00  0.00    +0.000 OA
BRANCH  10  11
ATOM     11  C   UNL     1      -0.124  11.059  18.242  0.00  0.00    +0.000 C 
ATOM     12  C   UNL     1      -1.181  10.053  17.821  0.00  0.00    +0.000 C 
ATOM     13  C   UNL     1      -2.526  10.663  18.168  0.00  0.00    +0.000 C 
ATOM     14  C   UNL     1      -2.273  11.922  18.988  0.00  0.00    +0.000 C 
ATOM     15  C   UNL     1      -0.770  12.153  19.064  0.00  0.00    +0.000 C 
ENDBRANCH  10  11
ENDBRANCH   7  10
ENDBRANCH   1   5
BRANCH   1  16
ATOM     16  C   UNL     1       3.957   5.629  17.966  0.00  0.00    +0.000 A 
ATOM     17  C   UNL     1       4.828   5.889  19.039  0.00  0.00    +0.000 A 
ATOM     18  C   UNL     1       6.146   5.451  18.992  0.00  0.00    +0.000 A 
ATOM     19  C   UNL     1       6.610   4.733  17.884  0.00  0.00    +0.000 A 
ATOM     20  C   UNL     1       5.779   4.491  16.790  0.00  0.00    +0.000 A 
ATOM     21  C   UNL     1       4.469   4.996  16.816  0.00  0.00    +0.000 A 
BRANCH  20  22
ATOM     22  N   UNL     1       6.161   3.685  15.698  0.00  0.00    +0.000 N 
ATOM     23  C   UNL     1       5.879   3.969  14.388  0.00  0.00    +0.000 C 
ATOM     24  O   UNL     1       5.126   4.824  13.982  0.00  0.00    +0.000 OA
ATOM     25  N   UNL     1       6.620   3.195  13.499  0.00  0.00    +0.000 N 
ATOM     26  H   UNL     1       6.678   2.842  15.904  0.00  0.00    +0.000 HD
ATOM     27  H   UNL     1       6.959   2.298  13.814  0.00  0.00    +0.000 HD
BRANCH  25  28
ATOM     28  C   UNL     1       6.399   3.386  12.067  0.00  0.00    +0.000 C 
ATOM     29  C   UNL     1       7.381   2.582  11.246  0.00  0.00    +0.000 C 
ATOM     30  C   UNL     1       4.951   3.063  11.708  0.00  0.00    +0.000 C 
ENDBRANCH  25  28
ENDBRANCH  20  22
ENDBRANCH   1  16
BRANCH   1  31
ATOM     31  C   UNL     1       1.555   4.686  18.356  0.00  0.00    +0.000 C 
BRANCH  31  32
ATOM     32  C   UNL     1       1.881   3.808  19.552  0.00  0.00    +0.000 A 
ATOM     33  C   UNL     1       1.054   3.666  20.667  0.00  0.00    +0.000 A 
ATOM     34  C   UNL     1       1.524   2.965  21.770  0.00  0.00    +0.000 A 
ATOM     35  N   UNL     1       2.728   2.361  21.826  0.00  0.00    +0.000 NA
ATOM     36  C   UNL     1       3.491   2.448  20.719  0.00  0.00    +0.000 A 
ATOM     37  C   UNL     1       3.120   3.149  19.579  0.00  0.00    +0.000 A 
ENDBRANCH  31  32
ENDBRANCH   1  31
TORSDOF 9
ENDMDL
MODEL 5
REMARK VINA RESULT:      -7.8      1.415      1.802
REMARK  Name = 
REMARK  12 active torsions:
REMARK  status: ('A' for Active; 'I' for Inactive)
REMARK    1  A    between atoms: C_1  and  O_2
REMARK    2  A    between atoms: O_2  and  C_3
REMARK    3  A    between atoms: C_6  and  C_7
REMARK    4  A    between atoms: C_7  and  C_8
REMARK    5  A    between atoms: C_7  and  C_15
REMARK    6  A    between atoms: C_8  and  C_9
REMARK    7  A    between atoms: C_19  and  N_20
REMARK    8  A    between atoms: N_23  and  C_24
REMARK    9  A    between atoms: C_24  and  C_25
REMARK   10  A    between atoms: C_24  and  C_26
REMARK   11  A    between atoms: C_29  and  O_30
REMARK   12  A    between atoms: O_30  and  C_31
REMARK                            x       y       z     vdW  Elec       q    Type
REMARK                         _______ _______ _______ _____ _____    ______ ____
ROOT
ATOM      1  C   UNL     1       2.407   6.819  17.977  0.00  0.00    +0.000 C 
ENDROOT
BRANCH   1   5
ATOM      2  C   UNL     1       1.083   9.581  21.084  0.00  0.00    +0.000 A 
ATOM      3  C   UNL     1       1.448   8.239  21.350  0.00  0.00    +0.000 A 
ATOM      4  C   UNL     1       1.952   7.388  20.381  0.00  0.00    +0.000 A 
ATOM      5  C   UNL     1       2.070   7.820  19.073  0.00  0.00    +0.000 A 
ATOM      6  C   UNL     1       1.743   9.159  18.795  0.00  0.00    +0.000 A 
ATOM      7  C   UNL     1       1.241  10.058  19.772  0.00  0.00    +0.000 A 
BRANCH   2   9
ATOM      8  C   UNL     1      -0.827  10.752  21.850  0.00  0.00    +0.000 C 
ATOM      9  O   UNL     1       0.534  10.345  22.090  0.00  0.00    +0.000 OA
ENDBRANCH   2   9
BRANCH   7  10
ATOM     10  O   UNL     1       0.926  11.232  19.157  0.00  0.00    +0.000 OA
BRANCH  10  11
ATOM     11  C   UNL     1       1.543  12.505  19.197  0.00  0.00    +0.000 C 
ATOM     12  C   UNL     1       0.768  13.598  18.481  0.00  0.00    +0.000 C 
ATOM     13  C   UNL     1       1.042  14.889  19.232  0.00  0.00    +0.000 C 
ATOM     14  C   UNL     1       1.793  14.539  20.510  0.00  0.00    +0.000 C 
ATOM     15  C   UNL     1       2.078  13.043  20.507  0.00  0.00    +0.000 C 
ENDBRANCH  10  11
ENDBRANCH   7  10
ENDBRANCH   1   5
BRANCH   1  16
ATOM     16  C   UNL     1       3.883   6.423  17.979  0.00  0.00    +0.000 A 
ATOM     17  C   UNL     1       4.581   6.095  19.156  0.00  0.00    +0.000 A 
ATOM     18  C   UNL     1       5.870   5.581  19.084  0.00  0.00    +0.000 A 
ATOM     19  C   UNL     1       6.475   5.370  17.840  0.00  0.00    +0.000 A 
ATOM     20  C   UNL     1       5.821   5.719  16.659  0.00  0.00    +0.000 A 
ATOM     21  C   UNL     1       4.547   6.301  16.742  0.00  0.00    +0.000 A 
BRANCH  20  22
ATOM     22  N   UNL     1       6.340   5.431  15.380  0.00  0.00    +0.000 N 
ATOM     23  C   UNL     1       6.091   4.279  14.682  0.00  0.00    +0.000 C 
ATOM     24  O   UNL     1       5.560   3.279  15.108  0.00  0.00    +0.000 OA
ATOM     25  N   UNL     1       6.459   4.371  13.343  0.00  0.00    +0.000 N 
ATOM     26  H   UNL     1       6.936   6.128  14.955  0.00  0.00    +0.000 HD
ATOM     27  H   UNL     1       7.180   5.031  13.090  0.00  0.00    +0.000 HD
BRANCH  25  28
ATOM     28  C   UNL     1       6.264   3.199  12.491  0.00  0.00    +0.000 C 
ATOM     29  C   UNL     1       4.924   3.242  11.795  0.00  0.00    +0.000 C 
ATOM     30  C   UNL     1       7.421   3.065  11.505  0.00  0.00    +0.000 C 
ENDBRANCH  25  28
ENDBRANCH  20  22
ENDBRANCH   1  16
BRANCH   1  31
ATOM     31  C   UNL     1       1.400   5.624  18.057  0.00  0.00    +0.000 C 
BRANCH  31  32
ATOM     32  C   UNL     1       1.909   4.226  18.359  0.00  0.00    +0.000 A 
ATOM     33  C   UNL     1       2.490   3.382  17.412  0.00  0.00    +0.000 A 
ATOM     34  C   UNL     1       2.773   2.069  17.761  0.00  0.00    +0.000 A 
ATOM     35  N   UNL     1       2.564   1.551  18.989  0.00  0.00    +0.000 NA
ATOM     36  C   UNL     1       2.065   2.393  19.915  0.00  0.00    +0.000 A 
ATOM     37  C   UNL     1       1.725   3.714  19.653  0.00  0.00    +0.000 A 
ENDBRANCH  31  32
ENDBRANCH   1  31
TORSDOF 9
ENDMDL
MODEL 6
REMARK VINA RESULT:      -7.7      3.327      6.303
REMARK  Name = 
REMARK  12 active torsions:
REMARK  status: ('A' for Active; 'I' for Inactive)
REMARK    1  A    between atoms: C_1  and  O_2
REMARK    2  A    between atoms: O_2  and  C_3
REMARK    3  A    between atoms: C_6  and  C_7
REMARK    4  A    between atoms: C_7  and  C_8
REMARK    5  A    between atoms: C_7  and  C_15
REMARK    6  A    between atoms: C_8  and  C_9
REMARK    7  A    between atoms: C_19  and  N_20
REMARK    8  A    between atoms: N_23  and  C_24
REMARK    9  A    between atoms: C_24  and  C_25
REMARK   10  A    between atoms: C_24  and  C_26
REMARK   11  A    between atoms: C_29  and  O_30
REMARK   12  A    between atoms: O_30  and  C_31
REMARK                            x       y       z     vdW  Elec       q    Type
REMARK                         _______ _______ _______ _____ _____    ______ ____
ROOT
ATOM      1  C   UNL     1       0.377  10.344  18.487  0.00  0.00    +0.000 C 
ENDROOT
BRANCH   1   5
ATOM      2  C   UNL     1       2.361  14.057  19.636  0.00  0.00    +0.000 A 
ATOM      3  C   UNL     1       2.891  13.164  18.673  0.00  0.00    +0.000 A 
ATOM      4  C   UNL     1       2.221  12.031  18.243  0.00  0.00    +0.000 A 
ATOM      5  C   UNL     1       0.998  11.699  18.795  0.00  0.00    +0.000 A 
ATOM      6  C   UNL     1       0.439  12.590  19.729  0.00  0.00    +0.000 A 
ATOM      7  C   UNL     1       1.096  13.766  20.174  0.00  0.00    +0.000 A 
BRANCH   2   9
ATOM      8  C   UNL     1       3.715  14.964  21.353  0.00  0.00    +0.000 C 
ATOM      9  O   UNL     1       3.116  15.130  20.053  0.00  0.00    +0.000 OA
ENDBRANCH   2   9
BRANCH   7  10
ATOM     10  O   UNL     1       0.339  14.341  21.150  0.00  0.00    +0.000 OA
BRANCH  10  11
ATOM     11  C   UNL     1      -0.830  13.895  21.813  0.00  0.00    +0.000 C 
ATOM     12  C   UNL     1      -2.070  13.852  20.936  0.00  0.00    +0.000 C 
ATOM     13  C   UNL     1      -2.921  12.701  21.442  0.00  0.00    +0.000 C 
ATOM     14  C   UNL     1      -2.102  11.925  22.465  0.00  0.00    +0.000 C 
ATOM     15  C   UNL     1      -0.780  12.651  22.674  0.00  0.00    +0.000 C 
ENDBRANCH  10  11
ENDBRANCH   7  10
ENDBRANCH   1   5
BRANCH   1  16
ATOM     16  C   UNL     1       1.169   9.186  19.090  0.00  0.00    +0.000 A 
ATOM     17  C   UNL     1       1.089   8.836  20.451  0.00  0.00    +0.000 A 
ATOM     18  C   UNL     1       1.697   7.675  20.912  0.00  0.00    +0.000 A 
ATOM     19  C   UNL     1       2.378   6.836  20.022  0.00  0.00    +0.000 A 
ATOM     20  C   UNL     1       2.504   7.175  18.675  0.00  0.00    +0.000 A 
ATOM     21  C   UNL     1       1.945   8.384  18.230  0.00  0.00    +0.000 A 
BRANCH  20  22
ATOM     22  N   UNL     1       3.086   6.318  17.718  0.00  0.00    +0.000 N 
ATOM     23  C   UNL     1       4.371   6.430  17.256  0.00  0.00    +0.000 C 
ATOM     24  O   UNL     1       5.126   7.356  17.445  0.00  0.00    +0.000 OA
ATOM     25  N   UNL     1       4.793   5.299  16.564  0.00  0.00    +0.000 N 
ATOM     26  H   UNL     1       2.510   5.573  17.353  0.00  0.00    +0.000 HD
ATOM     27  H   UNL     1       4.094   4.716  16.129  0.00  0.00    +0.000 HD
BRANCH  25  28
ATOM     28  C   UNL     1       6.142   5.298  16.000  0.00  0.00    +0.000 C 
ATOM     29  C   UNL     1       7.111   4.556  16.891  0.00  0.00    +0.000 C 
ATOM     30  C   UNL     1       6.120   4.737  14.581  0.00  0.00    +0.000 C 
ENDBRANCH  25  28
ENDBRANCH  20  22
ENDBRANCH   1  16
BRANCH   1  31
ATOM     31  C   UNL     1      -1.139  10.384  18.873  0.00  0.00    +0.000 C 
BRANCH  31  32
ATOM     32  C   UNL     1      -2.194  10.468  17.784  0.00  0.00    +0.000 A 
ATOM     33  C   UNL     1      -2.085   9.845  16.540  0.00  0.00    +0.000 A 
ATOM     34  C   UNL     1      -3.033  10.119  15.563  0.00  0.00    +0.000 A 
ATOM     35  N   UNL     1      -4.098  10.926  15.747  0.00  0.00    +0.000 NA
ATOM     36  C   UNL     1      -4.229  11.470  16.973  0.00  0.00    +0.000 A 
ATOM     37  C   UNL     1      -3.320  11.276  18.005  0.00  0.00    +0.000 A 
ENDBRANCH  31  32
ENDBRANCH   1  31
TORSDOF 9
ENDMDL
MODEL 7
REMARK VINA RESULT:      -7.7      1.304      1.837
REMARK  Name = 
REMARK  12 active torsions:
REMARK  status: ('A' for Active; 'I' for Inactive)
REMARK    1  A    between atoms: C_1  and  O_2
REMARK    2  A    between atoms: O_2  and  C_3
REMARK    3  A    between atoms: C_6  and  C_7
REMARK    4  A    between atoms: C_7  and  C_8
REMARK    5  A    between atoms: C_7  and  C_15
REMARK    6  A    between atoms: C_8  and  C_9
REMARK    7  A    between atoms: C_19  and  N_20
REMARK    8  A    between atoms: N_23  and  C_24
REMARK    9  A    between atoms: C_24  and  C_25
REMARK   10  A    between atoms: C_24  and  C_26
REMARK   11  A    between atoms: C_29  and  O_30
REMARK   12  A    between atoms: O_30  and  C_31
REMARK                            x       y       z     vdW  Elec       q    Type
REMARK                         _______ _______ _______ _____ _____    ______ ____
ROOT
ATOM      1  C   UNL     1       2.294   6.367  18.794  0.00  0.00    +0.000 C 
ENDROOT
BRANCH   1   5
ATOM      2  C   UNL     1       1.029   9.878  21.055  0.00  0.00    +0.000 A 
ATOM      3  C   UNL     1       1.397   8.657  21.669  0.00  0.00    +0.000 A 
ATOM      4  C   UNL     1       1.883   7.571  20.960  0.00  0.00    +0.000 A 
ATOM      5  C   UNL     1       1.978   7.630  19.582  0.00  0.00    +0.000 A 
ATOM      6  C   UNL     1       1.648   8.845  18.955  0.00  0.00    +0.000 A 
ATOM      7  C   UNL     1       1.164   9.979  19.660  0.00  0.00    +0.000 A 
BRANCH   2   9
ATOM      8  C   UNL     1      -0.930  11.036  21.711  0.00  0.00    +0.000 C 
ATOM      9  O   UNL     1       0.499  10.890  21.824  0.00  0.00    +0.000 OA
ENDBRANCH   2   9
BRANCH   7  10
ATOM     10  O   UNL     1       0.839  10.943  18.755  0.00  0.00    +0.000 OA
BRANCH  10  11
ATOM     11  C   UNL     1       1.237  12.297  18.644  0.00  0.00    +0.000 C 
ATOM     12  C   UNL     1       0.090  13.273  18.450  0.00  0.00    +0.000 C 
ATOM     13  C   UNL     1       0.500  14.568  19.127  0.00  0.00    +0.000 C 
ATOM     14  C   UNL     1       1.782  14.306  19.907  0.00  0.00    +0.000 C 
ATOM     15  C   UNL     1       2.227  12.875  19.633  0.00  0.00    +0.000 C 
ENDBRANCH  10  11
ENDBRANCH   7  10
ENDBRANCH   1   5
BRANCH   1  16
ATOM     16  C   UNL     1       3.762   6.287  18.379  0.00  0.00    +0.000 A 
ATOM     17  C   UNL     1       4.809   6.149  19.309  0.00  0.00    +0.000 A 
ATOM     18  C   UNL     1       6.106   5.913  18.871  0.00  0.00    +0.000 A 
ATOM     19  C   UNL     1       6.377   5.793  17.503  0.00  0.00    +0.000 A 
ATOM     20  C   UNL     1       5.365   5.960  16.557  0.00  0.00    +0.000 A 
ATOM     21  C   UNL     1       4.070   6.267  17.005  0.00  0.00    +0.000 A 
BRANCH  20  22
ATOM     22  N   UNL     1       5.561   5.746  15.177  0.00  0.00    +0.000 N 
ATOM     23  C   UNL     1       5.714   4.515  14.597  0.00  0.00    +0.000 C 
ATOM     24  O   UNL     1       5.887   3.464  15.171  0.00  0.00    +0.000 OA
ATOM     25  N   UNL     1       5.583   4.553  13.212  0.00  0.00    +0.000 N 
ATOM     26  H   UNL     1       5.589   6.562  14.582  0.00  0.00    +0.000 HD
ATOM     27  H   UNL     1       5.782   5.422  12.737  0.00  0.00    +0.000 HD
BRANCH  25  28
ATOM     28  C   UNL     1       5.745   3.306  12.468  0.00  0.00    +0.000 C 
ATOM     29  C   UNL     1       4.600   3.087  11.505  0.00  0.00    +0.000 C 
ATOM     30  C   UNL     1       7.099   3.282  11.765  0.00  0.00    +0.000 C 
ENDBRANCH  25  28
ENDBRANCH  20  22
ENDBRANCH   1  16
BRANCH   1  31
ATOM     31  C   UNL     1       1.761   5.129  19.589  0.00  0.00    +0.000 C 
BRANCH  31  32
ATOM     32  C   UNL     1       2.334   3.750  19.313  0.00  0.00    +0.000 A 
ATOM     33  C   UNL     1       3.211   3.081  20.167  0.00  0.00    +0.000 A 
ATOM     34  C   UNL     1       3.796   1.897  19.740  0.00  0.00    +0.000 A 
ATOM     35  N   UNL     1       3.540   1.311  18.553  0.00  0.00    +0.000 NA
ATOM     36  C   UNL     1       2.641   1.931  17.764  0.00  0.00    +0.000 A 
ATOM     37  C   UNL     1       2.024   3.131  18.092  0.00  0.00    +0.000 A 
ENDBRANCH  31  32
ENDBRANCH   1  31
TORSDOF 9
ENDMDL
MODEL 8
REMARK VINA RESULT:      -7.7      1.541      2.174
REMARK  Name = 
REMARK  12 active torsions:
REMARK  status: ('A' for Active; 'I' for Inactive)
REMARK    1  A    between atoms: C_1  and  O_2
REMARK    2  A    between atoms: O_2  and  C_3
REMARK    3  A    between atoms: C_6  and  C_7
REMARK    4  A    between atoms: C_7  and  C_8
REMARK    5  A    between atoms: C_7  and  C_15
REMARK    6  A    between atoms: C_8  and  C_9
REMARK    7  A    between atoms: C_19  and  N_20
REMARK    8  A    between atoms: N_23  and  C_24
REMARK    9  A    between atoms: C_24  and  C_25
REMARK   10  A    between atoms: C_24  and  C_26
REMARK   11  A    between atoms: C_29  and  O_30
REMARK   12  A    between atoms: O_30  and  C_31
REMARK                            x       y       z     vdW  Elec       q    Type
REMARK                         _______ _______ _______ _____ _____    ______ ____
ROOT
ATOM      1  C   UNL     1       2.673   6.678  17.865  0.00  0.00    +0.000 C 
ENDROOT
BRANCH   1   5
ATOM      2  C   UNL     1       0.818   9.301  20.817  0.00  0.00    +0.000 A 
ATOM      3  C   UNL     1       1.286   8.001  21.126  0.00  0.00    +0.000 A 
ATOM      4  C   UNL     1       1.955   7.202  20.213  0.00  0.00    +0.000 A 
ATOM      5  C   UNL     1       2.145   7.643  18.917  0.00  0.00    +0.000 A 
ATOM      6  C   UNL     1       1.717   8.944  18.599  0.00  0.00    +0.000 A 
ATOM      7  C   UNL     1       1.045   9.790  19.520  0.00  0.00    +0.000 A 
BRANCH   2   9
ATOM      8  C   UNL     1       0.195   9.465  23.095  0.00  0.00    +0.000 C 
ATOM      9  O   UNL     1       0.111  10.009  21.763  0.00  0.00    +0.000 OA
ENDBRANCH   2   9
BRANCH   7  10
ATOM     10  O   UNL     1       0.674  10.927  18.868  0.00  0.00    +0.000 OA
BRANCH  10  11
ATOM     11  C   UNL     1       1.174  12.250  18.932  0.00  0.00    +0.000 C 
ATOM     12  C   UNL     1       1.387  12.771  20.343  0.00  0.00    +0.000 C 
ATOM     13  C   UNL     1       2.572  13.719  20.283  0.00  0.00    +0.000 C 
ATOM     14  C   UNL     1       3.200  13.599  18.901  0.00  0.00    +0.000 C 
ATOM     15  C   UNL     1       2.347  12.654  18.065  0.00  0.00    +0.000 C 
ENDBRANCH  10  11
ENDBRANCH   7  10
ENDBRANCH   1   5
BRANCH   1  16
ATOM     16  C   UNL     1       4.127   6.280  18.113  0.00  0.00    +0.000 A 
ATOM     17  C   UNL     1       4.564   5.712  19.323  0.00  0.00    +0.000 A 
ATOM     18  C   UNL     1       5.857   5.214  19.436  0.00  0.00    +0.000 A 
ATOM     19  C   UNL     1       6.726   5.258  18.340  0.00  0.00    +0.000 A 
ATOM     20  C   UNL     1       6.332   5.846  17.139  0.00  0.00    +0.000 A 
ATOM     21  C   UNL     1       5.048   6.409  17.054  0.00  0.00    +0.000 A 
BRANCH  20  22
ATOM     22  N   UNL     1       7.127   5.823  15.974  0.00  0.00    +0.000 N 
ATOM     23  C   UNL     1       6.932   4.972  14.918  0.00  0.00    +0.000 C 
ATOM     24  O   UNL     1       6.193   4.015  14.890  0.00  0.00    +0.000 OA
ATOM     25  N   UNL     1       7.644   5.352  13.784  0.00  0.00    +0.000 N 
ATOM     26  H   UNL     1       7.891   6.481  15.923  0.00  0.00    +0.000 HD
ATOM     27  H   UNL     1       8.479   5.906  13.907  0.00  0.00    +0.000 HD
BRANCH  25  28
ATOM     28  C   UNL     1       7.539   4.516  12.590  0.00  0.00    +0.000 C 
ATOM     29  C   UNL     1       6.296   3.656  12.628  0.00  0.00    +0.000 C 
ATOM     30  C   UNL     1       7.603   5.378  11.333  0.00  0.00    +0.000 C 
ENDBRANCH  25  28
ENDBRANCH  20  22
ENDBRANCH   1  16
BRANCH   1  31
ATOM     31  C   UNL     1       1.672   5.484  17.726  0.00  0.00    +0.000 C 
BRANCH  31  32
ATOM     32  C   UNL     1       2.094   4.091  18.158  0.00  0.00    +0.000 A 
ATOM     33  C   UNL     1       1.890   3.573  19.438  0.00  0.00    +0.000 A 
ATOM     34  C   UNL     1       2.458   2.351  19.769  0.00  0.00    +0.000 A 
ATOM     35  N   UNL     1       3.170   1.590  18.913  0.00  0.00    +0.000 NA
ATOM     36  C   UNL     1       3.304   2.068  17.660  0.00  0.00    +0.000 A 
ATOM     37  C   UNL     1       2.796   3.291  17.243  0.00  0.00    +0.000 A 
ENDBRANCH  31  32
ENDBRANCH   1  31
TORSDOF 9
ENDMDL
MODEL 9
REMARK VINA RESULT:      -7.7      4.818     10.785
REMARK  Name = 
REMARK  12 active torsions:
REMARK  status: ('A' for Active; 'I' for Inactive)
REMARK    1  A    between atoms: C_1  and  O_2
REMARK    2  A    between atoms: O_2  and  C_3
REMARK    3  A    between atoms: C_6  and  C_7
REMARK    4  A    between atoms: C_7  and  C_8
REMARK    5  A    between atoms: C_7  and  C_15
REMARK    6  A    between atoms: C_8  and  C_9
REMARK    7  A    between atoms: C_19  and  N_20
REMARK    8  A    between atoms: N_23  and  C_24
REMARK    9  A    between atoms: C_24  and  C_25
REMARK   10  A    between atoms: C_24  and  C_26
REMARK   11  A    between atoms: C_29  and  O_30
REMARK   12  A    between atoms: O_30  and  C_31
REMARK                            x       y       z     vdW  Elec       q    Type
REMARK                         _______ _______ _______ _____ _____    ______ ____
ROOT
ATOM      1  C   UNL     1       0.622  10.929  18.765  0.00  0.00    +0.000 C 
ENDROOT
BRANCH   1   5
ATOM      2  C   UNL     1       2.335   7.037  19.741  0.00  0.00    +0.000 A 
ATOM      3  C   UNL     1       1.546   7.782  20.649  0.00  0.00    +0.000 A 
ATOM      4  C   UNL     1       0.929   8.975  20.312  0.00  0.00    +0.000 A 
ATOM      5  C   UNL     1       1.112   9.517  19.054  0.00  0.00    +0.000 A 
ATOM      6  C   UNL     1       1.866   8.777  18.126  0.00  0.00    +0.000 A 
ATOM      7  C   UNL     1       2.495   7.543  18.440  0.00  0.00    +0.000 A 
BRANCH   2   9
ATOM      8  C   UNL     1       2.081   4.923  20.777  0.00  0.00    +0.000 C 
ATOM      9  O   UNL     1       2.963   5.889  20.172  0.00  0.00    +0.000 OA
ENDBRANCH   2   9
BRANCH   7  10
ATOM     10  O   UNL     1       3.228   7.147  17.363  0.00  0.00    +0.000 OA
BRANCH  10  11
ATOM     11  C   UNL     1       4.302   6.231  17.245  0.00  0.00    +0.000 C 
ATOM     12  C   UNL     1       3.882   4.771  17.250  0.00  0.00    +0.000 C 
ATOM     13  C   UNL     1       4.871   4.032  16.367  0.00  0.00    +0.000 C 
ATOM     14  C   UNL     1       5.740   5.067  15.665  0.00  0.00    +0.000 C 
ATOM     15  C   UNL     1       5.363   6.447  16.188  0.00  0.00    +0.000 C 
ENDBRANCH  10  11
ENDBRANCH   7  10
ENDBRANCH   1   5
BRANCH   1  16
ATOM     16  C   UNL     1      -0.858  10.970  18.389  0.00  0.00    +0.000 A 
ATOM     17  C   UNL     1      -1.465   9.989  17.584  0.00  0.00    +0.000 A 
ATOM     18  C   UNL     1      -2.844   9.982  17.411  0.00  0.00    +0.000 A 
ATOM     19  C   UNL     1      -3.639  10.939  18.052  0.00  0.00    +0.000 A 
ATOM     20  C   UNL     1      -3.061  11.944  18.828  0.00  0.00    +0.000 A 
ATOM     21  C   UNL     1      -1.662  11.986  18.941  0.00  0.00    +0.000 A 
BRANCH  20  22
ATOM     22  N   UNL     1      -3.819  12.867  19.578  0.00  0.00    +0.000 N 
ATOM     23  C   UNL     1      -3.737  13.014  20.938  0.00  0.00    +0.000 C 
ATOM     24  O   UNL     1      -3.162  12.280  21.709  0.00  0.00    +0.000 OA
ATOM     25  N   UNL     1      -4.347  14.181  21.390  0.00  0.00    +0.000 N 
ATOM     26  H   UNL     1      -4.464  13.456  19.072  0.00  0.00    +0.000 HD
ATOM     27  H   UNL     1      -5.084  14.583  20.829  0.00  0.00    +0.000 HD
BRANCH  25  28
ATOM     28  C   UNL     1      -4.348  14.448  22.827  0.00  0.00    +0.000 C 
ATOM     29  C   UNL     1      -3.912  15.864  23.123  0.00  0.00    +0.000 C 
ATOM     30  C   UNL     1      -5.716  14.131  23.422  0.00  0.00    +0.000 C 
ENDBRANCH  25  28
ENDBRANCH  20  22
ENDBRANCH   1  16
BRANCH   1  31
ATOM     31  C   UNL     1       1.031  11.859  19.955  0.00  0.00    +0.000 C 
BRANCH  31  32
ATOM     32  C   UNL     1       2.086  12.931  19.747  0.00  0.00    +0.000 A 
ATOM     33  C   UNL     1       2.535  13.792  20.750  0.00  0.00    +0.000 A 
ATOM     34  C   UNL     1       3.384  14.837  20.412  0.00  0.00    +0.000 A 
ATOM     35  N   UNL     1       3.853  15.059  19.166  0.00  0.00    +0.000 NA
ATOM     36  C   UNL     1       3.466  14.182  18.219  0.00  0.00    +0.000 A 
ATOM     37  C   UNL     1       2.599  13.123  18.455  0.00  0.00    +0.000 A 
ENDBRANCH  31  32
ENDBRANCH   1  31
TORSDOF 9
ENDMDL
