MODEL 1
REMARK VINA RESULT:      -7.9      0.000      0.000
REMARK  Name = 
REMARK  3 active torsions:
REMARK  status: ('A' for Active; 'I' for Inactive)
REMARK    1  A    between atoms: C_1  and  C_2
REMARK    2  A    between atoms: N_6  and  C_7
REMARK    3  A    between atoms: C_7  and  C_8
REMARK                            x       y       z     vdW  Elec       q    Type
REMARK                         _______ _______ _______ _____ _____    ______ ____
ROOT
ATOM      1  C   UNL     1       3.036   5.141  18.689  0.00  0.00    +0.000 C 
ATOM      2  C   UNL     1       1.912   4.344  17.922  0.00  0.00    +0.000 C 
ATOM      3  C   UNL     1       1.926   2.813  17.973  0.00  0.00    +0.000 C 
ATOM      4  C   UNL     1       2.115   2.255  19.371  0.00  0.00    +0.000 C 
ATOM      5  C   UNL     1       3.246   2.921  20.130  0.00  0.00    +0.000 C 
ATOM      6  C   UNL     1       3.167   4.448  20.096  0.00  0.00    +0.000 C 
ENDROOT
BRANCH   1  12
ATOM      7  C   UNL     1       5.792   5.370  15.058  0.00  0.00    +0.000 C 
ATOM      8  C   UNL     1       5.889   4.273  16.119  0.00  0.00    +0.000 C 
ATOM      9  C   UNL     1       7.080   4.468  17.052  0.00  0.00    +0.000 C 
ATOM     10  C   UNL     1       6.842   5.662  17.957  0.00  0.00    +0.000 C 
ATOM     11  C   UNL     1       5.519   5.535  18.719  0.00  0.00    +0.000 C 
ATOM     12  N   UNL     1       4.329   5.239  17.895  0.00  0.00    +0.000 NA
ATOM     13  C   UNL     1       4.590   4.157  16.940  0.00  0.00    +0.000 C 
ENDBRANCH   1  12
BRANCH   1  14
ATOM     14  C   UNL     1       2.493   6.614  18.908  0.00  0.00    +0.000 A 
ATOM     15  C   UNL     1       1.987   7.045  20.149  0.00  0.00    +0.000 A 
ATOM     16  C   UNL     1       1.475   8.336  20.324  0.00  0.00    +0.000 A 
ATOM     17  C   UNL     1       1.415   9.221  19.254  0.00  0.00    +0.000 A 
ATOM     18  C   UNL     1       1.892   8.823  18.011  0.00  0.00    +0.000 A 
ATOM     19  C   UNL     1       2.438   7.546  17.846  0.00  0.00    +0.000 A 
ENDBRANCH   1  14
TORSDOF 2
ENDMDL
MODEL 2
REMARK VINA RESULT:      -7.9      0.156      1.112
REMARK  Name = 
REMARK  3 active torsions:
REMARK  status: ('A' for Active; 'I' for Inactive)
REMARK    1  A    between atoms: C_1  and  C_2
REMARK    2  A    between atoms: N_6  and  C_7
REMARK    3  A    between atoms: C_7  and  C_8
REMARK                            x       y       z     vdW  Elec       q    Type
REMARK                         _______ _______ _______ _____ _____    ______ ____
ROOT
ATOM      1  C   UNL     1       3.097   5.018  18.633  0.00  0.00    +0.000 C 
ATOM      2  C   UNL     1       2.020   4.183  17.839  0.00  0.00    +0.000 C 
ATOM      3  C   UNL     1       2.090   2.654  17.886  0.00  0.00    +0.000 C 
ATOM      4  C   UNL     1       2.269   2.098  19.288  0.00  0.00    +0.000 C 
ATOM      5  C   UNL     1       3.358   2.803  20.072  0.00  0.00    +0.000 C 
ATOM      6  C   UNL     1       3.223   4.327  20.041  0.00  0.00    +0.000 C 
ENDROOT
BRANCH   1  12
ATOM      7  C   UNL     1       5.920   5.361  15.063  0.00  0.00    +0.000 C 
ATOM      8  C   UNL     1       6.035   4.266  16.124  0.00  0.00    +0.000 C 
ATOM      9  C   UNL     1       7.198   4.502  17.082  0.00  0.00    +0.000 C 
ATOM     10  C   UNL     1       6.896   5.682  17.985  0.00  0.00    +0.000 C 
ATOM     11  C   UNL     1       5.563   5.504  18.717  0.00  0.00    +0.000 C 
ATOM     12  N   UNL     1       4.402   5.167  17.868  0.00  0.00    +0.000 NA
ATOM     13  C   UNL     1       4.724   4.099  16.915  0.00  0.00    +0.000 C 
ENDBRANCH   1  12
BRANCH   1  14
ATOM     14  C   UNL     1       2.496   6.470  18.844  0.00  0.00    +0.000 A 
ATOM     15  C   UNL     1       2.463   7.421  17.806  0.00  0.00    +0.000 A 
ATOM     16  C   UNL     1       1.966   8.713  18.010  0.00  0.00    +0.000 A 
ATOM     17  C   UNL     1       1.524   9.107  19.268  0.00  0.00    +0.000 A 
ATOM     18  C   UNL     1       1.557   8.199  20.319  0.00  0.00    +0.000 A 
ATOM     19  C   UNL     1       2.020   6.896  20.105  0.00  0.00    +0.000 A 
ENDBRANCH   1  14
TORSDOF 2
ENDMDL
MODEL 3
REMARK VINA RESULT:      -7.6      1.027      4.057
REMARK  Name = 
REMARK  3 active torsions:
REMARK  status: ('A' for Active; 'I' for Inactive)
REMARK    1  A    between atoms: C_1  and  C_2
REMARK    2  A    between atoms: N_6  and  C_7
REMARK    3  A    between atoms: C_7  and  C_8
REMARK                            x       y       z     vdW  Elec       q    Type
REMARK                         _______ _______ _______ _____ _____    ______ ____
ROOT
ATOM      1  C   UNL     1       3.578   5.688  18.554  0.00  0.00    +0.000 C 
ATOM      2  C   UNL     1       4.937   5.816  19.345  0.00  0.00    +0.000 C 
ATOM      3  C   UNL     1       6.093   4.878  18.983  0.00  0.00    +0.000 C 
ATOM      4  C   UNL     1       6.351   4.782  17.490  0.00  0.00    +0.000 C 
ATOM      5  C   UNL     1       5.088   4.567  16.681  0.00  0.00    +0.000 C 
ATOM      6  C   UNL     1       3.976   5.555  17.038  0.00  0.00    +0.000 C 
ENDROOT
BRANCH   1  12
ATOM      7  C   UNL     1       1.601   2.911  21.589  0.00  0.00    +0.000 C 
ATOM      8  C   UNL     1       2.459   2.411  20.427  0.00  0.00    +0.000 C 
ATOM      9  C   UNL     1       1.624   1.802  19.306  0.00  0.00    +0.000 C 
ATOM     10  C   UNL     1       0.849   2.888  18.585  0.00  0.00    +0.000 C 
ATOM     11  C   UNL     1       1.773   4.001  18.084  0.00  0.00    +0.000 C 
ATOM     12  N   UNL     1       2.693   4.573  19.089  0.00  0.00    +0.000 NA
ATOM     13  C   UNL     1       3.363   3.525  19.865  0.00  0.00    +0.000 C 
ENDBRANCH   1  12
BRANCH   1  14
ATOM     14  C   UNL     1       2.799   7.055  18.746  0.00  0.00    +0.000 A 
ATOM     15  C   UNL     1       2.102   7.355  19.932  0.00  0.00    +0.000 A 
ATOM     16  C   UNL     1       1.385   8.547  20.080  0.00  0.00    +0.000 A 
ATOM     17  C   UNL     1       1.308   9.458  19.032  0.00  0.00    +0.000 A 
ATOM     18  C   UNL     1       1.970   9.186  17.842  0.00  0.00    +0.000 A 
ATOM     19  C   UNL     1       2.717   8.011  17.708  0.00  0.00    +0.000 A 
ENDBRANCH   1  14
TORSDOF 2
ENDMDL
MODEL 4
REMARK VINA RESULT:      -7.5      1.031      4.204
REMARK  Name = 
REMARK  3 active torsions:
REMARK  status: ('A' for Active; 'I' for Inactive)
REMARK    1  A    between atoms: C_1  and  C_2
REMARK    2  A    between atoms: N_6  and  C_7
REMARK    3  A    between atoms: C_7  and  C_8
REMARK                            x       y       z     vdW  Elec       q    Type
REMARK                         _______ _______ _______ _____ _____    ______ ____
ROOT
ATOM      1  C   UNL     1       3.537   5.695  18.552  0.00  0.00    +0.000 C 
ATOM      2  C   UNL     1       4.878   5.868  19.363  0.00  0.00    +0.000 C 
ATOM      3  C   UNL     1       6.063   4.954  19.035  0.00  0.00    +0.000 C 
ATOM      4  C   UNL     1       6.349   4.842  17.549  0.00  0.00    +0.000 C 
ATOM      5  C   UNL     1       5.106   4.584  16.722  0.00  0.00    +0.000 C 
ATOM      6  C   UNL     1       3.964   5.549  17.044  0.00  0.00    +0.000 C 
ENDROOT
BRANCH   1  12
ATOM      7  C   UNL     1       1.604   2.893  21.592  0.00  0.00    +0.000 C 
ATOM      8  C   UNL     1       2.472   2.405  20.432  0.00  0.00    +0.000 C 
ATOM      9  C   UNL     1       1.648   1.778  19.312  0.00  0.00    +0.000 C 
ATOM     10  C   UNL     1       0.856   2.849  18.587  0.00  0.00    +0.000 C 
ATOM     11  C   UNL     1       1.762   3.976  18.085  0.00  0.00    +0.000 C 
ATOM     12  N   UNL     1       2.670   4.567  19.089  0.00  0.00    +0.000 NA
ATOM     13  C   UNL     1       3.357   3.532  19.869  0.00  0.00    +0.000 C 
ENDBRANCH   1  12
BRANCH   1  14
ATOM     14  C   UNL     1       2.721   7.045  18.710  0.00  0.00    +0.000 A 
ATOM     15  C   UNL     1       2.666   8.007  17.683  0.00  0.00    +0.000 A 
ATOM     16  C   UNL     1       1.975   9.213  17.844  0.00  0.00    +0.000 A 
ATOM     17  C   UNL     1       1.353   9.513  19.051  0.00  0.00    +0.000 A 
ATOM     18  C   UNL     1       1.401   8.593  20.091  0.00  0.00    +0.000 A 
ATOM     19  C   UNL     1       2.060   7.371  19.917  0.00  0.00    +0.000 A 
ENDBRANCH   1  14
TORSDOF 2
ENDMDL
MODEL 5
REMARK VINA RESULT:      -7.5      1.036      1.204
REMARK  Name = 
REMARK  3 active torsions:
REMARK  status: ('A' for Active; 'I' for Inactive)
REMARK    1  A    between atoms: C_1  and  C_2
REMARK    2  A    between atoms: N_6  and  C_7
REMARK    3  A    between atoms: C_7  and  C_8
REMARK                            x       y       z     vdW  Elec       q    Type
REMARK                         _______ _______ _______ _____ _____    ______ ____
ROOT
ATOM      1  C   UNL     1       2.890   5.752  18.985  0.00  0.00    +0.000 C 
ATOM      2  C   UNL     1       2.106   4.992  17.847  0.00  0.00    +0.000 C 
ATOM      3  C   UNL     1       2.120   3.460  17.837  0.00  0.00    +0.000 C 
ATOM      4  C   UNL     1       1.825   2.843  19.192  0.00  0.00    +0.000 C 
ATOM      5  C   UNL     1       2.620   3.474  20.319  0.00  0.00    +0.000 C 
ATOM      6  C   UNL     1       2.539   5.001  20.322  0.00  0.00    +0.000 C 
ENDROOT
BRANCH   1  12
ATOM      7  C   UNL     1       6.745   7.441  17.219  0.00  0.00    +0.000 C 
ATOM      8  C   UNL     1       6.264   6.011  16.974  0.00  0.00    +0.000 C 
ATOM      9  C   UNL     1       7.063   4.983  17.768  0.00  0.00    +0.000 C 
ATOM     10  C   UNL     1       6.737   5.098  19.244  0.00  0.00    +0.000 C 
ATOM     11  C   UNL     1       5.230   4.989  19.498  0.00  0.00    +0.000 C 
ATOM     12  N   UNL     1       4.376   5.880  18.687  0.00  0.00    +0.000 NA
ATOM     13  C   UNL     1       4.761   5.855  17.272  0.00  0.00    +0.000 C 
ENDBRANCH   1  12
BRANCH   1  14
ATOM     14  C   UNL     1       2.288   7.217  19.063  0.00  0.00    +0.000 A 
ATOM     15  C   UNL     1       1.731   7.731  20.250  0.00  0.00    +0.000 A 
ATOM     16  C   UNL     1       1.168   9.011  20.302  0.00  0.00    +0.000 A 
ATOM     17  C   UNL     1       1.107   9.800  19.159  0.00  0.00    +0.000 A 
ATOM     18  C   UNL     1       1.632   9.318  17.967  0.00  0.00    +0.000 A 
ATOM     19  C   UNL     1       2.229   8.053  17.925  0.00  0.00    +0.000 A 
ENDBRANCH   1  14
TORSDOF 2
ENDMDL
MODEL 6
REMARK VINA RESULT:      -7.4      1.107      3.928
REMARK  Name = 
REMARK  3 active torsions:
REMARK  status: ('A' for Active; 'I' for Inactive)
REMARK    1  A    between atoms: C_1  and  C_2
REMARK    2  A    between atoms: N_6  and  C_7
REMARK    3  A    between atoms: C_7  and  C_8
REMARK                            x       y       z     vdW  Elec       q    Type
REMARK                         _______ _______ _______ _____ _____    ______ ____
ROOT
ATOM      1  C   UNL     1       4.394   5.675  17.916  0.00  0.00    +0.000 C 
ATOM      2  C   UNL     1       5.787   5.980  18.589  0.00  0.00    +0.000 C 
ATOM      3  C   UNL     1       7.046   5.324  18.012  0.00  0.00    +0.000 C 
ATOM      4  C   UNL     1       7.147   5.432  16.501  0.00  0.00    +0.000 C 
ATOM      5  C   UNL     1       5.861   5.062  15.790  0.00  0.00    +0.000 C 
ATOM      6  C   UNL     1       4.637   5.777  16.364  0.00  0.00    +0.000 C 
ENDROOT
BRANCH   1  12
ATOM      7  C   UNL     1       2.887   2.486  20.812  0.00  0.00    +0.000 C 
ATOM      8  C   UNL     1       3.993   2.235  19.786  0.00  0.00    +0.000 C 
ATOM      9  C   UNL     1       3.510   1.405  18.601  0.00  0.00    +0.000 C 
ATOM     10  C   UNL     1       2.564   2.224  17.744  0.00  0.00    +0.000 C 
ATOM     11  C   UNL     1       3.202   3.546  17.308  0.00  0.00    +0.000 C 
ATOM     12  N   UNL     1       3.790   4.363  18.390  0.00  0.00    +0.000 NA
ATOM     13  C   UNL     1       4.618   3.552  19.288  0.00  0.00    +0.000 C 
ENDBRANCH   1  12
BRANCH   1  14
ATOM     14  C   UNL     1       3.408   6.840  18.343  0.00  0.00    +0.000 A 
ATOM     15  C   UNL     1       2.700   6.809  19.560  0.00  0.00    +0.000 A 
ATOM     16  C   UNL     1       1.802   7.822  19.913  0.00  0.00    +0.000 A 
ATOM     17  C   UNL     1       1.553   8.877  19.042  0.00  0.00    +0.000 A 
ATOM     18  C   UNL     1       2.222   8.931  17.826  0.00  0.00    +0.000 A 
ATOM     19  C   UNL     1       3.147   7.937  17.490  0.00  0.00    +0.000 A 
ENDBRANCH   1  14
TORSDOF 2
ENDMDL
MODEL 7
REMARK VINA RESULT:      -7.4      1.101      4.062
REMARK  Name = 
REMARK  3 active torsions:
REMARK  status: ('A' for Active; 'I' for Inactive)
REMARK    1  A    between atoms: C_1  and  C_2
REMARK    2  A    between atoms: N_6  and  C_7
REMARK    3  A    between atoms: C_7  and  C_8
REMARK                            x       y       z     vdW  Elec       q    Type
REMARK                         _______ _______ _______ _____ _____    ______ ____
ROOT
ATOM      1  C   UNL     1       4.314   5.701  17.926  0.00  0.00    +0.000 C 
ATOM      2  C   UNL     1       5.679   6.045  18.637  0.00  0.00    +0.000 C 
ATOM      3  C   UNL     1       6.970   5.420  18.099  0.00  0.00    +0.000 C 
ATOM      4  C   UNL     1       7.111   5.525  16.591  0.00  0.00    +0.000 C 
ATOM      5  C   UNL     1       5.855   5.118  15.846  0.00  0.00    +0.000 C 
ATOM      6  C   UNL     1       4.597   5.803  16.382  0.00  0.00    +0.000 C 
ENDROOT
BRANCH   1  12
ATOM      7  C   UNL     1       2.822   2.481  20.796  0.00  0.00    +0.000 C 
ATOM      8  C   UNL     1       3.954   2.254  19.793  0.00  0.00    +0.000 C 
ATOM      9  C   UNL     1       3.516   1.412  18.600  0.00  0.00    +0.000 C 
ATOM     10  C   UNL     1       2.569   2.207  17.721  0.00  0.00    +0.000 C 
ATOM     11  C   UNL     1       3.185   3.544  17.298  0.00  0.00    +0.000 C 
ATOM     12  N   UNL     1       3.730   4.376  18.390  0.00  0.00    +0.000 NA
ATOM     13  C   UNL     1       4.559   3.585  19.306  0.00  0.00    +0.000 C 
ENDBRANCH   1  12
BRANCH   1  14
ATOM     14  C   UNL     1       3.285   6.842  18.320  0.00  0.00    +0.000 A 
ATOM     15  C   UNL     1       3.038   7.945  17.481  0.00  0.00    +0.000 A 
ATOM     16  C   UNL     1       2.157   8.967  17.852  0.00  0.00    +0.000 A 
ATOM     17  C   UNL     1       1.528   8.939  19.092  0.00  0.00    +0.000 A 
ATOM     18  C   UNL     1       1.762   7.873  19.952  0.00  0.00    +0.000 A 
ATOM     19  C   UNL     1       2.614   6.833  19.565  0.00  0.00    +0.000 A 
ENDBRANCH   1  14
TORSDOF 2
ENDMDL
MODEL 8
REMARK VINA RESULT:      -7.3      1.000      1.605
REMARK  Name = 
REMARK  3 active torsions:
REMARK  status: ('A' for Active; 'I' for Inactive)
REMARK    1  A    between atoms: C_1  and  C_2
REMARK    2  A    between atoms: N_6  and  C_7
REMARK    3  A    between atoms: C_7  and  C_8
REMARK                            x       y       z     vdW  Elec       q    Type
REMARK                         _______ _______ _______ _____ _____    ______ ____
ROOT
ATOM      1  C   UNL     1       2.993   5.666  18.931  0.00  0.00    +0.000 C 
ATOM      2  C   UNL     1       2.264   4.879  17.776  0.00  0.00    +0.000 C 
ATOM      3  C   UNL     1       2.352   3.349  17.754  0.00  0.00    +0.000 C 
ATOM      4  C   UNL     1       2.067   2.707  19.100  0.00  0.00    +0.000 C 
ATOM      5  C   UNL     1       2.814   3.365  20.243  0.00  0.00    +0.000 C 
ATOM      6  C   UNL     1       2.660   4.887  20.257  0.00  0.00    +0.000 C 
ENDROOT
BRANCH   1  12
ATOM      7  C   UNL     1       6.782   7.504  17.170  0.00  0.00    +0.000 C 
ATOM      8  C   UNL     1       6.389   6.039  16.974  0.00  0.00    +0.000 C 
ATOM      9  C   UNL     1       7.228   5.092  17.824  0.00  0.00    +0.000 C 
ATOM     10  C   UNL     1       6.865   5.246  19.288  0.00  0.00    +0.000 C 
ATOM     11  C   UNL     1       5.362   5.060  19.518  0.00  0.00    +0.000 C 
ATOM     12  N   UNL     1       4.475   5.868  18.656  0.00  0.00    +0.000 NA
ATOM     13  C   UNL     1       4.891   5.809  17.251  0.00  0.00    +0.000 C 
ENDBRANCH   1  12
BRANCH   1  14
ATOM     14  C   UNL     1       2.321   7.099  19.012  0.00  0.00    +0.000 A 
ATOM     15  C   UNL     1       2.273   7.964  17.903  0.00  0.00    +0.000 A 
ATOM     16  C   UNL     1       1.711   9.243  17.993  0.00  0.00    +0.000 A 
ATOM     17  C   UNL     1       1.217   9.711  19.205  0.00  0.00    +0.000 A 
ATOM     18  C   UNL     1       1.263   8.890  20.324  0.00  0.00    +0.000 A 
ATOM     19  C   UNL     1       1.791   7.598  20.225  0.00  0.00    +0.000 A 
ENDBRANCH   1  14
TORSDOF 2
ENDMDL
MODEL 9
REMARK VINA RESULT:      -7.2      0.595      1.521
REMARK  Name = 
REMARK  3 active torsions:
REMARK  status: ('A' for Active; 'I' for Inactive)
REMARK    1  A    between atoms: C_1  and  C_2
REMARK    2  A    between atoms: N_6  and  C_7
REMARK    3  A    between atoms: C_7  and  C_8
REMARK                            x       y       z     vdW  Elec       q    Type
REMARK                         _______ _______ _______ _____ _____    ______ ____
ROOT
ATOM      1  C   UNL     1       3.042   4.860  18.765  0.00  0.00    +0.000 C 
ATOM      2  C   UNL     1       1.983   4.106  17.873  0.00  0.00    +0.000 C 
ATOM      3  C   UNL     1       1.910   2.578  17.947  0.00  0.00    +0.000 C 
ATOM      4  C   UNL     1       1.892   2.040  19.366  0.00  0.00    +0.000 C 
ATOM      5  C   UNL     1       2.951   2.664  20.252  0.00  0.00    +0.000 C 
ATOM      6  C   UNL     1       2.958   4.192  20.187  0.00  0.00    +0.000 C 
ENDROOT
BRANCH   1  12
ATOM      7  C   UNL     1       7.587   5.188  18.506  0.00  0.00    +0.000 C 
ATOM      8  C   UNL     1       6.633   6.098  17.731  0.00  0.00    +0.000 C 
ATOM      9  C   UNL     1       6.562   5.741  16.250  0.00  0.00    +0.000 C 
ATOM     10  C   UNL     1       5.839   4.421  16.067  0.00  0.00    +0.000 C 
ATOM     11  C   UNL     1       4.459   4.438  16.731  0.00  0.00    +0.000 C 
ATOM     12  N   UNL     1       4.429   4.876  18.141  0.00  0.00    +0.000 NA
ATOM     13  C   UNL     1       5.220   6.095  18.343  0.00  0.00    +0.000 C 
ENDBRANCH   1  12
BRANCH   1  14
ATOM     14  C   UNL     1       2.555   6.364  18.892  0.00  0.00    +0.000 A 
ATOM     15  C   UNL     1       2.136   6.911  20.119  0.00  0.00    +0.000 A 
ATOM     16  C   UNL     1       1.672   8.227  20.216  0.00  0.00    +0.000 A 
ATOM     17  C   UNL     1       1.573   9.024  19.081  0.00  0.00    +0.000 A 
ATOM     18  C   UNL     1       1.964   8.512  17.851  0.00  0.00    +0.000 A 
ATOM     19  C   UNL     1       2.462   7.208  17.761  0.00  0.00    +0.000 A 
ENDBRANCH   1  14
TORSDOF 2
ENDMDL
