MODEL 1
REMARK VINA RESULT:      -8.1      0.000      0.000
REMARK  Name = 
REMARK  14 active torsions:
REMARK  status: ('A' for Active; 'I' for Inactive)
REMARK    1  A    between atoms: C_1  and  O_2
REMARK    2  A    between atoms: O_2  and  C_3
REMARK    3  A    between atoms: C_6  and  C_7
REMARK    4  A    between atoms: C_7  and  N_8
REMARK    5  A    between atoms: N_11  and  C_12
REMARK    6  A    between atoms: C_14  and  C_15
REMARK    7  A    between atoms: C_19  and  C_20
REMARK    8  A    between atoms: C_20  and  O_21
REMARK    9  A    between atoms: C_20  and  C_22
REMARK   10  A    between atoms: C_22  and  O_23
REMARK   11  A    between atoms: C_22  and  C_24
REMARK   12  A    between atoms: C_24  and  O_25
REMARK   13  A    between atoms: C_26  and  N_27
REMARK   14  A    between atoms: C_28  and  C_29
REMARK                            x       y       z     vdW  Elec       q    Type
REMARK                         _______ _______ _______ _____ _____    ______ ____
ROOT
ATOM      1  C   UNL     1       3.797   6.516  18.043  0.00  0.00    +0.000 C 
ATOM      2  C   UNL     1       2.873   5.382  18.369  0.00  0.00    +0.000 C 
ATOM      3  C   UNL     1       2.960   4.172  17.791  0.00  0.00    +0.000 C 
ATOM      4  O   UNL     1       3.965   3.857  16.893  0.00  0.00    +0.000 OA
ATOM      5  C   UNL     1       5.165   4.627  17.075  0.00  0.00    +0.000 C 
ATOM      6  C   UNL     1       4.833   6.131  16.935  0.00  0.00    +0.000 C 
ENDROOT
BRANCH   1  10
ATOM      7  N   UNL     1       1.494   9.355  17.897  0.00  0.00    +0.000 N 
ATOM      8  C   UNL     1       2.175   8.351  18.528  0.00  0.00    +0.000 C 
ATOM      9  O   UNL     1       2.133   8.171  19.738  0.00  0.00    +0.000 OA
ATOM     10  N   UNL     1       2.938   7.637  17.649  0.00  0.00    +0.000 N 
ATOM     11  H   UNL     1       1.814   9.600  16.973  0.00  0.00    +0.000 HD
ATOM     12  H   UNL     1       2.607   7.610  16.696  0.00  0.00    +0.000 HD
BRANCH   7  13
ATOM     13  C   UNL     1       0.739  10.335  18.642  0.00  0.00    +0.000 C 
BRANCH  13  17
ATOM     14  C   UNL     1      -3.353  10.879  17.323  0.00  0.00    +0.000 A 
ATOM     15  C   UNL     1      -2.571   9.873  16.759  0.00  0.00    +0.000 A 
ATOM     16  C   UNL     1      -1.257   9.674  17.190  0.00  0.00    +0.000 A 
ATOM     17  C   UNL     1      -0.695  10.483  18.186  0.00  0.00    +0.000 A 
ATOM     18  C   UNL     1      -1.502  11.464  18.778  0.00  0.00    +0.000 A 
ATOM     19  C   UNL     1      -2.817  11.664  18.345  0.00  0.00    +0.000 A 
BRANCH  14  21
ATOM     20  C   UNL     1      -5.625  11.095  17.937  0.00  0.00    +0.000 C 
ATOM     21  O   UNL     1      -4.622  11.212  16.930  0.00  0.00    +0.000 OA
ENDBRANCH  14  21
ENDBRANCH  13  17
ENDBRANCH   7  13
ENDBRANCH   1  10
BRANCH   6  22
ATOM     22  N   UNL     1       5.986   7.044  16.935  0.00  0.00    +0.000 N 
ATOM     23  C   UNL     1       6.966   7.011  17.897  0.00  0.00    +0.000 C 
ATOM     24  C   UNL     1       7.974   8.117  17.782  0.00  0.00    +0.000 C 
ATOM     25  O   UNL     1       7.064   6.127  18.741  0.00  0.00    +0.000 OA
ATOM     26  H   UNL     1       5.768   7.980  16.601  0.00  0.00    +0.000 HD
ENDBRANCH   6  22
BRANCH   3  27
ATOM     27  C   UNL     1       1.908   3.043  18.113  0.00  0.00    +0.000 C 
ATOM     28  O   UNL     1       1.056   3.333  19.000  0.00  0.00    +0.000 OA
ATOM     29  O   UNL     1       2.058   1.970  17.462  0.00  0.00    +0.000 OA
ENDBRANCH   3  27
BRANCH   5  30
ATOM     30  C   UNL     1       6.185   4.062  16.059  0.00  0.00    +0.000 C 
BRANCH  30  31
ATOM     31  O   UNL     1       5.941   2.698  15.661  0.00  0.00    +0.000 OA
ATOM     32  H   UNL     1       5.740   2.202  16.477  0.00  0.00    +0.000 HD
ENDBRANCH  30  31
BRANCH  30  33
ATOM     33  C   UNL     1       6.241   4.906  14.762  0.00  0.00    +0.000 C 
BRANCH  33  34
ATOM     34  O   UNL     1       7.480   5.658  14.755  0.00  0.00    +0.000 OA
ATOM     35  H   UNL     1       7.525   6.069  15.643  0.00  0.00    +0.000 HD
ENDBRANCH  33  34
BRANCH  33  36
ATOM     36  C   UNL     1       6.241   4.057  13.479  0.00  0.00    +0.000 C 
BRANCH  36  37
ATOM     37  O   UNL     1       4.900   3.811  13.045  0.00  0.00    +0.000 OA
ATOM     38  H   UNL     1       4.949   2.989  12.521  0.00  0.00    +0.000 HD
ENDBRANCH  36  37
ENDBRANCH  33  36
ENDBRANCH  30  33
ENDBRANCH   5  30
TORSDOF 12
ENDMDL
MODEL 2
REMARK VINA RESULT:      -7.8      2.271      3.214
REMARK  Name = 
REMARK  14 active torsions:
REMARK  status: ('A' for Active; 'I' for Inactive)
REMARK    1  A    between atoms: C_1  and  O_2
REMARK    2  A    between atoms: O_2  and  C_3
REMARK    3  A    between atoms: C_6  and  C_7
REMARK    4  A    between atoms: C_7  and  N_8
REMARK    5  A    between atoms: N_11  and  C_12
REMARK    6  A    between atoms: C_14  and  C_15
REMARK    7  A    between atoms: C_19  and  C_20
REMARK    8  A    between atoms: C_20  and  O_21
REMARK    9  A    between atoms: C_20  and  C_22
REMARK   10  A    between atoms: C_22  and  O_23
REMARK   11  A    between atoms: C_22  and  C_24
REMARK   12  A    between atoms: C_24  and  O_25
REMARK   13  A    between atoms: C_26  and  N_27
REMARK   14  A    between atoms: C_28  and  C_29
REMARK                            x       y       z     vdW  Elec       q    Type
REMARK                         _______ _______ _______ _____ _____    ______ ____
ROOT
ATOM      1  C   UNL     1       3.884   6.519  18.006  0.00  0.00    +0.000 C 
ATOM      2  C   UNL     1       2.988   5.366  18.343  0.00  0.00    +0.000 C 
ATOM      3  C   UNL     1       3.076   4.165  17.748  0.00  0.00    +0.000 C 
ATOM      4  O   UNL     1       4.059   3.878  16.816  0.00  0.00    +0.000 OA
ATOM      5  C   UNL     1       5.252   4.665  16.973  0.00  0.00    +0.000 C 
ATOM      6  C   UNL     1       4.893   6.165  16.863  0.00  0.00    +0.000 C 
ENDROOT
BRANCH   1  10
ATOM      7  N   UNL     1       1.463   9.263  17.952  0.00  0.00    +0.000 N 
ATOM      8  C   UNL     1       2.156   8.241  18.540  0.00  0.00    +0.000 C 
ATOM      9  O   UNL     1       2.060   7.964  19.729  0.00  0.00    +0.000 OA
ATOM     10  N   UNL     1       2.995   7.631  17.653  0.00  0.00    +0.000 N 
ATOM     11  H   UNL     1       1.819   9.593  17.068  0.00  0.00    +0.000 HD
ATOM     12  H   UNL     1       2.716   7.666  16.683  0.00  0.00    +0.000 HD
BRANCH   7  13
ATOM     13  C   UNL     1       0.626  10.148  18.727  0.00  0.00    +0.000 C 
BRANCH  13  17
ATOM     14  C   UNL     1       1.921  14.278  18.519  0.00  0.00    +0.000 A 
ATOM     15  C   UNL     1       0.671  13.970  19.051  0.00  0.00    +0.000 A 
ATOM     16  C   UNL     1       0.250  12.640  19.143  0.00  0.00    +0.000 A 
ATOM     17  C   UNL     1       1.066  11.594  18.695  0.00  0.00    +0.000 A 
ATOM     18  C   UNL     1       2.340  11.909  18.201  0.00  0.00    +0.000 A 
ATOM     19  C   UNL     1       2.760  13.240  18.108  0.00  0.00    +0.000 A 
BRANCH  14  21
ATOM     20  C   UNL     1       3.610  15.620  17.551  0.00  0.00    +0.000 C 
ATOM     21  O   UNL     1       2.406  15.542  18.313  0.00  0.00    +0.000 OA
ENDBRANCH  14  21
ENDBRANCH  13  17
ENDBRANCH   7  13
ENDBRANCH   1  10
BRANCH   6  22
ATOM     22  N   UNL     1       6.030   7.097  16.842  0.00  0.00    +0.000 N 
ATOM     23  C   UNL     1       7.024   7.085  17.789  0.00  0.00    +0.000 C 
ATOM     24  C   UNL     1       8.012   8.207  17.654  0.00  0.00    +0.000 C 
ATOM     25  O   UNL     1       7.148   6.208  18.637  0.00  0.00    +0.000 OA
ATOM     26  H   UNL     1       5.792   8.028  16.505  0.00  0.00    +0.000 HD
ENDBRANCH   6  22
BRANCH   3  27
ATOM     27  C   UNL     1       2.052   3.015  18.085  0.00  0.00    +0.000 C 
ATOM     28  O   UNL     1       2.567   1.923  18.455  0.00  0.00    +0.000 OA
ATOM     29  O   UNL     1       0.836   3.315  17.918  0.00  0.00    +0.000 OA
ENDBRANCH   3  27
BRANCH   5  30
ATOM     30  C   UNL     1       6.250   4.130  15.920  0.00  0.00    +0.000 C 
BRANCH  30  31
ATOM     31  O   UNL     1       6.085   2.736  15.592  0.00  0.00    +0.000 OA
ATOM     32  H   UNL     1       5.312   2.421  16.098  0.00  0.00    +0.000 HD
ENDBRANCH  30  31
BRANCH  30  33
ATOM     33  C   UNL     1       6.167   4.917  14.589  0.00  0.00    +0.000 C 
BRANCH  33  34
ATOM     34  O   UNL     1       7.501   5.359  14.231  0.00  0.00    +0.000 OA
ATOM     35  H   UNL     1       7.422   5.653  13.301  0.00  0.00    +0.000 HD
ENDBRANCH  33  34
BRANCH  33  36
ATOM     36  C   UNL     1       5.658   4.071  13.408  0.00  0.00    +0.000 C 
BRANCH  36  37
ATOM     37  O   UNL     1       6.710   3.247  12.898  0.00  0.00    +0.000 OA
ATOM     38  H   UNL     1       7.493   3.829  12.859  0.00  0.00    +0.000 HD
ENDBRANCH  36  37
ENDBRANCH  33  36
ENDBRANCH  30  33
ENDBRANCH   5  30
TORSDOF 12
ENDMDL
MODEL 3
REMARK VINA RESULT:      -7.8      2.789      3.208
REMARK  Name = 
REMARK  14 active torsions:
REMARK  status: ('A' for Active; 'I' for Inactive)
REMARK    1  A    between atoms: C_1  and  O_2
REMARK    2  A    between atoms: O_2  and  C_3
REMARK    3  A    between atoms: C_6  and  C_7
REMARK    4  A    between atoms: C_7  and  N_8
REMARK    5  A    between atoms: N_11  and  C_12
REMARK    6  A    between atoms: C_14  and  C_15
REMARK    7  A    between atoms: C_19  and  C_20
REMARK    8  A    between atoms: C_20  and  O_21
REMARK    9  A    between atoms: C_20  and  C_22
REMARK   10  A    between atoms: C_22  and  O_23
REMARK   11  A    between atoms: C_22  and  C_24
REMARK   12  A    between atoms: C_24  and  O_25
REMARK   13  A    between atoms: C_26  and  N_27
REMARK   14  A    between atoms: C_28  and  C_29
REMARK                            x       y       z     vdW  Elec       q    Type
REMARK                         _______ _______ _______ _____ _____    ______ ____
ROOT
ATOM      1  C   UNL     1       4.861   5.393  19.009  0.00  0.00    +0.000 C 
ATOM      2  C   UNL     1       4.266   4.017  18.987  0.00  0.00    +0.000 C 
ATOM      3  C   UNL     1       3.886   3.397  17.858  0.00  0.00    +0.000 C 
ATOM      4  O   UNL     1       4.082   3.960  16.608  0.00  0.00    +0.000 OA
ATOM      5  C   UNL     1       5.183   4.883  16.557  0.00  0.00    +0.000 C 
ATOM      6  C   UNL     1       4.944   6.020  17.577  0.00  0.00    +0.000 C 
ENDROOT
BRANCH   1  10
ATOM      7  N   UNL     1       2.166   7.173  20.728  0.00  0.00    +0.000 N 
ATOM      8  C   UNL     1       2.705   6.443  19.706  0.00  0.00    +0.000 C 
ATOM      9  O   UNL     1       2.051   6.039  18.754  0.00  0.00    +0.000 OA
ATOM     10  N   UNL     1       4.027   6.179  19.924  0.00  0.00    +0.000 N 
ATOM     11  H   UNL     1       2.698   7.204  21.584  0.00  0.00    +0.000 HD
ATOM     12  H   UNL     1       4.525   6.852  20.488  0.00  0.00    +0.000 HD
BRANCH   7  13
ATOM     13  C   UNL     1       0.749   7.445  20.792  0.00  0.00    +0.000 C 
BRANCH  13  17
ATOM     14  C   UNL     1      -0.263  11.440  22.130  0.00  0.00    +0.000 A 
ATOM     15  C   UNL     1      -0.629  10.339  22.901  0.00  0.00    +0.000 A 
ATOM     16  C   UNL     1      -0.290   9.046  22.490  0.00  0.00    +0.000 A 
ATOM     17  C   UNL     1       0.411   8.829  21.298  0.00  0.00    +0.000 A 
ATOM     18  C   UNL     1       0.812   9.945  20.550  0.00  0.00    +0.000 A 
ATOM     19  C   UNL     1       0.472  11.239  20.960  0.00  0.00    +0.000 A 
BRANCH  14  21
ATOM     20  C   UNL     1      -1.429  13.369  21.415  0.00  0.00    +0.000 C 
ATOM     21  O   UNL     1      -0.603  12.740  22.394  0.00  0.00    +0.000 OA
ENDBRANCH  14  21
ENDBRANCH  13  17
ENDBRANCH   7  13
ENDBRANCH   1  10
BRANCH   6  22
ATOM     22  N   UNL     1       5.905   7.134  17.533  0.00  0.00    +0.000 N 
ATOM     23  C   UNL     1       7.236   6.984  17.835  0.00  0.00    +0.000 C 
ATOM     24  C   UNL     1       8.006   8.273  17.859  0.00  0.00    +0.000 C 
ATOM     25  O   UNL     1       7.779   5.899  18.008  0.00  0.00    +0.000 OA
ATOM     26  H   UNL     1       5.513   8.026  17.826  0.00  0.00    +0.000 HD
ENDBRANCH   6  22
BRANCH   3  27
ATOM     27  C   UNL     1       3.190   1.983  17.904  0.00  0.00    +0.000 C 
ATOM     28  O   UNL     1       3.893   1.048  18.381  0.00  0.00    +0.000 OA
ATOM     29  O   UNL     1       2.018   1.948  17.433  0.00  0.00    +0.000 OA
ENDBRANCH   3  27
BRANCH   5  30
ATOM     30  C   UNL     1       5.299   5.316  15.077  0.00  0.00    +0.000 C 
BRANCH  30  31
ATOM     31  O   UNL     1       5.213   6.739  14.860  0.00  0.00    +0.000 OA
ATOM     32  H   UNL     1       6.074   7.112  15.130  0.00  0.00    +0.000 HD
ENDBRANCH  30  31
BRANCH  30  33
ATOM     33  C   UNL     1       6.627   4.842  14.436  0.00  0.00    +0.000 C 
BRANCH  33  34
ATOM     34  O   UNL     1       7.568   4.541  15.496  0.00  0.00    +0.000 OA
ATOM     35  H   UNL     1       8.449   4.661  15.085  0.00  0.00    +0.000 HD
ENDBRANCH  33  34
BRANCH  33  36
ATOM     36  C   UNL     1       6.479   3.554  13.606  0.00  0.00    +0.000 C 
BRANCH  36  37
ATOM     37  O   UNL     1       6.442   3.863  12.210  0.00  0.00    +0.000 OA
ATOM     38  H   UNL     1       6.788   3.067  11.764  0.00  0.00    +0.000 HD
ENDBRANCH  36  37
ENDBRANCH  33  36
ENDBRANCH  30  33
ENDBRANCH   5  30
TORSDOF 12
ENDMDL
MODEL 4
REMARK VINA RESULT:      -7.8      2.267      3.469
REMARK  Name = 
REMARK  14 active torsions:
REMARK  status: ('A' for Active; 'I' for Inactive)
REMARK    1  A    between atoms: C_1  and  O_2
REMARK    2  A    between atoms: O_2  and  C_3
REMARK    3  A    between atoms: C_6  and  C_7
REMARK    4  A    between atoms: C_7  and  N_8
REMARK    5  A    between atoms: N_11  and  C_12
REMARK    6  A    between atoms: C_14  and  C_15
REMARK    7  A    between atoms: C_19  and  C_20
REMARK    8  A    between atoms: C_20  and  O_21
REMARK    9  A    between atoms: C_20  and  C_22
REMARK   10  A    between atoms: C_22  and  O_23
REMARK   11  A    between atoms: C_22  and  C_24
REMARK   12  A    between atoms: C_24  and  O_25
REMARK   13  A    between atoms: C_26  and  N_27
REMARK   14  A    between atoms: C_28  and  C_29
REMARK                            x       y       z     vdW  Elec       q    Type
REMARK                         _______ _______ _______ _____ _____    ______ ____
ROOT
ATOM      1  C   UNL     1       3.940   6.617  17.877  0.00  0.00    +0.000 C 
ATOM      2  C   UNL     1       3.000   5.491  18.184  0.00  0.00    +0.000 C 
ATOM      3  C   UNL     1       3.093   4.277  17.616  0.00  0.00    +0.000 C 
ATOM      4  O   UNL     1       4.120   3.950  16.746  0.00  0.00    +0.000 OA
ATOM      5  C   UNL     1       5.320   4.713  16.956  0.00  0.00    +0.000 C 
ATOM      6  C   UNL     1       5.002   6.218  16.799  0.00  0.00    +0.000 C 
ENDROOT
BRANCH   1  10
ATOM      7  N   UNL     1       1.581   9.403  17.634  0.00  0.00    +0.000 N 
ATOM      8  C   UNL     1       2.212   8.374  18.276  0.00  0.00    +0.000 C 
ATOM      9  O   UNL     1       2.029   8.110  19.457  0.00  0.00    +0.000 OA
ATOM     10  N   UNL     1       3.099   7.742  17.454  0.00  0.00    +0.000 N 
ATOM     11  H   UNL     1       2.003   9.719  16.774  0.00  0.00    +0.000 HD
ATOM     12  H   UNL     1       2.888   7.773  16.467  0.00  0.00    +0.000 HD
BRANCH   7  13
ATOM     13  C   UNL     1       0.709  10.310  18.342  0.00  0.00    +0.000 C 
BRANCH  13  17
ATOM     14  C   UNL     1       2.729  13.801  19.926  0.00  0.00    +0.000 A 
ATOM     15  C   UNL     1       2.942  13.419  18.603  0.00  0.00    +0.000 A 
ATOM     16  C   UNL     1       2.280  12.307  18.075  0.00  0.00    +0.000 A 
ATOM     17  C   UNL     1       1.402  11.550  18.860  0.00  0.00    +0.000 A 
ATOM     18  C   UNL     1       1.161  11.967  20.177  0.00  0.00    +0.000 A 
ATOM     19  C   UNL     1       1.824  13.080  20.706  0.00  0.00    +0.000 A 
BRANCH  14  21
ATOM     20  C   UNL     1       4.235  14.430  21.637  0.00  0.00    +0.000 C 
ATOM     21  O   UNL     1       3.374  14.824  20.569  0.00  0.00    +0.000 OA
ENDBRANCH  14  21
ENDBRANCH  13  17
ENDBRANCH   7  13
ENDBRANCH   1  10
BRANCH   6  22
ATOM     22  N   UNL     1       6.161   7.124  16.825  0.00  0.00    +0.000 N 
ATOM     23  C   UNL     1       7.100   7.107  17.827  0.00  0.00    +0.000 C 
ATOM     24  C   UNL     1       8.120   8.204  17.727  0.00  0.00    +0.000 C 
ATOM     25  O   UNL     1       7.156   6.244  18.696  0.00  0.00    +0.000 OA
ATOM     26  H   UNL     1       5.965   8.053  16.458  0.00  0.00    +0.000 HD
ENDBRANCH   6  22
BRANCH   3  27
ATOM     27  C   UNL     1       2.025   3.157  17.915  0.00  0.00    +0.000 C 
ATOM     28  O   UNL     1       2.497   2.035  18.254  0.00  0.00    +0.000 OA
ATOM     29  O   UNL     1       0.821   3.508  17.754  0.00  0.00    +0.000 OA
ENDBRANCH   3  27
BRANCH   5  30
ATOM     30  C   UNL     1       6.362   4.135  15.970  0.00  0.00    +0.000 C 
BRANCH  30  31
ATOM     31  O   UNL     1       6.157   2.751  15.625  0.00  0.00    +0.000 OA
ATOM     32  H   UNL     1       6.353   2.232  16.428  0.00  0.00    +0.000 HD
ENDBRANCH  30  31
BRANCH  30  33
ATOM     33  C   UNL     1       6.406   4.929  14.641  0.00  0.00    +0.000 C 
BRANCH  33  34
ATOM     34  O   UNL     1       7.674   5.627  14.564  0.00  0.00    +0.000 OA
ATOM     35  H   UNL     1       8.044   5.568  15.468  0.00  0.00    +0.000 HD
ENDBRANCH  33  34
BRANCH  33  36
ATOM     36  C   UNL     1       6.326   4.033  13.391  0.00  0.00    +0.000 C 
BRANCH  36  37
ATOM     37  O   UNL     1       4.961   3.759  13.064  0.00  0.00    +0.000 OA
ATOM     38  H   UNL     1       4.448   4.462  13.504  0.00  0.00    +0.000 HD
ENDBRANCH  36  37
ENDBRANCH  33  36
ENDBRANCH  30  33
ENDBRANCH   5  30
TORSDOF 12
ENDMDL
MODEL 5
REMARK VINA RESULT:      -7.7      2.523      2.857
REMARK  Name = 
REMARK  14 active torsions:
REMARK  status: ('A' for Active; 'I' for Inactive)
REMARK    1  A    between atoms: C_1  and  O_2
REMARK    2  A    between atoms: O_2  and  C_3
REMARK    3  A    between atoms: C_6  and  C_7
REMARK    4  A    between atoms: C_7  and  N_8
REMARK    5  A    between atoms: N_11  and  C_12
REMARK    6  A    between atoms: C_14  and  C_15
REMARK    7  A    between atoms: C_19  and  C_20
REMARK    8  A    between atoms: C_20  and  O_21
REMARK    9  A    between atoms: C_20  and  C_22
REMARK   10  A    between atoms: C_22  and  O_23
REMARK   11  A    between atoms: C_22  and  C_24
REMARK   12  A    between atoms: C_24  and  O_25
REMARK   13  A    between atoms: C_26  and  N_27
REMARK   14  A    between atoms: C_28  and  C_29
REMARK                            x       y       z     vdW  Elec       q    Type
REMARK                         _______ _______ _______ _____ _____    ______ ____
ROOT
ATOM      1  C   UNL     1       4.848   5.390  19.012  0.00  0.00    +0.000 C 
ATOM      2  C   UNL     1       4.248   4.017  18.981  0.00  0.00    +0.000 C 
ATOM      3  C   UNL     1       3.857   3.409  17.850  0.00  0.00    +0.000 C 
ATOM      4  O   UNL     1       4.045   3.984  16.604  0.00  0.00    +0.000 OA
ATOM      5  C   UNL     1       5.148   4.903  16.553  0.00  0.00    +0.000 C 
ATOM      6  C   UNL     1       4.923   6.031  17.586  0.00  0.00    +0.000 C 
ENDROOT
BRANCH   1  10
ATOM      7  N   UNL     1       2.220   7.298  20.699  0.00  0.00    +0.000 N 
ATOM      8  C   UNL     1       2.770   6.622  19.645  0.00  0.00    +0.000 C 
ATOM      9  O   UNL     1       2.171   6.411  18.599  0.00  0.00    +0.000 OA
ATOM     10  N   UNL     1       4.024   6.170  19.941  0.00  0.00    +0.000 N 
ATOM     11  H   UNL     1       2.665   7.167  21.595  0.00  0.00    +0.000 HD
ATOM     12  H   UNL     1       4.539   6.709  20.623  0.00  0.00    +0.000 HD
BRANCH   7  13
ATOM     13  C   UNL     1       0.845   7.738  20.674  0.00  0.00    +0.000 C 
BRANCH  13  17
ATOM     14  C   UNL     1       0.441  11.993  19.959  0.00  0.00    +0.000 A 
ATOM     15  C   UNL     1       0.702  11.134  18.894  0.00  0.00    +0.000 A 
ATOM     16  C   UNL     1       0.814   9.757  19.109  0.00  0.00    +0.000 A 
ATOM     17  C   UNL     1       0.678   9.214  20.392  0.00  0.00    +0.000 A 
ATOM     18  C   UNL     1       0.373  10.081  21.451  0.00  0.00    +0.000 A 
ATOM     19  C   UNL     1       0.262  11.459  21.236  0.00  0.00    +0.000 A 
BRANCH  14  21
ATOM     20  C   UNL     1      -0.094  13.881  18.641  0.00  0.00    +0.000 C 
ATOM     21  O   UNL     1       0.383  13.359  19.880  0.00  0.00    +0.000 OA
ENDBRANCH  14  21
ENDBRANCH  13  17
ENDBRANCH   7  13
ENDBRANCH   1  10
BRANCH   6  22
ATOM     22  N   UNL     1       5.887   7.141  17.545  0.00  0.00    +0.000 N 
ATOM     23  C   UNL     1       7.238   6.964  17.716  0.00  0.00    +0.000 C 
ATOM     24  C   UNL     1       8.020   8.244  17.773  0.00  0.00    +0.000 C 
ATOM     25  O   UNL     1       7.783   5.866  17.755  0.00  0.00    +0.000 OA
ATOM     26  H   UNL     1       5.531   8.009  17.941  0.00  0.00    +0.000 HD
ENDBRANCH   6  22
BRANCH   3  27
ATOM     27  C   UNL     1       3.155   1.997  17.887  0.00  0.00    +0.000 C 
ATOM     28  O   UNL     1       3.844   1.064  18.388  0.00  0.00    +0.000 OA
ATOM     29  O   UNL     1       1.995   1.962  17.387  0.00  0.00    +0.000 OA
ENDBRANCH   3  27
BRANCH   5  30
ATOM     30  C   UNL     1       5.254   5.350  15.076  0.00  0.00    +0.000 C 
BRANCH  30  31
ATOM     31  O   UNL     1       5.181   6.775  14.875  0.00  0.00    +0.000 OA
ATOM     32  H   UNL     1       6.064   7.059  14.572  0.00  0.00    +0.000 HD
ENDBRANCH  30  31
BRANCH  30  33
ATOM     33  C   UNL     1       6.572   4.870  14.418  0.00  0.00    +0.000 C 
BRANCH  33  34
ATOM     34  O   UNL     1       7.450   4.370  15.456  0.00  0.00    +0.000 OA
ATOM     35  H   UNL     1       7.645   3.448  15.192  0.00  0.00    +0.000 HD
ENDBRANCH  33  34
BRANCH  33  36
ATOM     36  C   UNL     1       6.372   3.713  13.423  0.00  0.00    +0.000 C 
BRANCH  36  37
ATOM     37  O   UNL     1       6.955   4.038  12.158  0.00  0.00    +0.000 OA
ATOM     38  H   UNL     1       7.904   3.830  12.255  0.00  0.00    +0.000 HD
ENDBRANCH  36  37
ENDBRANCH  33  36
ENDBRANCH  30  33
ENDBRANCH   5  30
TORSDOF 12
ENDMDL
MODEL 6
REMARK VINA RESULT:      -7.7      2.297      3.422
REMARK  Name = 
REMARK  14 active torsions:
REMARK  status: ('A' for Active; 'I' for Inactive)
REMARK    1  A    between atoms: C_1  and  O_2
REMARK    2  A    between atoms: O_2  and  C_3
REMARK    3  A    between atoms: C_6  and  C_7
REMARK    4  A    between atoms: C_7  and  N_8
REMARK    5  A    between atoms: N_11  and  C_12
REMARK    6  A    between atoms: C_14  and  C_15
REMARK    7  A    between atoms: C_19  and  C_20
REMARK    8  A    between atoms: C_20  and  O_21
REMARK    9  A    between atoms: C_20  and  C_22
REMARK   10  A    between atoms: C_22  and  O_23
REMARK   11  A    between atoms: C_22  and  C_24
REMARK   12  A    between atoms: C_24  and  O_25
REMARK   13  A    between atoms: C_26  and  N_27
REMARK   14  A    between atoms: C_28  and  C_29
REMARK                            x       y       z     vdW  Elec       q    Type
REMARK                         _______ _______ _______ _____ _____    ______ ____
ROOT
ATOM      1  C   UNL     1       3.879   6.664  17.923  0.00  0.00    +0.000 C 
ATOM      2  C   UNL     1       2.954   5.528  18.236  0.00  0.00    +0.000 C 
ATOM      3  C   UNL     1       3.047   4.320  17.656  0.00  0.00    +0.000 C 
ATOM      4  O   UNL     1       4.061   4.009  16.766  0.00  0.00    +0.000 OA
ATOM      5  C   UNL     1       5.258   4.780  16.961  0.00  0.00    +0.000 C 
ATOM      6  C   UNL     1       4.926   6.284  16.822  0.00  0.00    +0.000 C 
ENDROOT
BRANCH   1  10
ATOM      7  N   UNL     1       1.519   9.455  17.753  0.00  0.00    +0.000 N 
ATOM      8  C   UNL     1       2.178   8.434  18.380  0.00  0.00    +0.000 C 
ATOM      9  O   UNL     1       2.053   8.189  19.573  0.00  0.00    +0.000 OA
ATOM     10  N   UNL     1       3.022   7.786  17.525  0.00  0.00    +0.000 N 
ATOM     11  H   UNL     1       1.899   9.757  16.869  0.00  0.00    +0.000 HD
ATOM     12  H   UNL     1       2.762   7.803  16.549  0.00  0.00    +0.000 HD
BRANCH   7  13
ATOM     13  C   UNL     1       0.686  10.377  18.490  0.00  0.00    +0.000 C 
BRANCH  13  17
ATOM     14  C   UNL     1       2.716  14.007  19.706  0.00  0.00    +0.000 A 
ATOM     15  C   UNL     1       1.885  13.344  20.606  0.00  0.00    +0.000 A 
ATOM     16  C   UNL     1       1.241  12.161  20.233  0.00  0.00    +0.000 A 
ATOM     17  C   UNL     1       1.407  11.624  18.950  0.00  0.00    +0.000 A 
ATOM     18  C   UNL     1       2.278  12.274  18.065  0.00  0.00    +0.000 A 
ATOM     19  C   UNL     1       2.922  13.459  18.439  0.00  0.00    +0.000 A 
BRANCH  14  21
ATOM     20  C   UNL     1       2.563  16.170  20.647  0.00  0.00    +0.000 C 
ATOM     21  O   UNL     1       3.337  15.206  19.936  0.00  0.00    +0.000 OA
ENDBRANCH  14  21
ENDBRANCH  13  17
ENDBRANCH   7  13
ENDBRANCH   1  10
BRANCH   6  22
ATOM     22  N   UNL     1       6.077   7.199  16.836  0.00  0.00    +0.000 N 
ATOM     23  C   UNL     1       7.059   7.152  17.795  0.00  0.00    +0.000 C 
ATOM     24  C   UNL     1       8.064   8.262  17.696  0.00  0.00    +0.000 C 
ATOM     25  O   UNL     1       7.159   6.255  18.624  0.00  0.00    +0.000 OA
ATOM     26  H   UNL     1       5.857   8.140  16.516  0.00  0.00    +0.000 HD
ENDBRANCH   6  22
BRANCH   3  27
ATOM     27  C   UNL     1       1.994   3.189  17.965  0.00  0.00    +0.000 C 
ATOM     28  O   UNL     1       0.788   3.500  17.755  0.00  0.00    +0.000 OA
ATOM     29  O   UNL     1       2.481   2.111  18.412  0.00  0.00    +0.000 OA
ENDBRANCH   3  27
BRANCH   5  30
ATOM     30  C   UNL     1       6.287   4.219  15.952  0.00  0.00    +0.000 C 
BRANCH  30  31
ATOM     31  O   UNL     1       6.158   2.809  15.685  0.00  0.00    +0.000 OA
ATOM     32  H   UNL     1       7.048   2.489  15.445  0.00  0.00    +0.000 HD
ENDBRANCH  30  31
BRANCH  30  33
ATOM     33  C   UNL     1       6.215   4.945  14.585  0.00  0.00    +0.000 C 
BRANCH  33  34
ATOM     34  O   UNL     1       7.563   5.277  14.168  0.00  0.00    +0.000 OA
ATOM     35  H   UNL     1       7.476   5.525  13.225  0.00  0.00    +0.000 HD
ENDBRANCH  33  34
BRANCH  33  36
ATOM     36  C   UNL     1       5.614   4.078  13.464  0.00  0.00    +0.000 C 
BRANCH  36  37
ATOM     37  O   UNL     1       6.616   3.224  12.905  0.00  0.00    +0.000 OA
ATOM     38  H   UNL     1       7.214   3.014  13.647  0.00  0.00    +0.000 HD
ENDBRANCH  36  37
ENDBRANCH  33  36
ENDBRANCH  30  33
ENDBRANCH   5  30
TORSDOF 12
ENDMDL
MODEL 7
REMARK VINA RESULT:      -7.7      2.243      3.138
REMARK  Name = 
REMARK  14 active torsions:
REMARK  status: ('A' for Active; 'I' for Inactive)
REMARK    1  A    between atoms: C_1  and  O_2
REMARK    2  A    between atoms: O_2  and  C_3
REMARK    3  A    between atoms: C_6  and  C_7
REMARK    4  A    between atoms: C_7  and  N_8
REMARK    5  A    between atoms: N_11  and  C_12
REMARK    6  A    between atoms: C_14  and  C_15
REMARK    7  A    between atoms: C_19  and  C_20
REMARK    8  A    between atoms: C_20  and  O_21
REMARK    9  A    between atoms: C_20  and  C_22
REMARK   10  A    between atoms: C_22  and  O_23
REMARK   11  A    between atoms: C_22  and  C_24
REMARK   12  A    between atoms: C_24  and  O_25
REMARK   13  A    between atoms: C_26  and  N_27
REMARK   14  A    between atoms: C_28  and  C_29
REMARK                            x       y       z     vdW  Elec       q    Type
REMARK                         _______ _______ _______ _____ _____    ______ ____
ROOT
ATOM      1  C   UNL     1       3.908   6.576  17.953  0.00  0.00    +0.000 C 
ATOM      2  C   UNL     1       2.994   5.436  18.283  0.00  0.00    +0.000 C 
ATOM      3  C   UNL     1       3.084   4.228  17.702  0.00  0.00    +0.000 C 
ATOM      4  O   UNL     1       4.084   3.922  16.795  0.00  0.00    +0.000 OA
ATOM      5  C   UNL     1       5.280   4.699  16.970  0.00  0.00    +0.000 C 
ATOM      6  C   UNL     1       4.938   6.201  16.836  0.00  0.00    +0.000 C 
ENDROOT
BRANCH   1  10
ATOM      7  N   UNL     1       1.506   9.333  17.814  0.00  0.00    +0.000 N 
ATOM      8  C   UNL     1       2.172   8.308  18.426  0.00  0.00    +0.000 C 
ATOM      9  O   UNL     1       2.034   8.033  19.611  0.00  0.00    +0.000 OA
ATOM     10  N   UNL     1       3.038   7.693  17.569  0.00  0.00    +0.000 N 
ATOM     11  H   UNL     1       1.893   9.661  16.943  0.00  0.00    +0.000 HD
ATOM     12  H   UNL     1       2.792   7.729  16.590  0.00  0.00    +0.000 HD
BRANCH   7  13
ATOM     13  C   UNL     1       0.647  10.224  18.560  0.00  0.00    +0.000 C 
BRANCH  13  17
ATOM     14  C   UNL     1       1.861  14.383  18.588  0.00  0.00    +0.000 A 
ATOM     15  C   UNL     1       2.782  13.396  18.247  0.00  0.00    +0.000 A 
ATOM     16  C   UNL     1       2.397  12.052  18.214  0.00  0.00    +0.000 A 
ATOM     17  C   UNL     1       1.088  11.669  18.531  0.00  0.00    +0.000 A 
ATOM     18  C   UNL     1       0.157  12.673  18.832  0.00  0.00    +0.000 A 
ATOM     19  C   UNL     1       0.543  14.017  18.866  0.00  0.00    +0.000 A 
BRANCH  14  21
ATOM     20  C   UNL     1       3.421  16.125  18.243  0.00  0.00    +0.000 C 
ATOM     21  O   UNL     1       2.142  15.717  18.724  0.00  0.00    +0.000 OA
ENDBRANCH  14  21
ENDBRANCH  13  17
ENDBRANCH   7  13
ENDBRANCH   1  10
BRANCH   6  22
ATOM     22  N   UNL     1       6.085   7.122  16.831  0.00  0.00    +0.000 N 
ATOM     23  C   UNL     1       7.056   7.112  17.801  0.00  0.00    +0.000 C 
ATOM     24  C   UNL     1       8.058   8.223  17.675  0.00  0.00    +0.000 C 
ATOM     25  O   UNL     1       7.152   6.244  18.662  0.00  0.00    +0.000 OA
ATOM     26  H   UNL     1       5.864   8.051  16.478  0.00  0.00    +0.000 HD
ENDBRANCH   6  22
BRANCH   3  27
ATOM     27  C   UNL     1       2.041   3.091  18.028  0.00  0.00    +0.000 C 
ATOM     28  O   UNL     1       0.827   3.419  17.910  0.00  0.00    +0.000 OA
ATOM     29  O   UNL     1       2.545   1.992  18.395  0.00  0.00    +0.000 OA
ENDBRANCH   3  27
BRANCH   5  30
ATOM     30  C   UNL     1       6.296   4.143  15.945  0.00  0.00    +0.000 C 
BRANCH  30  31
ATOM     31  O   UNL     1       6.141   2.741  15.647  0.00  0.00    +0.000 OA
ATOM     32  H   UNL     1       5.301   2.652  15.159  0.00  0.00    +0.000 HD
ENDBRANCH  30  31
BRANCH  30  33
ATOM     33  C   UNL     1       6.231   4.899  14.595  0.00  0.00    +0.000 C 
BRANCH  33  34
ATOM     34  O   UNL     1       7.507   5.549  14.369  0.00  0.00    +0.000 OA
ATOM     35  H   UNL     1       7.504   5.774  13.416  0.00  0.00    +0.000 HD
ENDBRANCH  33  34
BRANCH  33  36
ATOM     36  C   UNL     1       5.994   3.975  13.387  0.00  0.00    +0.000 C 
BRANCH  36  37
ATOM     37  O   UNL     1       7.005   4.182  12.397  0.00  0.00    +0.000 OA
ATOM     38  H   UNL     1       6.921   5.120  12.140  0.00  0.00    +0.000 HD
ENDBRANCH  36  37
ENDBRANCH  33  36
ENDBRANCH  30  33
ENDBRANCH   5  30
TORSDOF 12
ENDMDL
MODEL 8
REMARK VINA RESULT:      -7.6      2.644      3.234
REMARK  Name = 
REMARK  14 active torsions:
REMARK  status: ('A' for Active; 'I' for Inactive)
REMARK    1  A    between atoms: C_1  and  O_2
REMARK    2  A    between atoms: O_2  and  C_3
REMARK    3  A    between atoms: C_6  and  C_7
REMARK    4  A    between atoms: C_7  and  N_8
REMARK    5  A    between atoms: N_11  and  C_12
REMARK    6  A    between atoms: C_14  and  C_15
REMARK    7  A    between atoms: C_19  and  C_20
REMARK    8  A    between atoms: C_20  and  O_21
REMARK    9  A    between atoms: C_20  and  C_22
REMARK   10  A    between atoms: C_22  and  O_23
REMARK   11  A    between atoms: C_22  and  C_24
REMARK   12  A    between atoms: C_24  and  O_25
REMARK   13  A    between atoms: C_26  and  N_27
REMARK   14  A    between atoms: C_28  and  C_29
REMARK                            x       y       z     vdW  Elec       q    Type
REMARK                         _______ _______ _______ _____ _____    ______ ____
ROOT
ATOM      1  C   UNL     1       4.575   5.513  18.972  0.00  0.00    +0.000 C 
ATOM      2  C   UNL     1       3.934   4.163  19.065  0.00  0.00    +0.000 C 
ATOM      3  C   UNL     1       3.623   3.419  17.991  0.00  0.00    +0.000 C 
ATOM      4  O   UNL     1       3.939   3.819  16.704  0.00  0.00    +0.000 OA
ATOM      5  C   UNL     1       5.074   4.698  16.634  0.00  0.00    +0.000 C 
ATOM      6  C   UNL     1       4.797   5.958  17.487  0.00  0.00    +0.000 C 
ENDROOT
BRANCH   1  10
ATOM      7  N   UNL     1       1.982   7.849  20.072  0.00  0.00    +0.000 N 
ATOM      8  C   UNL     1       2.640   7.082  19.152  0.00  0.00    +0.000 C 
ATOM      9  O   UNL     1       2.272   6.966  17.990  0.00  0.00    +0.000 OA
ATOM     10  N   UNL     1       3.700   6.429  19.712  0.00  0.00    +0.000 N 
ATOM     11  H   UNL     1       2.181   7.653  21.042  0.00  0.00    +0.000 HD
ATOM     12  H   UNL     1       4.126   6.879  20.510  0.00  0.00    +0.000 HD
BRANCH   7  13
ATOM     13  C   UNL     1       0.742   8.514  19.749  0.00  0.00    +0.000 C 
BRANCH  13  17
ATOM     14  C   UNL     1      -0.785  11.207  22.780  0.00  0.00    +0.000 A 
ATOM     15  C   UNL     1      -0.520   9.879  23.104  0.00  0.00    +0.000 A 
ATOM     16  C   UNL     1      -0.008   9.005  22.141  0.00  0.00    +0.000 A 
ATOM     17  C   UNL     1       0.240   9.439  20.833  0.00  0.00    +0.000 A 
ATOM     18  C   UNL     1       0.010  10.788  20.526  0.00  0.00    +0.000 A 
ATOM     19  C   UNL     1      -0.504  11.662  21.490  0.00  0.00    +0.000 A 
BRANCH  14  21
ATOM     20  C   UNL     1      -1.249  13.488  23.194  0.00  0.00    +0.000 C 
ATOM     21  O   UNL     1      -1.354  12.130  23.617  0.00  0.00    +0.000 OA
ENDBRANCH  14  21
ENDBRANCH  13  17
ENDBRANCH   7  13
ENDBRANCH   1  10
BRANCH   6  22
ATOM     22  N   UNL     1       5.798   7.031  17.391  0.00  0.00    +0.000 N 
ATOM     23  C   UNL     1       7.117   6.855  17.732  0.00  0.00    +0.000 C 
ATOM     24  C   UNL     1       7.933   8.114  17.687  0.00  0.00    +0.000 C 
ATOM     25  O   UNL     1       7.616   5.765  17.989  0.00  0.00    +0.000 OA
ATOM     26  H   UNL     1       5.433   7.954  17.614  0.00  0.00    +0.000 HD
ENDBRANCH   6  22
BRANCH   3  27
ATOM     27  C   UNL     1       2.873   2.041  18.148  0.00  0.00    +0.000 C 
ATOM     28  O   UNL     1       1.623   2.080  17.967  0.00  0.00    +0.000 OA
ATOM     29  O   UNL     1       3.609   1.063  18.463  0.00  0.00    +0.000 OA
ENDBRANCH   3  27
BRANCH   5  30
ATOM     30  C   UNL     1       5.324   4.943  15.128  0.00  0.00    +0.000 C 
BRANCH  30  31
ATOM     31  O   UNL     1       5.566   6.319  14.777  0.00  0.00    +0.000 OA
ATOM     32  H   UNL     1       6.078   6.708  15.512  0.00  0.00    +0.000 HD
ENDBRANCH  30  31
BRANCH  30  33
ATOM     33  C   UNL     1       6.528   4.125  14.599  0.00  0.00    +0.000 C 
BRANCH  33  34
ATOM     34  O   UNL     1       6.023   2.947  13.922  0.00  0.00    +0.000 OA
ATOM     35  H   UNL     1       6.799   2.582  13.449  0.00  0.00    +0.000 HD
ENDBRANCH  33  34
BRANCH  33  36
ATOM     36  C   UNL     1       7.380   4.887  13.569  0.00  0.00    +0.000 C 
BRANCH  36  37
ATOM     37  O   UNL     1       8.300   5.759  14.232  0.00  0.00    +0.000 OA
ATOM     38  H   UNL     1       9.152   5.282  14.226  0.00  0.00    +0.000 HD
ENDBRANCH  36  37
ENDBRANCH  33  36
ENDBRANCH  30  33
ENDBRANCH   5  30
TORSDOF 12
ENDMDL
MODEL 9
REMARK VINA RESULT:      -7.6      3.994      7.760
REMARK  Name = 
REMARK  14 active torsions:
REMARK  status: ('A' for Active; 'I' for Inactive)
REMARK    1  A    between atoms: C_1  and  O_2
REMARK    2  A    between atoms: O_2  and  C_3
REMARK    3  A    between atoms: C_6  and  C_7
REMARK    4  A    between atoms: C_7  and  N_8
REMARK    5  A    between atoms: N_11  and  C_12
REMARK    6  A    between atoms: C_14  and  C_15
REMARK    7  A    between atoms: C_19  and  C_20
REMARK    8  A    between atoms: C_20  and  O_21
REMARK    9  A    between atoms: C_20  and  C_22
REMARK   10  A    between atoms: C_22  and  O_23
REMARK   11  A    between atoms: C_22  and  C_24
REMARK   12  A    between atoms: C_24  and  O_25
REMARK   13  A    between atoms: C_26  and  N_27
REMARK   14  A    between atoms: C_28  and  C_29
REMARK                            x       y       z     vdW  Elec       q    Type
REMARK                         _______ _______ _______ _____ _____    ______ ____
ROOT
ATOM      1  C   UNL     1       5.018   6.554  16.660  0.00  0.00    +0.000 C 
ATOM      2  C   UNL     1       5.501   6.068  15.328  0.00  0.00    +0.000 C 
ATOM      3  C   UNL     1       5.919   4.810  15.109  0.00  0.00    +0.000 C 
ATOM      4  O   UNL     1       5.867   3.837  16.093  0.00  0.00    +0.000 OA
ATOM      5  C   UNL     1       4.851   4.070  17.082  0.00  0.00    +0.000 C 
ATOM      6  C   UNL     1       5.097   5.440  17.757  0.00  0.00    +0.000 C 
ENDROOT
BRANCH   1  10
ATOM      7  N   UNL     1       7.568   8.899  17.837  0.00  0.00    +0.000 N 
ATOM      8  C   UNL     1       6.995   7.665  17.705  0.00  0.00    +0.000 C 
ATOM      9  O   UNL     1       7.505   6.640  18.139  0.00  0.00    +0.000 OA
ATOM     10  N   UNL     1       5.838   7.726  16.984  0.00  0.00    +0.000 N 
ATOM     11  H   UNL     1       7.235   9.616  17.211  0.00  0.00    +0.000 HD
ATOM     12  H   UNL     1       5.337   8.603  17.025  0.00  0.00    +0.000 HD
BRANCH   7  13
ATOM     13  C   UNL     1       8.875   9.062  18.431  0.00  0.00    +0.000 C 
BRANCH  13  17
ATOM     14  C   UNL     1       9.619  13.143  19.683  0.00  0.00    +0.000 A 
ATOM     15  C   UNL     1       9.874  12.092  20.561  0.00  0.00    +0.000 A 
ATOM     16  C   UNL     1       9.658  10.770  20.162  0.00  0.00    +0.000 A 
ATOM     17  C   UNL     1       9.173  10.474  18.882  0.00  0.00    +0.000 A 
ATOM     18  C   UNL     1       8.959  11.535  17.991  0.00  0.00    +0.000 A 
ATOM     19  C   UNL     1       9.174  12.858  18.391  0.00  0.00    +0.000 A 
BRANCH  14  21
ATOM     20  C   UNL     1       8.640  15.017  20.741  0.00  0.00    +0.000 C 
ATOM     21  O   UNL     1       9.723  14.474  19.988  0.00  0.00    +0.000 OA
ENDBRANCH  14  21
ENDBRANCH  13  17
ENDBRANCH   7  13
ENDBRANCH   1  10
BRANCH   6  22
ATOM     22  N   UNL     1       4.235   5.754  18.906  0.00  0.00    +0.000 N 
ATOM     23  C   UNL     1       2.902   6.058  18.779  0.00  0.00    +0.000 C 
ATOM     24  C   UNL     1       2.246   6.478  20.062  0.00  0.00    +0.000 C 
ATOM     25  O   UNL     1       2.272   5.941  17.734  0.00  0.00    +0.000 OA
ATOM     26  H   UNL     1       4.707   6.269  19.645  0.00  0.00    +0.000 HD
ENDBRANCH   6  22
BRANCH   3  27
ATOM     27  C   UNL     1       6.495   4.378  13.706  0.00  0.00    +0.000 C 
ATOM     28  O   UNL     1       7.437   5.095  13.264  0.00  0.00    +0.000 OA
ATOM     29  O   UNL     1       5.926   3.381  13.178  0.00  0.00    +0.000 OA
ENDBRANCH   3  27
BRANCH   5  30
ATOM     30  C   UNL     1       4.886   2.839  18.018  0.00  0.00    +0.000 C 
BRANCH  30  31
ATOM     31  O   UNL     1       5.053   3.154  19.415  0.00  0.00    +0.000 OA
ATOM     32  H   UNL     1       4.155   3.246  19.788  0.00  0.00    +0.000 HD
ENDBRANCH  30  31
BRANCH  30  33
ATOM     33  C   UNL     1       3.601   1.983  17.900  0.00  0.00    +0.000 C 
BRANCH  33  34
ATOM     34  O   UNL     1       3.885   0.654  18.404  0.00  0.00    +0.000 OA
ATOM     35  H   UNL     1       4.232   0.801  19.308  0.00  0.00    +0.000 HD
ENDBRANCH  33  34
BRANCH  33  36
ATOM     36  C   UNL     1       2.427   2.523  18.736  0.00  0.00    +0.000 C 
BRANCH  36  37
ATOM     37  O   UNL     1       1.459   3.147  17.889  0.00  0.00    +0.000 OA
ATOM     38  H   UNL     1       1.980   3.639  17.226  0.00  0.00    +0.000 HD
ENDBRANCH  36  37
ENDBRANCH  33  36
ENDBRANCH  30  33
ENDBRANCH   5  30
TORSDOF 12
ENDMDL
