MODEL 1
REMARK VINA RESULT:      -6.6      0.000      0.000
REMARK  Name = 
REMARK  9 active torsions:
REMARK  status: ('A' for Active; 'I' for Inactive)
REMARK    1  A    between atoms: C_1  and  C_2
REMARK    2  A    between atoms: C_2  and  C_3
REMARK    3  A    between atoms: C_3  and  C_4
REMARK    4  A    between atoms: C_3  and  N_5
REMARK    5  A    between atoms: C_6  and  C_8
REMARK    6  A    between atoms: C_8  and  C_9
REMARK    7  A    between atoms: C_9  and  S_10
REMARK    8  A    between atoms: S_10  and  C_11
REMARK    9  A    between atoms: C_14  and  C_15
REMARK                            x       y       z     vdW  Elec       q    Type
REMARK                         _______ _______ _______ _____ _____    ______ ____
ROOT
ATOM      1  C   UNL     1       7.265   4.835  15.356  0.00  0.00    +0.000 C 
ENDROOT
BRANCH   1   3
ATOM      2  N   UNL     1       6.371   3.663  13.412  0.00  0.00    +0.000 N 
ATOM      3  C   UNL     1       7.151   4.715  13.850  0.00  0.00    +0.000 C 
ATOM      4  O   UNL     1       7.719   5.485  13.075  0.00  0.00    +0.000 OA
ATOM      5  H   UNL     1       5.902   3.076  14.089  0.00  0.00    +0.000 HD
BRANCH   2   6
ATOM      6  C   UNL     1       6.169   3.406  11.986  0.00  0.00    +0.000 C 
ATOM      7  C   UNL     1       4.685   3.151  11.691  0.00  0.00    +0.000 C 
BRANCH   6   9
ATOM      8  C   UNL     1       6.204   1.017  11.068  0.00  0.00    +0.000 C 
ATOM      9  C   UNL     1       7.028   2.226  11.502  0.00  0.00    +0.000 C 
ENDBRANCH   6   9
ENDBRANCH   2   6
ENDBRANCH   1   3
BRANCH   1  10
ATOM     10  C   UNL     1       5.990   4.317  16.026  0.00  0.00    +0.000 C 
BRANCH  10  11
ATOM     11  S   UNL     1       4.964   5.696  16.651  0.00  0.00    +0.000 S 
BRANCH  11  12
ATOM     12  C   UNL     1       3.636   4.774  17.419  0.00  0.00    +0.000 A 
ATOM     13  C   UNL     1       3.458   3.425  17.100  0.00  0.00    +0.000 A 
ATOM     14  C   UNL     1       2.440   2.678  17.705  0.00  0.00    +0.000 A 
ATOM     15  C   UNL     1       1.592   3.268  18.648  0.00  0.00    +0.000 A 
ATOM     16  C   UNL     1       0.487   2.482  19.295  0.00  0.00    +0.000 C 
ATOM     17  C   UNL     1       1.782   4.614  18.982  0.00  0.00    +0.000 A 
ATOM     18  C   UNL     1       2.799   5.359  18.374  0.00  0.00    +0.000 A 
ENDBRANCH  11  12
ENDBRANCH  10  11
ENDBRANCH   1  10
TORSDOF 6
ENDMDL
MODEL 2
REMARK VINA RESULT:      -6.3      1.598      2.241
REMARK  Name = 
REMARK  9 active torsions:
REMARK  status: ('A' for Active; 'I' for Inactive)
REMARK    1  A    between atoms: C_1  and  C_2
REMARK    2  A    between atoms: C_2  and  C_3
REMARK    3  A    between atoms: C_3  and  C_4
REMARK    4  A    between atoms: C_3  and  N_5
REMARK    5  A    between atoms: C_6  and  C_8
REMARK    6  A    between atoms: C_8  and  C_9
REMARK    7  A    between atoms: C_9  and  S_10
REMARK    8  A    between atoms: S_10  and  C_11
REMARK    9  A    between atoms: C_14  and  C_15
REMARK                            x       y       z     vdW  Elec       q    Type
REMARK                         _______ _______ _______ _____ _____    ______ ____
ROOT
ATOM      1  C   UNL     1       5.395   5.719  15.751  0.00  0.00    +0.000 C 
ENDROOT
BRANCH   1   3
ATOM      2  N   UNL     1       5.702   4.276  13.807  0.00  0.00    +0.000 N 
ATOM      3  C   UNL     1       6.330   5.045  14.767  0.00  0.00    +0.000 C 
ATOM      4  O   UNL     1       7.554   5.161  14.825  0.00  0.00    +0.000 OA
ATOM      5  H   UNL     1       4.691   4.236  13.785  0.00  0.00    +0.000 HD
BRANCH   2   6
ATOM      6  C   UNL     1       6.465   3.554  12.790  0.00  0.00    +0.000 C 
ATOM      7  C   UNL     1       7.208   4.537  11.875  0.00  0.00    +0.000 C 
BRANCH   6   9
ATOM      8  C   UNL     1       4.302   3.316  11.441  0.00  0.00    +0.000 C 
ATOM      9  C   UNL     1       5.559   2.625  11.964  0.00  0.00    +0.000 C 
ENDBRANCH   6   9
ENDBRANCH   2   6
ENDBRANCH   1   3
BRANCH   1  10
ATOM     10  C   UNL     1       6.176   6.204  16.974  0.00  0.00    +0.000 C 
BRANCH  10  11
ATOM     11  S   UNL     1       6.584   4.813  18.092  0.00  0.00    +0.000 S 
BRANCH  11  12
ATOM     12  C   UNL     1       4.973   4.507  18.810  0.00  0.00    +0.000 A 
ATOM     13  C   UNL     1       4.236   5.573  19.333  0.00  0.00    +0.000 A 
ATOM     14  C   UNL     1       2.965   5.361  19.880  0.00  0.00    +0.000 A 
ATOM     15  C   UNL     1       2.407   4.078  19.900  0.00  0.00    +0.000 A 
ATOM     16  C   UNL     1       1.050   3.833  20.495  0.00  0.00    +0.000 C 
ATOM     17  C   UNL     1       3.137   3.013  19.358  0.00  0.00    +0.000 A 
ATOM     18  C   UNL     1       4.409   3.228  18.815  0.00  0.00    +0.000 A 
ENDBRANCH  11  12
ENDBRANCH  10  11
ENDBRANCH   1  10
TORSDOF 6
ENDMDL
MODEL 3
REMARK VINA RESULT:      -6.3      1.765      2.465
REMARK  Name = 
REMARK  9 active torsions:
REMARK  status: ('A' for Active; 'I' for Inactive)
REMARK    1  A    between atoms: C_1  and  C_2
REMARK    2  A    between atoms: C_2  and  C_3
REMARK    3  A    between atoms: C_3  and  C_4
REMARK    4  A    between atoms: C_3  and  N_5
REMARK    5  A    between atoms: C_6  and  C_8
REMARK    6  A    between atoms: C_8  and  C_9
REMARK    7  A    between atoms: C_9  and  S_10
REMARK    8  A    between atoms: S_10  and  C_11
REMARK    9  A    between atoms: C_14  and  C_15
REMARK                            x       y       z     vdW  Elec       q    Type
REMARK                         _______ _______ _______ _____ _____    ______ ____
ROOT
ATOM      1  C   UNL     1       5.908   6.256  17.200  0.00  0.00    +0.000 C 
ENDROOT
BRANCH   1   3
ATOM      2  N   UNL     1       6.349   5.366  14.972  0.00  0.00    +0.000 N 
ATOM      3  C   UNL     1       6.733   5.361  16.298  0.00  0.00    +0.000 C 
ATOM      4  O   UNL     1       7.664   4.671  16.715  0.00  0.00    +0.000 OA
ATOM      5  H   UNL     1       5.596   5.972  14.674  0.00  0.00    +0.000 HD
BRANCH   2   6
ATOM      6  C   UNL     1       7.040   4.548  13.975  0.00  0.00    +0.000 C 
ATOM      7  C   UNL     1       7.830   5.436  13.004  0.00  0.00    +0.000 C 
BRANCH   6   9
ATOM      8  C   UNL     1       6.590   3.185  11.855  0.00  0.00    +0.000 C 
ATOM      9  C   UNL     1       6.056   3.650  13.207  0.00  0.00    +0.000 C 
ENDBRANCH   6   9
ENDBRANCH   2   6
ENDBRANCH   1   3
BRANCH   1  10
ATOM     10  C   UNL     1       4.596   6.636  16.510  0.00  0.00    +0.000 C 
BRANCH  10  11
ATOM     11  S   UNL     1       3.503   7.574  17.639  0.00  0.00    +0.000 S 
BRANCH  11  12
ATOM     12  C   UNL     1       2.747   6.222  18.535  0.00  0.00    +0.000 A 
ATOM     13  C   UNL     1       2.478   5.020  17.874  0.00  0.00    +0.000 A 
ATOM     14  C   UNL     1       1.907   3.942  18.561  0.00  0.00    +0.000 A 
ATOM     15  C   UNL     1       1.609   4.047  19.923  0.00  0.00    +0.000 A 
ATOM     16  C   UNL     1       0.984   2.902  20.670  0.00  0.00    +0.000 C 
ATOM     17  C   UNL     1       1.896   5.243  20.590  0.00  0.00    +0.000 A 
ATOM     18  C   UNL     1       2.464   6.321  19.901  0.00  0.00    +0.000 A 
ENDBRANCH  11  12
ENDBRANCH  10  11
ENDBRANCH   1  10
TORSDOF 6
ENDMDL
MODEL 4
REMARK VINA RESULT:      -6.3      1.932      2.889
REMARK  Name = 
REMARK  9 active torsions:
REMARK  status: ('A' for Active; 'I' for Inactive)
REMARK    1  A    between atoms: C_1  and  C_2
REMARK    2  A    between atoms: C_2  and  C_3
REMARK    3  A    between atoms: C_3  and  C_4
REMARK    4  A    between atoms: C_3  and  N_5
REMARK    5  A    between atoms: C_6  and  C_8
REMARK    6  A    between atoms: C_8  and  C_9
REMARK    7  A    between atoms: C_9  and  S_10
REMARK    8  A    between atoms: S_10  and  C_11
REMARK    9  A    between atoms: C_14  and  C_15
REMARK                            x       y       z     vdW  Elec       q    Type
REMARK                         _______ _______ _______ _____ _____    ______ ____
ROOT
ATOM      1  C   UNL     1       5.791   6.758  17.269  0.00  0.00    +0.000 C 
ENDROOT
BRANCH   1   3
ATOM      2  N   UNL     1       6.196   5.532  15.199  0.00  0.00    +0.000 N 
ATOM      3  C   UNL     1       6.626   5.761  16.491  0.00  0.00    +0.000 C 
ATOM      4  O   UNL     1       7.601   5.188  16.976  0.00  0.00    +0.000 OA
ATOM      5  H   UNL     1       5.405   6.049  14.838  0.00  0.00    +0.000 HD
BRANCH   2   6
ATOM      6  C   UNL     1       6.890   4.590  14.321  0.00  0.00    +0.000 C 
ATOM      7  C   UNL     1       7.773   5.341  13.315  0.00  0.00    +0.000 C 
BRANCH   6   9
ATOM      8  C   UNL     1       6.268   3.423  12.129  0.00  0.00    +0.000 C 
ATOM      9  C   UNL     1       5.897   3.671  13.589  0.00  0.00    +0.000 C 
ENDBRANCH   6   9
ENDBRANCH   2   6
ENDBRANCH   1   3
BRANCH   1  10
ATOM     10  C   UNL     1       4.414   6.915  16.619  0.00  0.00    +0.000 C 
BRANCH  10  11
ATOM     11  S   UNL     1       3.232   7.719  17.761  0.00  0.00    +0.000 S 
BRANCH  11  12
ATOM     12  C   UNL     1       2.605   6.282  18.625  0.00  0.00    +0.000 A 
ATOM     13  C   UNL     1       2.302   6.373  19.987  0.00  0.00    +0.000 A 
ATOM     14  C   UNL     1       1.790   5.268  20.679  0.00  0.00    +0.000 A 
ATOM     15  C   UNL     1       1.562   4.060  20.013  0.00  0.00    +0.000 A 
ATOM     16  C   UNL     1       1.025   2.862  20.745  0.00  0.00    +0.000 C 
ATOM     17  C   UNL     1       1.846   3.974  18.645  0.00  0.00    +0.000 A 
ATOM     18  C   UNL     1       2.362   5.079  17.957  0.00  0.00    +0.000 A 
ENDBRANCH  11  12
ENDBRANCH  10  11
ENDBRANCH   1  10
TORSDOF 6
ENDMDL
MODEL 5
REMARK VINA RESULT:      -6.2      1.950      2.627
REMARK  Name = 
REMARK  9 active torsions:
REMARK  status: ('A' for Active; 'I' for Inactive)
REMARK    1  A    between atoms: C_1  and  C_2
REMARK    2  A    between atoms: C_2  and  C_3
REMARK    3  A    between atoms: C_3  and  C_4
REMARK    4  A    between atoms: C_3  and  N_5
REMARK    5  A    between atoms: C_6  and  C_8
REMARK    6  A    between atoms: C_8  and  C_9
REMARK    7  A    between atoms: C_9  and  S_10
REMARK    8  A    between atoms: S_10  and  C_11
REMARK    9  A    between atoms: C_14  and  C_15
REMARK                            x       y       z     vdW  Elec       q    Type
REMARK                         _______ _______ _______ _____ _____    ______ ____
ROOT
ATOM      1  C   UNL     1       7.149   6.497  17.041  0.00  0.00    +0.000 C 
ENDROOT
BRANCH   1   3
ATOM      2  N   UNL     1       7.117   5.602  14.772  0.00  0.00    +0.000 N 
ATOM      3  C   UNL     1       7.346   5.322  16.104  0.00  0.00    +0.000 C 
ATOM      4  O   UNL     1       7.669   4.202  16.499  0.00  0.00    +0.000 OA
ATOM      5  H   UNL     1       6.880   6.546  14.495  0.00  0.00    +0.000 HD
BRANCH   2   6
ATOM      6  C   UNL     1       7.255   4.573  13.742  0.00  0.00    +0.000 C 
ATOM      7  C   UNL     1       7.732   5.192  12.422  0.00  0.00    +0.000 C 
BRANCH   6   9
ATOM      8  C   UNL     1       5.841   3.128  12.171  0.00  0.00    +0.000 C 
ATOM      9  C   UNL     1       5.937   3.806  13.535  0.00  0.00    +0.000 C 
ENDBRANCH   6   9
ENDBRANCH   2   6
ENDBRANCH   1   3
BRANCH   1  10
ATOM     10  C   UNL     1       6.104   6.155  18.106  0.00  0.00    +0.000 C 
BRANCH  10  11
ATOM     11  S   UNL     1       4.452   5.914  17.357  0.00  0.00    +0.000 S 
BRANCH  11  12
ATOM     12  C   UNL     1       3.669   4.937  18.635  0.00  0.00    +0.000 A 
ATOM     13  C   UNL     1       2.476   5.382  19.211  0.00  0.00    +0.000 A 
ATOM     14  C   UNL     1       1.834   4.623  20.198  0.00  0.00    +0.000 A 
ATOM     15  C   UNL     1       2.371   3.400  20.613  0.00  0.00    +0.000 A 
ATOM     16  C   UNL     1       1.700   2.581  21.679  0.00  0.00    +0.000 C 
ATOM     17  C   UNL     1       3.556   2.944  20.022  0.00  0.00    +0.000 A 
ATOM     18  C   UNL     1       4.198   3.707  19.039  0.00  0.00    +0.000 A 
ENDBRANCH  11  12
ENDBRANCH  10  11
ENDBRANCH   1  10
TORSDOF 6
ENDMDL
MODEL 6
REMARK VINA RESULT:      -6.2      0.808      1.399
REMARK  Name = 
REMARK  9 active torsions:
REMARK  status: ('A' for Active; 'I' for Inactive)
REMARK    1  A    between atoms: C_1  and  C_2
REMARK    2  A    between atoms: C_2  and  C_3
REMARK    3  A    between atoms: C_3  and  C_4
REMARK    4  A    between atoms: C_3  and  N_5
REMARK    5  A    between atoms: C_6  and  C_8
REMARK    6  A    between atoms: C_8  and  C_9
REMARK    7  A    between atoms: C_9  and  S_10
REMARK    8  A    between atoms: S_10  and  C_11
REMARK    9  A    between atoms: C_14  and  C_15
REMARK                            x       y       z     vdW  Elec       q    Type
REMARK                         _______ _______ _______ _____ _____    ______ ____
ROOT
ATOM      1  C   UNL     1       7.089   5.134  15.320  0.00  0.00    +0.000 C 
ENDROOT
BRANCH   1   3
ATOM      2  N   UNL     1       6.181   3.876  13.437  0.00  0.00    +0.000 N 
ATOM      3  C   UNL     1       7.061   4.864  13.829  0.00  0.00    +0.000 C 
ATOM      4  O   UNL     1       7.778   5.467  13.029  0.00  0.00    +0.000 OA
ATOM      5  H   UNL     1       5.593   3.429  14.129  0.00  0.00    +0.000 HD
BRANCH   2   6
ATOM      6  C   UNL     1       6.042   3.491  12.033  0.00  0.00    +0.000 C 
ATOM      7  C   UNL     1       4.573   3.209  11.694  0.00  0.00    +0.000 C 
BRANCH   6   9
ATOM      8  C   UNL     1       6.121   1.080  11.173  0.00  0.00    +0.000 C 
ATOM      9  C   UNL     1       6.919   2.272  11.697  0.00  0.00    +0.000 C 
ENDBRANCH   6   9
ENDBRANCH   2   6
ENDBRANCH   1   3
BRANCH   1  10
ATOM     10  C   UNL     1       6.247   4.093  16.060  0.00  0.00    +0.000 C 
BRANCH  10  11
ATOM     11  S   UNL     1       6.167   4.460  17.851  0.00  0.00    +0.000 S 
BRANCH  11  12
ATOM     12  C   UNL     1       4.503   3.906  18.210  0.00  0.00    +0.000 A 
ATOM     13  C   UNL     1       3.759   4.552  19.202  0.00  0.00    +0.000 A 
ATOM     14  C   UNL     1       2.448   4.150  19.484  0.00  0.00    +0.000 A 
ATOM     15  C   UNL     1       1.858   3.104  18.768  0.00  0.00    +0.000 A 
ATOM     16  C   UNL     1       0.456   2.653  19.068  0.00  0.00    +0.000 C 
ATOM     17  C   UNL     1       2.595   2.470  17.761  0.00  0.00    +0.000 A 
ATOM     18  C   UNL     1       3.907   2.871  17.483  0.00  0.00    +0.000 A 
ENDBRANCH  11  12
ENDBRANCH  10  11
ENDBRANCH   1  10
TORSDOF 6
ENDMDL
MODEL 7
REMARK VINA RESULT:      -6.1      1.420      1.518
REMARK  Name = 
REMARK  9 active torsions:
REMARK  status: ('A' for Active; 'I' for Inactive)
REMARK    1  A    between atoms: C_1  and  C_2
REMARK    2  A    between atoms: C_2  and  C_3
REMARK    3  A    between atoms: C_3  and  C_4
REMARK    4  A    between atoms: C_3  and  N_5
REMARK    5  A    between atoms: C_6  and  C_8
REMARK    6  A    between atoms: C_8  and  C_9
REMARK    7  A    between atoms: C_9  and  S_10
REMARK    8  A    between atoms: S_10  and  C_11
REMARK    9  A    between atoms: C_14  and  C_15
REMARK                            x       y       z     vdW  Elec       q    Type
REMARK                         _______ _______ _______ _____ _____    ______ ____
ROOT
ATOM      1  C   UNL     1       5.665   4.450  15.873  0.00  0.00    +0.000 C 
ENDROOT
BRANCH   1   3
ATOM      2  N   UNL     1       5.327   3.672  13.586  0.00  0.00    +0.000 N 
ATOM      3  C   UNL     1       6.081   4.477  14.416  0.00  0.00    +0.000 C 
ATOM      4  O   UNL     1       7.026   5.151  14.006  0.00  0.00    +0.000 OA
ATOM      5  H   UNL     1       4.542   3.159  13.967  0.00  0.00    +0.000 HD
BRANCH   2   6
ATOM      6  C   UNL     1       5.607   3.581  12.153  0.00  0.00    +0.000 C 
ATOM      7  C   UNL     1       4.333   3.221  11.377  0.00  0.00    +0.000 C 
BRANCH   6   9
ATOM      8  C   UNL     1       6.235   1.330  11.107  0.00  0.00    +0.000 C 
ATOM      9  C   UNL     1       6.723   2.562  11.864  0.00  0.00    +0.000 C 
ENDBRANCH   6   9
ENDBRANCH   2   6
ENDBRANCH   1   3
BRANCH   1  10
ATOM     10  C   UNL     1       6.899   4.509  16.776  0.00  0.00    +0.000 C 
BRANCH  10  11
ATOM     11  S   UNL     1       6.628   5.636  18.193  0.00  0.00    +0.000 S 
BRANCH  11  12
ATOM     12  C   UNL     1       4.986   5.126  18.688  0.00  0.00    +0.000 A 
ATOM     13  C   UNL     1       4.800   3.871  19.276  0.00  0.00    +0.000 A 
ATOM     14  C   UNL     1       3.528   3.460  19.691  0.00  0.00    +0.000 A 
ATOM     15  C   UNL     1       2.424   4.304  19.535  0.00  0.00    +0.000 A 
ATOM     16  C   UNL     1       1.050   3.872  19.964  0.00  0.00    +0.000 C 
ATOM     17  C   UNL     1       2.613   5.569  18.965  0.00  0.00    +0.000 A 
ATOM     18  C   UNL     1       3.885   5.976  18.547  0.00  0.00    +0.000 A 
ENDBRANCH  11  12
ENDBRANCH  10  11
ENDBRANCH   1  10
TORSDOF 6
ENDMDL
MODEL 8
REMARK VINA RESULT:      -6.1      1.737      2.025
REMARK  Name = 
REMARK  9 active torsions:
REMARK  status: ('A' for Active; 'I' for Inactive)
REMARK    1  A    between atoms: C_1  and  C_2
REMARK    2  A    between atoms: C_2  and  C_3
REMARK    3  A    between atoms: C_3  and  C_4
REMARK    4  A    between atoms: C_3  and  N_5
REMARK    5  A    between atoms: C_6  and  C_8
REMARK    6  A    between atoms: C_8  and  C_9
REMARK    7  A    between atoms: C_9  and  S_10
REMARK    8  A    between atoms: S_10  and  C_11
REMARK    9  A    between atoms: C_14  and  C_15
REMARK                            x       y       z     vdW  Elec       q    Type
REMARK                         _______ _______ _______ _____ _____    ______ ____
ROOT
ATOM      1  C   UNL     1       5.150   5.162  15.822  0.00  0.00    +0.000 C 
ENDROOT
BRANCH   1   3
ATOM      2  N   UNL     1       5.622   4.086  13.684  0.00  0.00    +0.000 N 
ATOM      3  C   UNL     1       6.163   4.597  14.847  0.00  0.00    +0.000 C 
ATOM      4  O   UNL     1       7.372   4.579  15.078  0.00  0.00    +0.000 OA
ATOM      5  H   UNL     1       4.624   4.150  13.529  0.00  0.00    +0.000 HD
BRANCH   2   6
ATOM      6  C   UNL     1       6.466   3.497  12.645  0.00  0.00    +0.000 C 
ATOM      7  C   UNL     1       7.215   4.591  11.874  0.00  0.00    +0.000 C 
BRANCH   6   9
ATOM      8  C   UNL     1       4.262   3.195  11.378  0.00  0.00    +0.000 C 
ATOM      9  C   UNL     1       5.643   2.623  11.683  0.00  0.00    +0.000 C 
ENDBRANCH   6   9
ENDBRANCH   2   6
ENDBRANCH   1   3
BRANCH   1  10
ATOM     10  C   UNL     1       5.761   5.258  17.222  0.00  0.00    +0.000 C 
BRANCH  10  11
ATOM     11  S   UNL     1       4.869   6.481  18.250  0.00  0.00    +0.000 S 
BRANCH  11  12
ATOM     12  C   UNL     1       3.814   5.386  19.193  0.00  0.00    +0.000 A 
ATOM     13  C   UNL     1       4.165   4.040  19.333  0.00  0.00    +0.000 A 
ATOM     14  C   UNL     1       3.366   3.169  20.084  0.00  0.00    +0.000 A 
ATOM     15  C   UNL     1       2.211   3.637  20.718  0.00  0.00    +0.000 A 
ATOM     16  C   UNL     1       1.337   2.712  21.518  0.00  0.00    +0.000 C 
ATOM     17  C   UNL     1       1.870   4.989  20.596  0.00  0.00    +0.000 A 
ATOM     18  C   UNL     1       2.667   5.856  19.841  0.00  0.00    +0.000 A 
ENDBRANCH  11  12
ENDBRANCH  10  11
ENDBRANCH   1  10
TORSDOF 6
ENDMDL
MODEL 9
REMARK VINA RESULT:      -6.1      1.323      1.794
REMARK  Name = 
REMARK  9 active torsions:
REMARK  status: ('A' for Active; 'I' for Inactive)
REMARK    1  A    between atoms: C_1  and  C_2
REMARK    2  A    between atoms: C_2  and  C_3
REMARK    3  A    between atoms: C_3  and  C_4
REMARK    4  A    between atoms: C_3  and  N_5
REMARK    5  A    between atoms: C_6  and  C_8
REMARK    6  A    between atoms: C_8  and  C_9
REMARK    7  A    between atoms: C_9  and  S_10
REMARK    8  A    between atoms: S_10  and  C_11
REMARK    9  A    between atoms: C_14  and  C_15
REMARK                            x       y       z     vdW  Elec       q    Type
REMARK                         _______ _______ _______ _____ _____    ______ ____
ROOT
ATOM      1  C   UNL     1       6.069   5.376  16.098  0.00  0.00    +0.000 C 
ENDROOT
BRANCH   1   3
ATOM      2  N   UNL     1       6.017   4.136  13.997  0.00  0.00    +0.000 N 
ATOM      3  C   UNL     1       6.776   4.929  14.834  0.00  0.00    +0.000 C 
ATOM      4  O   UNL     1       7.941   5.236  14.579  0.00  0.00    +0.000 OA
ATOM      5  H   UNL     1       5.055   3.935  14.239  0.00  0.00    +0.000 HD
BRANCH   2   6
ATOM      6  C   UNL     1       6.558   3.616  12.742  0.00  0.00    +0.000 C 
ATOM      7  C   UNL     1       7.184   4.747  11.916  0.00  0.00    +0.000 C 
BRANCH   6   9
ATOM      8  C   UNL     1       5.964   1.567  11.325  0.00  0.00    +0.000 C 
ATOM      9  C   UNL     1       5.478   2.884  11.926  0.00  0.00    +0.000 C 
ENDBRANCH   6   9
ENDBRANCH   2   6
ENDBRANCH   1   3
BRANCH   1  10
ATOM     10  C   UNL     1       6.703   4.711  17.321  0.00  0.00    +0.000 C 
BRANCH  10  11
ATOM     11  S   UNL     1       5.975   5.352  18.873  0.00  0.00    +0.000 S 
BRANCH  11  12
ATOM     12  C   UNL     1       4.415   4.475  18.872  0.00  0.00    +0.000 A 
ATOM     13  C   UNL     1       3.249   5.141  18.483  0.00  0.00    +0.000 A 
ATOM     14  C   UNL     1       2.021   4.469  18.453  0.00  0.00    +0.000 A 
ATOM     15  C   UNL     1       1.944   3.116  18.801  0.00  0.00    +0.000 A 
ATOM     16  C   UNL     1       0.631   2.386  18.786  0.00  0.00    +0.000 C 
ATOM     17  C   UNL     1       3.115   2.444  19.172  0.00  0.00    +0.000 A 
ATOM     18  C   UNL     1       4.341   3.119  19.204  0.00  0.00    +0.000 A 
ENDBRANCH  11  12
ENDBRANCH  10  11
ENDBRANCH   1  10
TORSDOF 6
ENDMDL
