MODEL 1
REMARK VINA RESULT:      -7.8      0.000      0.000
REMARK  Name = 
REMARK  12 active torsions:
REMARK  status: ('A' for Active; 'I' for Inactive)
REMARK    1  A    between atoms: C_1  and  C_2
REMARK    2  A    between atoms: C_2  and  N_3
REMARK    3  A    between atoms: N_3  and  C_4
REMARK    4  A    between atoms: N_3  and  S_6
REMARK    5  A    between atoms: C_4  and  C_5
REMARK    6  A    between atoms: S_6  and  C_9
REMARK    7  A    between atoms: C_13  and  C_14
REMARK    8  A    between atoms: C_17  and  S_18
REMARK    9  A    between atoms: N_19  and  N_20
REMARK   10  A    between atoms: C_21  and  C_22
REMARK   11  A    between atoms: C_25  and  O_26
REMARK   12  A    between atoms: O_26  and  C_27
REMARK                            x       y       z     vdW  Elec       q    Type
REMARK                         _______ _______ _______ _____ _____    ______ ____
ROOT
ATOM      1  C   UNL     1       0.680   9.520  21.265  0.00  0.00    +0.000 A 
ATOM      2  N   UNL     1       0.968   9.465  22.558  0.00  0.00    +0.000 NA
ATOM      3  N   UNL     1       0.188  10.373  23.224  0.00  0.00    +0.000 NA
ATOM      4  C   UNL     1      -0.551  10.983  22.331  0.00  0.00    +0.000 A 
ATOM      5  N   UNL     1      -0.230  10.556  21.050  0.00  0.00    +0.000 N 
ENDROOT
BRANCH   1  10
ATOM      6  C   UNL     1       2.154   6.538  19.443  0.00  0.00    +0.000 A 
ATOM      7  C   UNL     1       2.496   7.108  18.212  0.00  0.00    +0.000 A 
ATOM      8  C   UNL     1       2.255   8.462  18.000  0.00  0.00    +0.000 A 
ATOM      9  C   UNL     1       1.668   9.237  19.006  0.00  0.00    +0.000 A 
ATOM     10  C   UNL     1       1.292   8.669  20.236  0.00  0.00    +0.000 A 
ATOM     11  C   UNL     1       1.551   7.308  20.447  0.00  0.00    +0.000 A 
BRANCH   6  12
ATOM     12  S   UNL     1       2.406   4.796  19.703  0.00  0.00    +0.000 S 
ATOM     13  O   UNL     1       1.328   4.104  19.027  0.00  0.00    +0.000 OA
ATOM     14  O   UNL     1       2.654   4.588  21.115  0.00  0.00    +0.000 OA
BRANCH  12  15
ATOM     15  N   UNL     1       3.870   4.452  18.869  0.00  0.00    +0.000 NA
BRANCH  15  17
ATOM     16  C   UNL     1       6.042   5.626  18.404  0.00  0.00    +0.000 C 
ATOM     17  C   UNL     1       5.087   5.086  19.457  0.00  0.00    +0.000 C 
ENDBRANCH  15  17
BRANCH  15  18
ATOM     18  C   UNL     1       4.021   3.012  18.488  0.00  0.00    +0.000 C 
ATOM     19  C   UNL     1       4.381   2.102  19.651  0.00  0.00    +0.000 C 
ENDBRANCH  15  18
ENDBRANCH  12  15
ENDBRANCH   6  12
ENDBRANCH   1  10
BRANCH   4  20
ATOM     20  S   UNL     1      -1.816  12.100  22.723  0.00  0.00    +0.000 S 
ATOM     21  H   UNL     1      -1.024  13.143  23.005  0.00  0.00    +0.000 HD
ENDBRANCH   4  20
BRANCH   5  22
ATOM     22  N   UNL     1      -0.731  10.945  19.826  0.00  0.00    +0.000 NA
ATOM     23  C   UNL     1      -1.776  10.293  19.425  0.00  0.00    +0.000 C 
BRANCH  23  24
ATOM     24  C   UNL     1      -2.343  10.473  18.074  0.00  0.00    +0.000 A 
ATOM     25  C   UNL     1      -1.825   9.779  16.980  0.00  0.00    +0.000 A 
ATOM     26  C   UNL     1      -2.408   9.947  15.723  0.00  0.00    +0.000 A 
ATOM     27  C   UNL     1      -3.516  10.782  15.555  0.00  0.00    +0.000 A 
ATOM     28  C   UNL     1      -4.020  11.492  16.648  0.00  0.00    +0.000 A 
ATOM     29  C   UNL     1      -3.437  11.330  17.911  0.00  0.00    +0.000 A 
BRANCH  27  30
ATOM     30  O   UNL     1      -3.993  10.853  14.277  0.00  0.00    +0.000 OA
BRANCH  30  31
ATOM     31  C   UNL     1      -3.991   9.635  13.553  0.00  0.00    +0.000 C 
ATOM     32  F   UNL     1      -5.172   9.511  12.901  0.00  0.00    +0.000 F 
ATOM     33  F   UNL     1      -3.027   9.734  12.602  0.00  0.00    +0.000 F 
ENDBRANCH  30  31
ENDBRANCH  27  30
ENDBRANCH  23  24
ENDBRANCH   5  22
TORSDOF 10
ENDMDL
MODEL 2
REMARK VINA RESULT:      -7.4      0.540      1.521
REMARK  Name = 
REMARK  12 active torsions:
REMARK  status: ('A' for Active; 'I' for Inactive)
REMARK    1  A    between atoms: C_1  and  C_2
REMARK    2  A    between atoms: C_2  and  N_3
REMARK    3  A    between atoms: N_3  and  C_4
REMARK    4  A    between atoms: N_3  and  S_6
REMARK    5  A    between atoms: C_4  and  C_5
REMARK    6  A    between atoms: S_6  and  C_9
REMARK    7  A    between atoms: C_13  and  C_14
REMARK    8  A    between atoms: C_17  and  S_18
REMARK    9  A    between atoms: N_19  and  N_20
REMARK   10  A    between atoms: C_21  and  C_22
REMARK   11  A    between atoms: C_25  and  O_26
REMARK   12  A    between atoms: O_26  and  C_27
REMARK                            x       y       z     vdW  Elec       q    Type
REMARK                         _______ _______ _______ _____ _____    ______ ____
ROOT
ATOM      1  C   UNL     1       0.830   9.394  21.034  0.00  0.00    +0.000 A 
ATOM      2  N   UNL     1       1.122   9.476  22.325  0.00  0.00    +0.000 NA
ATOM      3  N   UNL     1       0.380  10.483  22.884  0.00  0.00    +0.000 NA
ATOM      4  C   UNL     1      -0.338  11.016  21.926  0.00  0.00    +0.000 A 
ATOM      5  N   UNL     1      -0.040  10.433  20.703  0.00  0.00    +0.000 N 
ENDROOT
BRANCH   1  10
ATOM      6  C   UNL     1       2.115   6.154  19.541  0.00  0.00    +0.000 A 
ATOM      7  C   UNL     1       2.544   6.581  18.280  0.00  0.00    +0.000 A 
ATOM      8  C   UNL     1       2.422   7.926  17.941  0.00  0.00    +0.000 A 
ATOM      9  C   UNL     1       1.866   8.832  18.851  0.00  0.00    +0.000 A 
ATOM     10  C   UNL     1       1.404   8.409  20.109  0.00  0.00    +0.000 A 
ATOM     11  C   UNL     1       1.543   7.056  20.449  0.00  0.00    +0.000 A 
BRANCH   6  12
ATOM     12  S   UNL     1       2.215   4.427  19.962  0.00  0.00    +0.000 S 
ATOM     13  O   UNL     1       1.171   3.748  19.223  0.00  0.00    +0.000 OA
ATOM     14  O   UNL     1       2.291   4.325  21.405  0.00  0.00    +0.000 OA
BRANCH  12  15
ATOM     15  N   UNL     1       3.733   3.926  19.331  0.00  0.00    +0.000 NA
BRANCH  15  17
ATOM     16  C   UNL     1       3.570   1.727  18.125  0.00  0.00    +0.000 C 
ATOM     17  C   UNL     1       3.663   3.241  18.006  0.00  0.00    +0.000 C 
ENDBRANCH  15  17
BRANCH  15  18
ATOM     18  C   UNL     1       4.808   4.960  19.459  0.00  0.00    +0.000 C 
ATOM     19  C   UNL     1       5.914   4.831  18.422  0.00  0.00    +0.000 C 
ENDBRANCH  15  18
ENDBRANCH  12  15
ENDBRANCH   6  12
ENDBRANCH   1  10
BRANCH   4  20
ATOM     20  S   UNL     1      -1.558  12.219  22.189  0.00  0.00    +0.000 S 
ATOM     21  H   UNL     1      -0.776  13.286  21.975  0.00  0.00    +0.000 HD
ENDBRANCH   4  20
BRANCH   5  22
ATOM     22  N   UNL     1      -0.531  10.699  19.443  0.00  0.00    +0.000 NA
ATOM     23  C   UNL     1      -1.764  10.354  19.246  0.00  0.00    +0.000 C 
BRANCH  23  24
ATOM     24  C   UNL     1      -2.396  10.423  17.915  0.00  0.00    +0.000 A 
ATOM     25  C   UNL     1      -3.518  11.223  17.694  0.00  0.00    +0.000 A 
ATOM     26  C   UNL     1      -4.070  11.291  16.413  0.00  0.00    +0.000 A 
ATOM     27  C   UNL     1      -3.497  10.587  15.350  0.00  0.00    +0.000 A 
ATOM     28  C   UNL     1      -2.386   9.771  15.578  0.00  0.00    +0.000 A 
ATOM     29  C   UNL     1      -1.831   9.695  16.861  0.00  0.00    +0.000 A 
BRANCH  27  30
ATOM     30  O   UNL     1      -4.131  10.746  14.150  0.00  0.00    +0.000 OA
BRANCH  30  31
ATOM     31  C   UNL     1      -4.136   9.610  13.304  0.00  0.00    +0.000 C 
ATOM     32  F   UNL     1      -5.420   9.243  13.070  0.00  0.00    +0.000 F 
ATOM     33  F   UNL     1      -3.616   9.996  12.110  0.00  0.00    +0.000 F 
ENDBRANCH  30  31
ENDBRANCH  27  30
ENDBRANCH  23  24
ENDBRANCH   5  22
TORSDOF 10
ENDMDL
MODEL 3
REMARK VINA RESULT:      -7.4      4.486      8.886
REMARK  Name = 
REMARK  12 active torsions:
REMARK  status: ('A' for Active; 'I' for Inactive)
REMARK    1  A    between atoms: C_1  and  C_2
REMARK    2  A    between atoms: C_2  and  N_3
REMARK    3  A    between atoms: N_3  and  C_4
REMARK    4  A    between atoms: N_3  and  S_6
REMARK    5  A    between atoms: C_4  and  C_5
REMARK    6  A    between atoms: S_6  and  C_9
REMARK    7  A    between atoms: C_13  and  C_14
REMARK    8  A    between atoms: C_17  and  S_18
REMARK    9  A    between atoms: N_19  and  N_20
REMARK   10  A    between atoms: C_21  and  C_22
REMARK   11  A    between atoms: C_25  and  O_26
REMARK   12  A    between atoms: O_26  and  C_27
REMARK                            x       y       z     vdW  Elec       q    Type
REMARK                         _______ _______ _______ _____ _____    ______ ____
ROOT
ATOM      1  C   UNL     1       2.140   5.719  20.064  0.00  0.00    +0.000 A 
ATOM      2  N   UNL     1       1.325   5.045  20.864  0.00  0.00    +0.000 NA
ATOM      3  N   UNL     1       1.829   3.784  21.048  0.00  0.00    +0.000 NA
ATOM      4  C   UNL     1       2.930   3.697  20.345  0.00  0.00    +0.000 A 
ATOM      5  N   UNL     1       3.146   4.861  19.620  0.00  0.00    +0.000 N 
ENDROOT
BRANCH   1  10
ATOM      6  C   UNL     1       1.289   9.414  20.120  0.00  0.00    +0.000 A 
ATOM      7  C   UNL     1       1.580   9.785  18.803  0.00  0.00    +0.000 A 
ATOM      8  C   UNL     1       2.036   8.819  17.910  0.00  0.00    +0.000 A 
ATOM      9  C   UNL     1       2.208   7.497  18.334  0.00  0.00    +0.000 A 
ATOM     10  C   UNL     1       1.947   7.118  19.662  0.00  0.00    +0.000 A 
ATOM     11  C   UNL     1       1.475   8.093  20.552  0.00  0.00    +0.000 A 
BRANCH   6  12
ATOM     12  S   UNL     1       0.759  10.653  21.283  0.00  0.00    +0.000 S 
ATOM     13  O   UNL     1       1.476  11.870  20.964  0.00  0.00    +0.000 OA
ATOM     14  O   UNL     1       0.827  10.076  22.610  0.00  0.00    +0.000 OA
BRANCH  12  15
ATOM     15  N   UNL     1      -0.902  10.896  20.914  0.00  0.00    +0.000 NA
BRANCH  15  17
ATOM     16  C   UNL     1      -2.114  11.838  22.903  0.00  0.00    +0.000 C 
ATOM     17  C   UNL     1      -1.509  12.111  21.534  0.00  0.00    +0.000 C 
ENDBRANCH  15  17
BRANCH  15  18
ATOM     18  C   UNL     1      -1.235  10.683  19.469  0.00  0.00    +0.000 C 
ATOM     19  C   UNL     1      -1.510  11.969  18.705  0.00  0.00    +0.000 C 
ENDBRANCH  15  18
ENDBRANCH  12  15
ENDBRANCH   6  12
ENDBRANCH   1  10
BRANCH   4  20
ATOM     20  S   UNL     1       4.007   2.340  20.399  0.00  0.00    +0.000 S 
ATOM     21  H   UNL     1       3.074   1.408  20.635  0.00  0.00    +0.000 HD
ENDBRANCH   4  20
BRANCH   5  22
ATOM     22  N   UNL     1       4.154   5.191  18.739  0.00  0.00    +0.000 NA
ATOM     23  C   UNL     1       4.059   4.653  17.565  0.00  0.00    +0.000 C 
BRANCH  23  24
ATOM     24  C   UNL     1       5.130   4.774  16.557  0.00  0.00    +0.000 A 
ATOM     25  C   UNL     1       4.950   4.295  15.258  0.00  0.00    +0.000 A 
ATOM     26  C   UNL     1       5.971   4.457  14.320  0.00  0.00    +0.000 A 
ATOM     27  C   UNL     1       7.158   5.113  14.661  0.00  0.00    +0.000 A 
ATOM     28  C   UNL     1       7.343   5.573  15.968  0.00  0.00    +0.000 A 
ATOM     29  C   UNL     1       6.325   5.409  16.914  0.00  0.00    +0.000 A 
BRANCH  27  30
ATOM     30  O   UNL     1       8.071   5.209  13.650  0.00  0.00    +0.000 OA
BRANCH  30  31
ATOM     31  C   UNL     1       7.534   5.415  12.356  0.00  0.00    +0.000 C 
ATOM     32  F   UNL     1       8.242   6.391  11.737  0.00  0.00    +0.000 F 
ATOM     33  F   UNL     1       7.740   4.274  11.649  0.00  0.00    +0.000 F 
ENDBRANCH  30  31
ENDBRANCH  27  30
ENDBRANCH  23  24
ENDBRANCH   5  22
TORSDOF 10
ENDMDL
MODEL 4
REMARK VINA RESULT:      -7.3      0.833      1.640
REMARK  Name = 
REMARK  12 active torsions:
REMARK  status: ('A' for Active; 'I' for Inactive)
REMARK    1  A    between atoms: C_1  and  C_2
REMARK    2  A    between atoms: C_2  and  N_3
REMARK    3  A    between atoms: N_3  and  C_4
REMARK    4  A    between atoms: N_3  and  S_6
REMARK    5  A    between atoms: C_4  and  C_5
REMARK    6  A    between atoms: S_6  and  C_9
REMARK    7  A    between atoms: C_13  and  C_14
REMARK    8  A    between atoms: C_17  and  S_18
REMARK    9  A    between atoms: N_19  and  N_20
REMARK   10  A    between atoms: C_21  and  C_22
REMARK   11  A    between atoms: C_25  and  O_26
REMARK   12  A    between atoms: O_26  and  C_27
REMARK                            x       y       z     vdW  Elec       q    Type
REMARK                         _______ _______ _______ _____ _____    ______ ____
ROOT
ATOM      1  C   UNL     1       0.429  10.122  21.084  0.00  0.00    +0.000 A 
ATOM      2  N   UNL     1       0.800  10.106  22.357  0.00  0.00    +0.000 NA
ATOM      3  N   UNL     1      -0.099  10.836  23.089  0.00  0.00    +0.000 NA
ATOM      4  C   UNL     1      -0.994  11.304  22.255  0.00  0.00    +0.000 A 
ATOM      5  N   UNL     1      -0.674  10.965  20.947  0.00  0.00    +0.000 N 
ENDROOT
BRANCH   1  10
ATOM      6  C   UNL     1       2.222   7.461  19.063  0.00  0.00    +0.000 A 
ATOM      7  C   UNL     1       2.496   8.152  17.878  0.00  0.00    +0.000 A 
ATOM      8  C   UNL     1       2.106   9.482  17.762  0.00  0.00    +0.000 A 
ATOM      9  C   UNL     1       1.438  10.113  18.817  0.00  0.00    +0.000 A 
ATOM     10  C   UNL     1       1.130   9.421  20.001  0.00  0.00    +0.000 A 
ATOM     11  C   UNL     1       1.539   8.085  20.116  0.00  0.00    +0.000 A 
BRANCH   6  12
ATOM     12  S   UNL     1       2.667   5.743  19.200  0.00  0.00    +0.000 S 
ATOM     13  O   UNL     1       1.892   5.023  18.211  0.00  0.00    +0.000 OA
ATOM     14  O   UNL     1       2.609   5.378  20.600  0.00  0.00    +0.000 OA
BRANCH  12  15
ATOM     15  N   UNL     1       4.319   5.696  18.726  0.00  0.00    +0.000 NA
BRANCH  15  17
ATOM     16  C   UNL     1       4.709   3.241  19.089  0.00  0.00    +0.000 C 
ATOM     17  C   UNL     1       5.139   4.661  19.423  0.00  0.00    +0.000 C 
ENDBRANCH  15  17
BRANCH  15  18
ATOM     18  C   UNL     1       4.522   5.780  17.244  0.00  0.00    +0.000 C 
ATOM     19  C   UNL     1       5.767   6.551  16.837  0.00  0.00    +0.000 C 
ENDBRANCH  15  18
ENDBRANCH  12  15
ENDBRANCH   6  12
ENDBRANCH   1  10
BRANCH   4  20
ATOM     20  S   UNL     1      -2.424  12.150  22.746  0.00  0.00    +0.000 S 
ATOM     21  H   UNL     1      -2.108  13.329  22.195  0.00  0.00    +0.000 HD
ENDBRANCH   4  20
BRANCH   5  22
ATOM     22  N   UNL     1      -1.314  11.267  19.764  0.00  0.00    +0.000 NA
ATOM     23  C   UNL     1      -1.940  10.279  19.207  0.00  0.00    +0.000 C 
BRANCH  23  24
ATOM     24  C   UNL     1      -2.542  10.388  17.865  0.00  0.00    +0.000 A 
ATOM     25  C   UNL     1      -3.651  11.205  17.640  0.00  0.00    +0.000 A 
ATOM     26  C   UNL     1      -4.175  11.311  16.350  0.00  0.00    +0.000 A 
ATOM     27  C   UNL     1      -3.586  10.629  15.282  0.00  0.00    +0.000 A 
ATOM     28  C   UNL     1      -2.488   9.796  15.513  0.00  0.00    +0.000 A 
ATOM     29  C   UNL     1      -1.962   9.682  16.805  0.00  0.00    +0.000 A 
BRANCH  27  30
ATOM     30  O   UNL     1      -4.192  10.825  14.073  0.00  0.00    +0.000 OA
BRANCH  30  31
ATOM     31  C   UNL     1      -4.203   9.706  13.204  0.00  0.00    +0.000 C 
ATOM     32  F   UNL     1      -5.161   9.892  12.263  0.00  0.00    +0.000 F 
ATOM     33  F   UNL     1      -3.012   9.690  12.552  0.00  0.00    +0.000 F 
ENDBRANCH  30  31
ENDBRANCH  27  30
ENDBRANCH  23  24
ENDBRANCH   5  22
TORSDOF 10
ENDMDL
MODEL 5
REMARK VINA RESULT:      -7.1      1.240      1.622
REMARK  Name = 
REMARK  12 active torsions:
REMARK  status: ('A' for Active; 'I' for Inactive)
REMARK    1  A    between atoms: C_1  and  C_2
REMARK    2  A    between atoms: C_2  and  N_3
REMARK    3  A    between atoms: N_3  and  C_4
REMARK    4  A    between atoms: N_3  and  S_6
REMARK    5  A    between atoms: C_4  and  C_5
REMARK    6  A    between atoms: S_6  and  C_9
REMARK    7  A    between atoms: C_13  and  C_14
REMARK    8  A    between atoms: C_17  and  S_18
REMARK    9  A    between atoms: N_19  and  N_20
REMARK   10  A    between atoms: C_21  and  C_22
REMARK   11  A    between atoms: C_25  and  O_26
REMARK   12  A    between atoms: O_26  and  C_27
REMARK                            x       y       z     vdW  Elec       q    Type
REMARK                         _______ _______ _______ _____ _____    ______ ____
ROOT
ATOM      1  C   UNL     1       0.715   9.489  21.351  0.00  0.00    +0.000 A 
ATOM      2  N   UNL     1       0.992   9.420  22.646  0.00  0.00    +0.000 NA
ATOM      3  N   UNL     1       0.178  10.291  23.321  0.00  0.00    +0.000 NA
ATOM      4  C   UNL     1      -0.570  10.894  22.431  0.00  0.00    +0.000 A 
ATOM      5  N   UNL     1      -0.223  10.501  21.146  0.00  0.00    +0.000 N 
ENDROOT
BRANCH   1  10
ATOM      6  C   UNL     1       2.539   6.684  19.567  0.00  0.00    +0.000 A 
ATOM      7  C   UNL     1       2.617   7.189  18.265  0.00  0.00    +0.000 A 
ATOM      8  C   UNL     1       2.086   8.446  17.991  0.00  0.00    +0.000 A 
ATOM      9  C   UNL     1       1.474   9.186  19.008  0.00  0.00    +0.000 A 
ATOM     10  C   UNL     1       1.363   8.677  20.314  0.00  0.00    +0.000 A 
ATOM     11  C   UNL     1       1.913   7.417  20.585  0.00  0.00    +0.000 A 
BRANCH   6  12
ATOM     12  S   UNL     1       3.165   5.054  19.914  0.00  0.00    +0.000 S 
ATOM     13  O   UNL     1       2.720   4.703  21.247  0.00  0.00    +0.000 OA
ATOM     14  O   UNL     1       4.572   5.035  19.570  0.00  0.00    +0.000 OA
BRANCH  12  15
ATOM     15  N   UNL     1       2.348   4.041  18.791  0.00  0.00    +0.000 NA
BRANCH  15  17
ATOM     16  C   UNL     1       3.561   2.049  17.856  0.00  0.00    +0.000 C 
ATOM     17  C   UNL     1       3.204   3.518  17.685  0.00  0.00    +0.000 C 
ENDBRANCH  15  17
BRANCH  15  18
ATOM     18  C   UNL     1       1.451   3.030  19.436  0.00  0.00    +0.000 C 
ATOM     19  C   UNL     1       0.383   2.473  18.506  0.00  0.00    +0.000 C 
ENDBRANCH  15  18
ENDBRANCH  12  15
ENDBRANCH   6  12
ENDBRANCH   1  10
BRANCH   4  20
ATOM     20  S   UNL     1      -1.873  11.965  22.830  0.00  0.00    +0.000 S 
ATOM     21  H   UNL     1      -1.899  11.700  24.143  0.00  0.00    +0.000 HD
ENDBRANCH   4  20
BRANCH   5  22
ATOM     22  N   UNL     1      -0.723  10.897  19.924  0.00  0.00    +0.000 NA
ATOM     23  C   UNL     1      -1.711  10.188  19.475  0.00  0.00    +0.000 C 
BRANCH  23  24
ATOM     24  C   UNL     1      -2.259  10.376  18.119  0.00  0.00    +0.000 A 
ATOM     25  C   UNL     1      -3.235   9.516  17.614  0.00  0.00    +0.000 A 
ATOM     26  C   UNL     1      -3.757   9.743  16.340  0.00  0.00    +0.000 A 
ATOM     27  C   UNL     1      -3.331  10.834  15.576  0.00  0.00    +0.000 A 
ATOM     28  C   UNL     1      -2.339  11.682  16.076  0.00  0.00    +0.000 A 
ATOM     29  C   UNL     1      -1.808  11.456  17.352  0.00  0.00    +0.000 A 
BRANCH  27  30
ATOM     30  O   UNL     1      -3.925  10.945  14.352  0.00  0.00    +0.000 OA
BRANCH  30  31
ATOM     31  C   UNL     1      -3.766   9.833  13.489  0.00  0.00    +0.000 C 
ATOM     32  F   UNL     1      -4.249  10.155  12.265  0.00  0.00    +0.000 F 
ATOM     33  F   UNL     1      -2.432   9.627  13.341  0.00  0.00    +0.000 F 
ENDBRANCH  30  31
ENDBRANCH  27  30
ENDBRANCH  23  24
ENDBRANCH   5  22
TORSDOF 10
ENDMDL
MODEL 6
REMARK VINA RESULT:      -7.1      1.378      2.118
REMARK  Name = 
REMARK  12 active torsions:
REMARK  status: ('A' for Active; 'I' for Inactive)
REMARK    1  A    between atoms: C_1  and  C_2
REMARK    2  A    between atoms: C_2  and  N_3
REMARK    3  A    between atoms: N_3  and  C_4
REMARK    4  A    between atoms: N_3  and  S_6
REMARK    5  A    between atoms: C_4  and  C_5
REMARK    6  A    between atoms: S_6  and  C_9
REMARK    7  A    between atoms: C_13  and  C_14
REMARK    8  A    between atoms: C_17  and  S_18
REMARK    9  A    between atoms: N_19  and  N_20
REMARK   10  A    between atoms: C_21  and  C_22
REMARK   11  A    between atoms: C_25  and  O_26
REMARK   12  A    between atoms: O_26  and  C_27
REMARK                            x       y       z     vdW  Elec       q    Type
REMARK                         _______ _______ _______ _____ _____    ______ ____
ROOT
ATOM      1  C   UNL     1       1.035   9.225  21.067  0.00  0.00    +0.000 A 
ATOM      2  N   UNL     1       1.388   9.066  22.335  0.00  0.00    +0.000 NA
ATOM      3  N   UNL     1       0.578   9.842  23.121  0.00  0.00    +0.000 NA
ATOM      4  C   UNL     1      -0.244  10.479  22.324  0.00  0.00    +0.000 A 
ATOM      5  N   UNL     1       0.045  10.205  20.995  0.00  0.00    +0.000 N 
ENDROOT
BRANCH   1  10
ATOM      6  C   UNL     1       2.815   6.629  18.951  0.00  0.00    +0.000 A 
ATOM      7  C   UNL     1       2.856   7.267  17.707  0.00  0.00    +0.000 A 
ATOM      8  C   UNL     1       2.316   8.544  17.580  0.00  0.00    +0.000 A 
ATOM      9  C   UNL     1       1.731   9.171  18.685  0.00  0.00    +0.000 A 
ATOM     10  C   UNL     1       1.656   8.528  19.933  0.00  0.00    +0.000 A 
ATOM     11  C   UNL     1       2.215   7.249  20.056  0.00  0.00    +0.000 A 
BRANCH   6  12
ATOM     12  S   UNL     1       3.452   4.975  19.109  0.00  0.00    +0.000 S 
ATOM     13  O   UNL     1       4.597   5.043  19.993  0.00  0.00    +0.000 OA
ATOM     14  O   UNL     1       3.572   4.415  17.779  0.00  0.00    +0.000 OA
BRANCH  12  15
ATOM     15  N   UNL     1       2.201   4.116  19.916  0.00  0.00    +0.000 NA
BRANCH  15  17
ATOM     16  C   UNL     1       0.938   2.371  18.623  0.00  0.00    +0.000 C 
ATOM     17  C   UNL     1       1.002   3.821  19.076  0.00  0.00    +0.000 C 
ENDBRANCH  15  17
BRANCH  15  18
ATOM     18  C   UNL     1       2.696   2.971  20.745  0.00  0.00    +0.000 C 
ATOM     19  C   UNL     1       1.818   2.656  21.946  0.00  0.00    +0.000 C 
ENDBRANCH  15  18
ENDBRANCH  12  15
ENDBRANCH   6  12
ENDBRANCH   1  10
BRANCH   4  20
ATOM     20  S   UNL     1      -1.566  11.454  22.879  0.00  0.00    +0.000 S 
ATOM     21  H   UNL     1      -1.149  11.579  24.146  0.00  0.00    +0.000 HD
ENDBRANCH   4  20
BRANCH   5  22
ATOM     22  N   UNL     1      -0.540  10.673  19.838  0.00  0.00    +0.000 NA
ATOM     23  C   UNL     1      -1.591  10.024  19.449  0.00  0.00    +0.000 C 
BRANCH  23  24
ATOM     24  C   UNL     1      -2.245  10.292  18.153  0.00  0.00    +0.000 A 
ATOM     25  C   UNL     1      -3.374  11.108  18.075  0.00  0.00    +0.000 A 
ATOM     26  C   UNL     1      -3.946  11.368  16.829  0.00  0.00    +0.000 A 
ATOM     27  C   UNL     1      -3.388  10.840  15.661  0.00  0.00    +0.000 A 
ATOM     28  C   UNL     1      -2.270  10.007  15.744  0.00  0.00    +0.000 A 
ATOM     29  C   UNL     1      -1.694   9.738  16.992  0.00  0.00    +0.000 A 
BRANCH  27  30
ATOM     30  O   UNL     1      -4.042  11.177  14.510  0.00  0.00    +0.000 OA
BRANCH  30  31
ATOM     31  C   UNL     1      -4.121  10.159  13.529  0.00  0.00    +0.000 C 
ATOM     32  F   UNL     1      -2.869   9.852  13.112  0.00  0.00    +0.000 F 
ATOM     33  F   UNL     1      -4.613   9.050  14.139  0.00  0.00    +0.000 F 
ENDBRANCH  30  31
ENDBRANCH  27  30
ENDBRANCH  23  24
ENDBRANCH   5  22
TORSDOF 10
ENDMDL
MODEL 7
REMARK VINA RESULT:      -7.1      4.396      8.775
REMARK  Name = 
REMARK  12 active torsions:
REMARK  status: ('A' for Active; 'I' for Inactive)
REMARK    1  A    between atoms: C_1  and  C_2
REMARK    2  A    between atoms: C_2  and  N_3
REMARK    3  A    between atoms: N_3  and  C_4
REMARK    4  A    between atoms: N_3  and  S_6
REMARK    5  A    between atoms: C_4  and  C_5
REMARK    6  A    between atoms: S_6  and  C_9
REMARK    7  A    between atoms: C_13  and  C_14
REMARK    8  A    between atoms: C_17  and  S_18
REMARK    9  A    between atoms: N_19  and  N_20
REMARK   10  A    between atoms: C_21  and  C_22
REMARK   11  A    between atoms: C_25  and  O_26
REMARK   12  A    between atoms: O_26  and  C_27
REMARK                            x       y       z     vdW  Elec       q    Type
REMARK                         _______ _______ _______ _____ _____    ______ ____
ROOT
ATOM      1  C   UNL     1       2.184   5.886  20.022  0.00  0.00    +0.000 A 
ATOM      2  N   UNL     1       1.402   5.298  20.917  0.00  0.00    +0.000 NA
ATOM      3  N   UNL     1       1.895   4.047  21.180  0.00  0.00    +0.000 NA
ATOM      4  C   UNL     1       2.955   3.879  20.430  0.00  0.00    +0.000 A 
ATOM      5  N   UNL     1       3.151   4.973  19.600  0.00  0.00    +0.000 N 
ENDROOT
BRANCH   1  10
ATOM      6  C   UNL     1       1.175   9.530  19.736  0.00  0.00    +0.000 A 
ATOM      7  C   UNL     1       1.643   9.847  18.457  0.00  0.00    +0.000 A 
ATOM      8  C   UNL     1       2.269   8.862  17.699  0.00  0.00    +0.000 A 
ATOM      9  C   UNL     1       2.433   7.574  18.220  0.00  0.00    +0.000 A 
ATOM     10  C   UNL     1       1.993   7.251  19.516  0.00  0.00    +0.000 A 
ATOM     11  C   UNL     1       1.351   8.245  20.267  0.00  0.00    +0.000 A 
BRANCH   6  12
ATOM     12  S   UNL     1       0.424  10.798  20.734  0.00  0.00    +0.000 S 
ATOM     13  O   UNL     1       1.499  11.542  21.356  0.00  0.00    +0.000 OA
ATOM     14  O   UNL     1      -0.613  10.179  21.535  0.00  0.00    +0.000 OA
BRANCH  12  15
ATOM     15  N   UNL     1      -0.353  11.827  19.596  0.00  0.00    +0.000 NA
BRANCH  15  17
ATOM     16  C   UNL     1      -2.181  10.701  18.291  0.00  0.00    +0.000 C 
ATOM     17  C   UNL     1      -1.823  11.608  19.459  0.00  0.00    +0.000 C 
ENDBRANCH  15  17
BRANCH  15  18
ATOM     18  C   UNL     1       0.073  13.259  19.692  0.00  0.00    +0.000 C 
ATOM     19  C   UNL     1       1.183  13.637  18.724  0.00  0.00    +0.000 C 
ENDBRANCH  15  18
ENDBRANCH  12  15
ENDBRANCH   6  12
ENDBRANCH   1  10
BRANCH   4  20
ATOM     20  S   UNL     1       4.010   2.508  20.541  0.00  0.00    +0.000 S 
ATOM     21  H   UNL     1       4.304   2.429  19.236  0.00  0.00    +0.000 HD
ENDBRANCH   4  20
BRANCH   5  22
ATOM     22  N   UNL     1       4.115   5.208  18.643  0.00  0.00    +0.000 NA
ATOM     23  C   UNL     1       3.834   4.770  17.457  0.00  0.00    +0.000 C 
BRANCH  23  24
ATOM     24  C   UNL     1       4.817   4.798  16.356  0.00  0.00    +0.000 A 
ATOM     25  C   UNL     1       5.126   5.990  15.701  0.00  0.00    +0.000 A 
ATOM     26  C   UNL     1       6.086   5.986  14.687  0.00  0.00    +0.000 A 
ATOM     27  C   UNL     1       6.755   4.809  14.340  0.00  0.00    +0.000 A 
ATOM     28  C   UNL     1       6.429   3.612  14.984  0.00  0.00    +0.000 A 
ATOM     29  C   UNL     1       5.464   3.609  15.999  0.00  0.00    +0.000 A 
BRANCH  27  30
ATOM     30  O   UNL     1       7.673   4.945  13.338  0.00  0.00    +0.000 OA
BRANCH  30  31
ATOM     31  C   UNL     1       7.364   4.279  12.127  0.00  0.00    +0.000 C 
ATOM     32  F   UNL     1       6.086   3.830  12.187  0.00  0.00    +0.000 F 
ATOM     33  F   UNL     1       7.407   5.205  11.136  0.00  0.00    +0.000 F 
ENDBRANCH  30  31
ENDBRANCH  27  30
ENDBRANCH  23  24
ENDBRANCH   5  22
TORSDOF 10
ENDMDL
MODEL 8
REMARK VINA RESULT:      -7.0      4.489      8.945
REMARK  Name = 
REMARK  12 active torsions:
REMARK  status: ('A' for Active; 'I' for Inactive)
REMARK    1  A    between atoms: C_1  and  C_2
REMARK    2  A    between atoms: C_2  and  N_3
REMARK    3  A    between atoms: N_3  and  C_4
REMARK    4  A    between atoms: N_3  and  S_6
REMARK    5  A    between atoms: C_4  and  C_5
REMARK    6  A    between atoms: S_6  and  C_9
REMARK    7  A    between atoms: C_13  and  C_14
REMARK    8  A    between atoms: C_17  and  S_18
REMARK    9  A    between atoms: N_19  and  N_20
REMARK   10  A    between atoms: C_21  and  C_22
REMARK   11  A    between atoms: C_25  and  O_26
REMARK   12  A    between atoms: O_26  and  C_27
REMARK                            x       y       z     vdW  Elec       q    Type
REMARK                         _______ _______ _______ _____ _____    ______ ____
ROOT
ATOM      1  C   UNL     1       2.347   5.844  19.926  0.00  0.00    +0.000 A 
ATOM      2  N   UNL     1       1.914   5.528  21.139  0.00  0.00    +0.000 NA
ATOM      3  N   UNL     1       2.253   4.228  21.405  0.00  0.00    +0.000 NA
ATOM      4  C   UNL     1       2.868   3.760  20.347  0.00  0.00    +0.000 A 
ATOM      5  N   UNL     1       2.887   4.703  19.330  0.00  0.00    +0.000 N 
ENDROOT
BRANCH   1  10
ATOM      6  C   UNL     1       1.286   9.419  19.237  0.00  0.00    +0.000 A 
ATOM      7  C   UNL     1       1.941   9.673  18.027  0.00  0.00    +0.000 A 
ATOM      8  C   UNL     1       2.708   8.668  17.445  0.00  0.00    +0.000 A 
ATOM      9  C   UNL     1       2.826   7.423  18.073  0.00  0.00    +0.000 A 
ATOM     10  C   UNL     1       2.198   7.165  19.303  0.00  0.00    +0.000 A 
ATOM     11  C   UNL     1       1.416   8.178  19.876  0.00  0.00    +0.000 A 
BRANCH   6  12
ATOM     12  S   UNL     1       0.350  10.716  20.016  0.00  0.00    +0.000 S 
ATOM     13  O   UNL     1       1.262  11.816  20.252  0.00  0.00    +0.000 OA
ATOM     14  O   UNL     1      -0.404  10.129  21.105  0.00  0.00    +0.000 OA
BRANCH  12  15
ATOM     15  N   UNL     1      -0.779  11.203  18.815  0.00  0.00    +0.000 NA
BRANCH  15  17
ATOM     16  C   UNL     1      -1.945   9.961  16.968  0.00  0.00    +0.000 C 
ATOM     17  C   UNL     1      -1.804  10.174  18.467  0.00  0.00    +0.000 C 
ENDBRANCH  15  17
BRANCH  15  18
ATOM     18  C   UNL     1      -1.308  12.589  19.013  0.00  0.00    +0.000 C 
ATOM     19  C   UNL     1      -2.542  12.656  19.900  0.00  0.00    +0.000 C 
ENDBRANCH  15  18
ENDBRANCH  12  15
ENDBRANCH   6  12
ENDBRANCH   1  10
BRANCH   4  20
ATOM     20  S   UNL     1       3.629   2.204  20.281  0.00  0.00    +0.000 S 
ATOM     21  H   UNL     1       2.585   1.498  20.736  0.00  0.00    +0.000 HD
ENDBRANCH   4  20
BRANCH   5  22
ATOM     22  N   UNL     1       3.398   4.630  18.052  0.00  0.00    +0.000 NA
ATOM     23  C   UNL     1       4.683   4.481  17.979  0.00  0.00    +0.000 C 
BRANCH  23  24
ATOM     24  C   UNL     1       5.409   4.541  16.696  0.00  0.00    +0.000 A 
ATOM     25  C   UNL     1       6.795   4.699  16.663  0.00  0.00    +0.000 A 
ATOM     26  C   UNL     1       7.454   4.717  15.433  0.00  0.00    +0.000 A 
ATOM     27  C   UNL     1       6.744   4.555  14.239  0.00  0.00    +0.000 A 
ATOM     28  C   UNL     1       5.354   4.418  14.274  0.00  0.00    +0.000 A 
ATOM     29  C   UNL     1       4.688   4.403  15.505  0.00  0.00    +0.000 A 
BRANCH  27  30
ATOM     30  O   UNL     1       7.510   4.586  13.108  0.00  0.00    +0.000 OA
BRANCH  30  31
ATOM     31  C   UNL     1       7.983   5.864  12.722  0.00  0.00    +0.000 C 
ATOM     32  F   UNL     1       9.310   5.940  12.991  0.00  0.00    +0.000 F 
ATOM     33  F   UNL     1       7.852   5.951  11.373  0.00  0.00    +0.000 F 
ENDBRANCH  30  31
ENDBRANCH  27  30
ENDBRANCH  23  24
ENDBRANCH   5  22
TORSDOF 10
ENDMDL
MODEL 9
REMARK VINA RESULT:      -7.0      4.385      5.247
REMARK  Name = 
REMARK  12 active torsions:
REMARK  status: ('A' for Active; 'I' for Inactive)
REMARK    1  A    between atoms: C_1  and  C_2
REMARK    2  A    between atoms: C_2  and  N_3
REMARK    3  A    between atoms: N_3  and  C_4
REMARK    4  A    between atoms: N_3  and  S_6
REMARK    5  A    between atoms: C_4  and  C_5
REMARK    6  A    between atoms: S_6  and  C_9
REMARK    7  A    between atoms: C_13  and  C_14
REMARK    8  A    between atoms: C_17  and  S_18
REMARK    9  A    between atoms: N_19  and  N_20
REMARK   10  A    between atoms: C_21  and  C_22
REMARK   11  A    between atoms: C_25  and  O_26
REMARK   12  A    between atoms: O_26  and  C_27
REMARK                            x       y       z     vdW  Elec       q    Type
REMARK                         _______ _______ _______ _____ _____    ______ ____
ROOT
ATOM      1  C   UNL     1       0.530   9.199  21.040  0.00  0.00    +0.000 A 
ATOM      2  N   UNL     1       0.172   8.452  22.076  0.00  0.00    +0.000 NA
ATOM      3  N   UNL     1      -0.555   9.222  22.946  0.00  0.00    +0.000 NA
ATOM      4  C   UNL     1      -0.614  10.430  22.443  0.00  0.00    +0.000 A 
ATOM      5  N   UNL     1       0.130  10.515  21.274  0.00  0.00    +0.000 N 
ENDROOT
BRANCH   1  10
ATOM      6  C   UNL     1       2.678   7.055  18.767  0.00  0.00    +0.000 A 
ATOM      7  C   UNL     1       2.765   7.862  17.627  0.00  0.00    +0.000 A 
ATOM      8  C   UNL     1       2.133   9.102  17.623  0.00  0.00    +0.000 A 
ATOM      9  C   UNL     1       1.413   9.527  18.745  0.00  0.00    +0.000 A 
ATOM     10  C   UNL     1       1.294   8.713  19.884  0.00  0.00    +0.000 A 
ATOM     11  C   UNL     1       1.945   7.471  19.887  0.00  0.00    +0.000 A 
BRANCH   6  12
ATOM     12  S   UNL     1       3.435   5.445  18.760  0.00  0.00    +0.000 S 
ATOM     13  O   UNL     1       4.499   5.471  19.743  0.00  0.00    +0.000 OA
ATOM     14  O   UNL     1       3.703   5.084  17.383  0.00  0.00    +0.000 OA
BRANCH  12  15
ATOM     15  N   UNL     1       2.200   4.395  19.334  0.00  0.00    +0.000 NA
BRANCH  15  17
ATOM     16  C   UNL     1       2.199   2.293  17.958  0.00  0.00    +0.000 C 
ATOM     17  C   UNL     1       1.505   3.610  18.272  0.00  0.00    +0.000 C 
ENDBRANCH  15  17
BRANCH  15  18
ATOM     18  C   UNL     1       2.592   3.616  20.551  0.00  0.00    +0.000 C 
ATOM     19  C   UNL     1       1.410   3.085  21.348  0.00  0.00    +0.000 C 
ENDBRANCH  15  18
ENDBRANCH  12  15
ENDBRANCH   6  12
ENDBRANCH   1  10
BRANCH   4  20
ATOM     20  S   UNL     1      -1.572  11.709  23.113  0.00  0.00    +0.000 S 
ATOM     21  H   UNL     1      -2.766  11.139  22.904  0.00  0.00    +0.000 HD
ENDBRANCH   4  20
BRANCH   5  22
ATOM     22  N   UNL     1       0.364  11.587  20.441  0.00  0.00    +0.000 NA
ATOM     23  C   UNL     1       1.386  12.318  20.756  0.00  0.00    +0.000 C 
BRANCH  23  24
ATOM     24  C   UNL     1       1.686  13.588  20.066  0.00  0.00    +0.000 A 
ATOM     25  C   UNL     1       0.679  14.312  19.427  0.00  0.00    +0.000 A 
ATOM     26  C   UNL     1       0.992  15.527  18.814  0.00  0.00    +0.000 A 
ATOM     27  C   UNL     1       2.294  16.034  18.855  0.00  0.00    +0.000 A 
ATOM     28  C   UNL     1       3.305  15.297  19.478  0.00  0.00    +0.000 A 
ATOM     29  C   UNL     1       2.998  14.076  20.090  0.00  0.00    +0.000 A 
BRANCH  27  30
ATOM     30  O   UNL     1       2.463  17.233  18.222  0.00  0.00    +0.000 OA
BRANCH  30  31
ATOM     31  C   UNL     1       3.055  17.171  16.937  0.00  0.00    +0.000 C 
ATOM     32  F   UNL     1       3.157  15.873  16.563  0.00  0.00    +0.000 F 
ATOM     33  F   UNL     1       2.193  17.761  16.069  0.00  0.00    +0.000 F 
ENDBRANCH  30  31
ENDBRANCH  27  30
ENDBRANCH  23  24
ENDBRANCH   5  22
TORSDOF 10
ENDMDL
