MODEL 1
REMARK VINA RESULT:      -6.4      0.000      0.000
REMARK  Name = 
REMARK  9 active torsions:
REMARK  status: ('A' for Active; 'I' for Inactive)
REMARK    1  A    between atoms: C_1  and  C_2
REMARK    2  A    between atoms: C_2  and  C_3
REMARK    3  A    between atoms: C_2  and  O_4
REMARK    4  A    between atoms: O_4  and  C_5
REMARK    5  A    between atoms: C_9  and  C_10
REMARK    6  A    between atoms: C_10  and  N_11
REMARK    7  A    between atoms: N_11  and  C_12
REMARK    8  A    between atoms: N_11  and  C_13
REMARK    9  A    between atoms: N_16  and  C_17
REMARK                            x       y       z     vdW  Elec       q    Type
REMARK                         _______ _______ _______ _____ _____    ______ ____
ROOT
ATOM      1  C   UNL     1       3.718   5.460  18.588  0.00  0.00    +0.000 A 
ATOM      2  C   UNL     1       2.786   5.952  19.524  0.00  0.00    +0.000 A 
ATOM      3 CL   UNL     1       2.289   5.004  20.888  0.00  0.00    +0.000 Cl
ATOM      4  C   UNL     1       2.206   7.225  19.387  0.00  0.00    +0.000 A 
ATOM      5  C   UNL     1       2.553   8.049  18.313  0.00  0.00    +0.000 A 
ATOM      6  C   UNL     1       3.537   7.598  17.426  0.00  0.00    +0.000 A 
ATOM      7  C   UNL     1       4.139   6.335  17.581  0.00  0.00    +0.000 A 
ATOM      8 CL   UNL     1       5.460   6.014  16.511  0.00  0.00    +0.000 Cl
ENDROOT
BRANCH   1   9
ATOM      9  O   UNL     1       4.178   4.186  18.812  0.00  0.00    +0.000 OA
BRANCH   9  11
ATOM     10  C   UNL     1       3.635   1.870  18.871  0.00  0.00    +0.000 C 
ATOM     11  C   UNL     1       3.724   3.109  17.978  0.00  0.00    +0.000 C 
ATOM     12  C   UNL     1       2.365   3.359  17.326  0.00  0.00    +0.000 C 
ENDBRANCH   9  11
ENDBRANCH   1   9
BRANCH   5  13
ATOM     13  C   UNL     1       1.827   9.362  18.072  0.00  0.00    +0.000 C 
BRANCH  13  14
ATOM     14  N   UNL     1       0.657   9.565  18.949  0.00  0.00    +0.000 NA
ATOM     15  C   UNL     1      -0.461  10.147  18.203  0.00  0.00    +0.000 C 
BRANCH  14  16
ATOM     16  C   UNL     1       0.972  10.383  20.147  0.00  0.00    +0.000 C 
ATOM     17  C   UNL     1       0.470  11.834  20.000  0.00  0.00    +0.000 C 
ATOM     18  C   UNL     1      -0.231  12.150  21.316  0.00  0.00    +0.000 C 
ATOM     19  N   UNL     1      -0.707  10.841  21.765  0.00  0.00    +0.000 NA
ATOM     20  C   UNL     1      -1.141  10.855  23.153  0.00  0.00    +0.000 C 
ATOM     21  C   UNL     1       0.416   9.931  21.521  0.00  0.00    +0.000 C 
ENDBRANCH  14  16
ENDBRANCH  13  14
ENDBRANCH   5  13
TORSDOF 5
ENDMDL
MODEL 2
REMARK VINA RESULT:      -6.3      3.364      7.416
REMARK  Name = 
REMARK  9 active torsions:
REMARK  status: ('A' for Active; 'I' for Inactive)
REMARK    1  A    between atoms: C_1  and  C_2
REMARK    2  A    between atoms: C_2  and  C_3
REMARK    3  A    between atoms: C_2  and  O_4
REMARK    4  A    between atoms: O_4  and  C_5
REMARK    5  A    between atoms: C_9  and  C_10
REMARK    6  A    between atoms: C_10  and  N_11
REMARK    7  A    between atoms: N_11  and  C_12
REMARK    8  A    between atoms: N_11  and  C_13
REMARK    9  A    between atoms: N_16  and  C_17
REMARK                            x       y       z     vdW  Elec       q    Type
REMARK                         _______ _______ _______ _____ _____    ______ ____
ROOT
ATOM      1  C   UNL     1       0.902   9.422  19.984  0.00  0.00    +0.000 A 
ATOM      2  C   UNL     1       1.723   8.965  18.933  0.00  0.00    +0.000 A 
ATOM      3 CL   UNL     1       2.060   9.958  17.552  0.00  0.00    +0.000 Cl
ATOM      4  C   UNL     1       2.293   7.680  18.949  0.00  0.00    +0.000 A 
ATOM      5  C   UNL     1       2.068   6.819  20.027  0.00  0.00    +0.000 A 
ATOM      6  C   UNL     1       1.320   7.298  21.108  0.00  0.00    +0.000 A 
ATOM      7  C   UNL     1       0.774   8.594  21.105  0.00  0.00    +0.000 A 
ATOM      8 CL   UNL     1       0.039   9.087  22.592  0.00  0.00    +0.000 Cl
ENDROOT
BRANCH   1   9
ATOM      9  O   UNL     1       0.372  10.679  19.828  0.00  0.00    +0.000 OA
BRANCH   9  11
ATOM     10  C   UNL     1      -1.454  12.132  20.295  0.00  0.00    +0.000 C 
ATOM     11  C   UNL     1      -1.038  10.833  19.602  0.00  0.00    +0.000 C 
ATOM     12  C   UNL     1      -1.426  10.903  18.125  0.00  0.00    +0.000 C 
ENDBRANCH   9  11
ENDBRANCH   1   9
BRANCH   5  13
ATOM     13  C   UNL     1       2.555   5.380  19.988  0.00  0.00    +0.000 C 
BRANCH  13  14
ATOM     14  N   UNL     1       2.735   4.849  18.623  0.00  0.00    +0.000 NA
ATOM     15  C   UNL     1       1.629   3.961  18.257  0.00  0.00    +0.000 C 
BRANCH  14  16
ATOM     16  C   UNL     1       4.040   4.165  18.440  0.00  0.00    +0.000 C 
ATOM     17  C   UNL     1       4.444   4.085  16.954  0.00  0.00    +0.000 C 
ATOM     18  C   UNL     1       5.904   4.521  16.912  0.00  0.00    +0.000 C 
ATOM     19  N   UNL     1       6.016   5.429  18.055  0.00  0.00    +0.000 NA
ATOM     20  C   UNL     1       7.398   5.729  18.391  0.00  0.00    +0.000 C 
ATOM     21  C   UNL     1       5.291   4.757  19.137  0.00  0.00    +0.000 C 
ENDBRANCH  14  16
ENDBRANCH  13  14
ENDBRANCH   5  13
TORSDOF 5
ENDMDL
MODEL 3
REMARK VINA RESULT:      -6.2      0.330      2.020
REMARK  Name = 
REMARK  9 active torsions:
REMARK  status: ('A' for Active; 'I' for Inactive)
REMARK    1  A    between atoms: C_1  and  C_2
REMARK    2  A    between atoms: C_2  and  C_3
REMARK    3  A    between atoms: C_2  and  O_4
REMARK    4  A    between atoms: O_4  and  C_5
REMARK    5  A    between atoms: C_9  and  C_10
REMARK    6  A    between atoms: C_10  and  N_11
REMARK    7  A    between atoms: N_11  and  C_12
REMARK    8  A    between atoms: N_11  and  C_13
REMARK    9  A    between atoms: N_16  and  C_17
REMARK                            x       y       z     vdW  Elec       q    Type
REMARK                         _______ _______ _______ _____ _____    ______ ____
ROOT
ATOM      1  C   UNL     1       3.747   5.635  18.681  0.00  0.00    +0.000 A 
ATOM      2  C   UNL     1       4.009   6.426  17.544  0.00  0.00    +0.000 A 
ATOM      3 CL   UNL     1       5.147   5.922  16.337  0.00  0.00    +0.000 Cl
ATOM      4  C   UNL     1       3.372   7.663  17.344  0.00  0.00    +0.000 A 
ATOM      5  C   UNL     1       2.442   8.139  18.272  0.00  0.00    +0.000 A 
ATOM      6  C   UNL     1       2.120   7.322  19.361  0.00  0.00    +0.000 A 
ATOM      7  C   UNL     1       2.736   6.071  19.546  0.00  0.00    +0.000 A 
ATOM      8 CL   UNL     1       2.088   5.115  20.835  0.00  0.00    +0.000 Cl
ENDROOT
BRANCH   1   9
ATOM      9  O   UNL     1       4.465   4.470  18.781  0.00  0.00    +0.000 OA
BRANCH   9  11
ATOM     10  C   UNL     1       3.850   2.245  19.359  0.00  0.00    +0.000 C 
ATOM     11  C   UNL     1       3.938   3.260  18.217  0.00  0.00    +0.000 C 
ATOM     12  C   UNL     1       2.560   3.421  17.577  0.00  0.00    +0.000 C 
ENDBRANCH   9  11
ENDBRANCH   1   9
BRANCH   5  13
ATOM     13  C   UNL     1       1.859   9.537  18.143  0.00  0.00    +0.000 C 
BRANCH  13  14
ATOM     14  N   UNL     1       0.632   9.745  18.937  0.00  0.00    +0.000 NA
ATOM     15  C   UNL     1      -0.489  10.126  18.075  0.00  0.00    +0.000 C 
BRANCH  14  16
ATOM     16  C   UNL     1       0.815  10.734  20.029  0.00  0.00    +0.000 C 
ATOM     17  C   UNL     1       0.014  12.027  19.774  0.00  0.00    +0.000 C 
ATOM     18  C   UNL     1      -0.685  12.331  21.093  0.00  0.00    +0.000 C 
ATOM     19  N   UNL     1      -0.858  11.008  21.694  0.00  0.00    +0.000 NA
ATOM     20  C   UNL     1      -1.231  11.080  23.098  0.00  0.00    +0.000 C 
ATOM     21  C   UNL     1       0.421  10.327  21.471  0.00  0.00    +0.000 C 
ENDBRANCH  14  16
ENDBRANCH  13  14
ENDBRANCH   5  13
TORSDOF 5
ENDMDL
MODEL 4
REMARK VINA RESULT:      -6.2      3.426      7.542
REMARK  Name = 
REMARK  9 active torsions:
REMARK  status: ('A' for Active; 'I' for Inactive)
REMARK    1  A    between atoms: C_1  and  C_2
REMARK    2  A    between atoms: C_2  and  C_3
REMARK    3  A    between atoms: C_2  and  O_4
REMARK    4  A    between atoms: O_4  and  C_5
REMARK    5  A    between atoms: C_9  and  C_10
REMARK    6  A    between atoms: C_10  and  N_11
REMARK    7  A    between atoms: N_11  and  C_12
REMARK    8  A    between atoms: N_11  and  C_13
REMARK    9  A    between atoms: N_16  and  C_17
REMARK                            x       y       z     vdW  Elec       q    Type
REMARK                         _______ _______ _______ _____ _____    ______ ____
ROOT
ATOM      1  C   UNL     1       0.659   9.821  20.067  0.00  0.00    +0.000 A 
ATOM      2  C   UNL     1       1.562   9.487  19.038  0.00  0.00    +0.000 A 
ATOM      3 CL   UNL     1       1.905  10.590  17.745  0.00  0.00    +0.000 Cl
ATOM      4  C   UNL     1       2.213   8.242  19.004  0.00  0.00    +0.000 A 
ATOM      5  C   UNL     1       1.988   7.298  20.009  0.00  0.00    +0.000 A 
ATOM      6  C   UNL     1       1.155   7.655  21.075  0.00  0.00    +0.000 A 
ATOM      7  C   UNL     1       0.526   8.912  21.124  0.00  0.00    +0.000 A 
ATOM      8 CL   UNL     1      -0.317   9.257  22.595  0.00  0.00    +0.000 Cl
ENDROOT
BRANCH   1   9
ATOM      9  O   UNL     1       0.056  11.050  19.963  0.00  0.00    +0.000 OA
BRANCH   9  11
ATOM     10  C   UNL     1      -1.564  12.596  19.158  0.00  0.00    +0.000 C 
ATOM     11  C   UNL     1      -1.315  11.136  19.546  0.00  0.00    +0.000 C 
ATOM     12  C   UNL     1      -1.663  10.234  18.363  0.00  0.00    +0.000 C 
ENDBRANCH   9  11
ENDBRANCH   1   9
BRANCH   5  13
ATOM     13  C   UNL     1       2.570   5.897  19.907  0.00  0.00    +0.000 C 
BRANCH  13  14
ATOM     14  N   UNL     1       1.626   4.831  20.296  0.00  0.00    +0.000 NA
ATOM     15  C   UNL     1       2.070   4.162  21.522  0.00  0.00    +0.000 C 
BRANCH  14  16
ATOM     16  C   UNL     1       1.395   3.843  19.213  0.00  0.00    +0.000 C 
ATOM     17  C   UNL     1       1.859   4.374  17.841  0.00  0.00    +0.000 C 
ATOM     18  C   UNL     1       2.658   3.235  17.221  0.00  0.00    +0.000 C 
ATOM     19  N   UNL     1       3.191   2.525  18.386  0.00  0.00    +0.000 NA
ATOM     20  C   UNL     1       3.735   1.221  18.040  0.00  0.00    +0.000 C 
ATOM     21  C   UNL     1       2.067   2.451  19.324  0.00  0.00    +0.000 C 
ENDBRANCH  14  16
ENDBRANCH  13  14
ENDBRANCH   5  13
TORSDOF 5
ENDMDL
MODEL 5
REMARK VINA RESULT:      -6.1      1.676      2.855
REMARK  Name = 
REMARK  9 active torsions:
REMARK  status: ('A' for Active; 'I' for Inactive)
REMARK    1  A    between atoms: C_1  and  C_2
REMARK    2  A    between atoms: C_2  and  C_3
REMARK    3  A    between atoms: C_2  and  O_4
REMARK    4  A    between atoms: O_4  and  C_5
REMARK    5  A    between atoms: C_9  and  C_10
REMARK    6  A    between atoms: C_10  and  N_11
REMARK    7  A    between atoms: N_11  and  C_12
REMARK    8  A    between atoms: N_11  and  C_13
REMARK    9  A    between atoms: N_16  and  C_17
REMARK                            x       y       z     vdW  Elec       q    Type
REMARK                         _______ _______ _______ _____ _____    ______ ____
ROOT
ATOM      1  C   UNL     1       3.000   5.745  19.025  0.00  0.00    +0.000 A 
ATOM      2  C   UNL     1       2.278   5.825  20.232  0.00  0.00    +0.000 A 
ATOM      3 CL   UNL     1       2.153   4.466  21.302  0.00  0.00    +0.000 Cl
ATOM      4  C   UNL     1       1.613   7.002  20.617  0.00  0.00    +0.000 A 
ATOM      5  C   UNL     1       1.665   8.141  19.807  0.00  0.00    +0.000 A 
ATOM      6  C   UNL     1       2.447   8.091  18.648  0.00  0.00    +0.000 A 
ATOM      7  C   UNL     1       3.135   6.921  18.279  0.00  0.00    +0.000 A 
ATOM      8 CL   UNL     1       4.197   7.089  16.923  0.00  0.00    +0.000 Cl
ENDROOT
BRANCH   1   9
ATOM      9  O   UNL     1       3.567   4.526  18.744  0.00  0.00    +0.000 OA
BRANCH   9  11
ATOM     10  C   UNL     1       4.398   3.594  16.719  0.00  0.00    +0.000 C 
ATOM     11  C   UNL     1       3.149   3.799  17.578  0.00  0.00    +0.000 C 
ATOM     12  C   UNL     1       2.519   2.442  17.885  0.00  0.00    +0.000 C 
ENDBRANCH   9  11
ENDBRANCH   1   9
BRANCH   5  13
ATOM     13  C   UNL     1       0.833   9.369  20.137  0.00  0.00    +0.000 C 
BRANCH  13  14
ATOM     14  N   UNL     1       0.386  10.122  18.949  0.00  0.00    +0.000 NA
ATOM     15  C   UNL     1       0.856  11.508  19.001  0.00  0.00    +0.000 C 
BRANCH  14  16
ATOM     16  C   UNL     1      -1.086  10.073  18.757  0.00  0.00    +0.000 C 
ATOM     17  C   UNL     1      -1.762  11.399  19.162  0.00  0.00    +0.000 C 
ATOM     18  C   UNL     1      -2.721  11.722  18.024  0.00  0.00    +0.000 C 
ATOM     19  N   UNL     1      -2.085  11.100  16.862  0.00  0.00    +0.000 NA
ATOM     20  C   UNL     1      -2.979  11.019  15.717  0.00  0.00    +0.000 C 
ATOM     21  C   UNL     1      -1.640   9.787  17.339  0.00  0.00    +0.000 C 
ENDBRANCH  14  16
ENDBRANCH  13  14
ENDBRANCH   5  13
TORSDOF 5
ENDMDL
MODEL 6
REMARK VINA RESULT:      -6.1      1.486      2.048
REMARK  Name = 
REMARK  9 active torsions:
REMARK  status: ('A' for Active; 'I' for Inactive)
REMARK    1  A    between atoms: C_1  and  C_2
REMARK    2  A    between atoms: C_2  and  C_3
REMARK    3  A    between atoms: C_2  and  O_4
REMARK    4  A    between atoms: O_4  and  C_5
REMARK    5  A    between atoms: C_9  and  C_10
REMARK    6  A    between atoms: C_10  and  N_11
REMARK    7  A    between atoms: N_11  and  C_12
REMARK    8  A    between atoms: N_11  and  C_13
REMARK    9  A    between atoms: N_16  and  C_17
REMARK                            x       y       z     vdW  Elec       q    Type
REMARK                         _______ _______ _______ _____ _____    ______ ____
ROOT
ATOM      1  C   UNL     1       3.237   5.388  18.595  0.00  0.00    +0.000 A 
ATOM      2  C   UNL     1       2.448   6.101  19.519  0.00  0.00    +0.000 A 
ATOM      3 CL   UNL     1       1.843   5.351  20.960  0.00  0.00    +0.000 Cl
ATOM      4  C   UNL     1       2.102   7.447  19.308  0.00  0.00    +0.000 A 
ATOM      5  C   UNL     1       2.550   8.124  18.170  0.00  0.00    +0.000 A 
ATOM      6  C   UNL     1       3.400   7.443  17.290  0.00  0.00    +0.000 A 
ATOM      7  C   UNL     1       3.769   6.105  17.517  0.00  0.00    +0.000 A 
ATOM      8 CL   UNL     1       4.966   5.479  16.436  0.00  0.00    +0.000 Cl
ENDROOT
BRANCH   1   9
ATOM      9  O   UNL     1       3.468   4.068  18.895  0.00  0.00    +0.000 OA
BRANCH   9  11
ATOM     10  C   UNL     1       3.550   1.732  18.453  0.00  0.00    +0.000 C 
ATOM     11  C   UNL     1       2.831   3.041  18.120  0.00  0.00    +0.000 C 
ATOM     12  C   UNL     1       1.338   2.883  18.404  0.00  0.00    +0.000 C 
ENDBRANCH   9  11
ENDBRANCH   1   9
BRANCH   5  13
ATOM     13  C   UNL     1       2.064   9.529  17.857  0.00  0.00    +0.000 C 
BRANCH  13  14
ATOM     14  N   UNL     1       1.078  10.047  18.826  0.00  0.00    +0.000 NA
ATOM     15  C   UNL     1      -0.265  10.073  18.241  0.00  0.00    +0.000 C 
BRANCH  14  16
ATOM     16  C   UNL     1       1.444  11.383  19.360  0.00  0.00    +0.000 C 
ATOM     17  C   UNL     1       2.339  12.169  18.380  0.00  0.00    +0.000 C 
ATOM     18  C   UNL     1       1.736  13.566  18.320  0.00  0.00    +0.000 C 
ATOM     19  N   UNL     1       0.318  13.332  18.598  0.00  0.00    +0.000 NA
ATOM     20  C   UNL     1      -0.401  14.561  18.893  0.00  0.00    +0.000 C 
ATOM     21  C   UNL     1       0.308  12.377  19.711  0.00  0.00    +0.000 C 
ENDBRANCH  14  16
ENDBRANCH  13  14
ENDBRANCH   5  13
TORSDOF 5
ENDMDL
MODEL 7
REMARK VINA RESULT:      -6.1      1.326      1.909
REMARK  Name = 
REMARK  9 active torsions:
REMARK  status: ('A' for Active; 'I' for Inactive)
REMARK    1  A    between atoms: C_1  and  C_2
REMARK    2  A    between atoms: C_2  and  C_3
REMARK    3  A    between atoms: C_2  and  O_4
REMARK    4  A    between atoms: O_4  and  C_5
REMARK    5  A    between atoms: C_9  and  C_10
REMARK    6  A    between atoms: C_10  and  N_11
REMARK    7  A    between atoms: N_11  and  C_12
REMARK    8  A    between atoms: N_11  and  C_13
REMARK    9  A    between atoms: N_16  and  C_17
REMARK                            x       y       z     vdW  Elec       q    Type
REMARK                         _______ _______ _______ _____ _____    ______ ____
ROOT
ATOM      1  C   UNL     1       2.555   4.851  18.512  0.00  0.00    +0.000 A 
ATOM      2  C   UNL     1       1.813   4.856  19.710  0.00  0.00    +0.000 A 
ATOM      3 CL   UNL     1       1.149   3.396  20.368  0.00  0.00    +0.000 Cl
ATOM      4  C   UNL     1       1.564   6.045  20.418  0.00  0.00    +0.000 A 
ATOM      5  C   UNL     1       2.065   7.264  19.952  0.00  0.00    +0.000 A 
ATOM      6  C   UNL     1       2.869   7.253  18.806  0.00  0.00    +0.000 A 
ATOM      7  C   UNL     1       3.141   6.058  18.115  0.00  0.00    +0.000 A 
ATOM      8 CL   UNL     1       4.298   6.197  16.835  0.00  0.00    +0.000 Cl
ENDROOT
BRANCH   1   9
ATOM      9  O   UNL     1       2.690   3.632  17.895  0.00  0.00    +0.000 OA
BRANCH   9  11
ATOM     10  C   UNL     1       4.647   3.532  19.246  0.00  0.00    +0.000 C 
ATOM     11  C   UNL     1       3.880   2.857  18.107  0.00  0.00    +0.000 C 
ATOM     12  C   UNL     1       3.613   1.397  18.474  0.00  0.00    +0.000 C 
ENDBRANCH   9  11
ENDBRANCH   1   9
BRANCH   5  13
ATOM     13  C   UNL     1       1.680   8.572  20.624  0.00  0.00    +0.000 C 
BRANCH  13  14
ATOM     14  N   UNL     1       0.645   9.333  19.898  0.00  0.00    +0.000 NA
ATOM     15  C   UNL     1       1.218  10.524  19.266  0.00  0.00    +0.000 C 
BRANCH  14  16
ATOM     16  C   UNL     1      -0.510   9.698  20.757  0.00  0.00    +0.000 C 
ATOM     17  C   UNL     1      -0.348   9.164  22.195  0.00  0.00    +0.000 C 
ATOM     18  C   UNL     1      -0.701  10.338  23.099  0.00  0.00    +0.000 C 
ATOM     19  N   UNL     1      -0.342  11.504  22.291  0.00  0.00    +0.000 NA
ATOM     20  C   UNL     1      -0.878  12.742  22.835  0.00  0.00    +0.000 C 
ATOM     21  C   UNL     1      -0.845  11.198  20.949  0.00  0.00    +0.000 C 
ENDBRANCH  14  16
ENDBRANCH  13  14
ENDBRANCH   5  13
TORSDOF 5
ENDMDL
MODEL 8
REMARK VINA RESULT:      -6.1      4.878      6.741
REMARK  Name = 
REMARK  9 active torsions:
REMARK  status: ('A' for Active; 'I' for Inactive)
REMARK    1  A    between atoms: C_1  and  C_2
REMARK    2  A    between atoms: C_2  and  C_3
REMARK    3  A    between atoms: C_2  and  O_4
REMARK    4  A    between atoms: O_4  and  C_5
REMARK    5  A    between atoms: C_9  and  C_10
REMARK    6  A    between atoms: C_10  and  N_11
REMARK    7  A    between atoms: N_11  and  C_12
REMARK    8  A    between atoms: N_11  and  C_13
REMARK    9  A    between atoms: N_16  and  C_17
REMARK                            x       y       z     vdW  Elec       q    Type
REMARK                         _______ _______ _______ _____ _____    ______ ____
ROOT
ATOM      1  C   UNL     1       2.101   4.152  18.496  0.00  0.00    +0.000 A 
ATOM      2  C   UNL     1       2.515   2.873  18.074  0.00  0.00    +0.000 A 
ATOM      3 CL   UNL     1       1.663   1.442  18.558  0.00  0.00    +0.000 Cl
ATOM      4  C   UNL     1       3.644   2.696  17.256  0.00  0.00    +0.000 A 
ATOM      5  C   UNL     1       4.386   3.799  16.825  0.00  0.00    +0.000 A 
ATOM      6  C   UNL     1       3.933   5.076  17.175  0.00  0.00    +0.000 A 
ATOM      7  C   UNL     1       2.786   5.254  17.970  0.00  0.00    +0.000 A 
ATOM      8 CL   UNL     1       2.264   6.893  18.152  0.00  0.00    +0.000 Cl
ENDROOT
BRANCH   1   9
ATOM      9  O   UNL     1       1.010   4.186  19.328  0.00  0.00    +0.000 OA
BRANCH   9  11
ATOM     10  C   UNL     1       1.173   2.914  21.332  0.00  0.00    +0.000 C 
ATOM     11  C   UNL     1       1.199   4.327  20.744  0.00  0.00    +0.000 C 
ATOM     12  C   UNL     1       2.509   5.010  21.132  0.00  0.00    +0.000 C 
ENDBRANCH   9  11
ENDBRANCH   1   9
BRANCH   5  13
ATOM     13  C   UNL     1       5.689   3.613  16.065  0.00  0.00    +0.000 C 
BRANCH  13  14
ATOM     14  N   UNL     1       6.250   4.869  15.530  0.00  0.00    +0.000 NA
ATOM     15  C   UNL     1       6.606   4.721  14.116  0.00  0.00    +0.000 C 
BRANCH  14  16
ATOM     16  C   UNL     1       7.410   5.361  16.315  0.00  0.00    +0.000 C 
ATOM     17  C   UNL     1       7.278   6.858  16.659  0.00  0.00    +0.000 C 
ATOM     18  C   UNL     1       7.624   6.960  18.139  0.00  0.00    +0.000 C 
ATOM     19  N   UNL     1       7.234   5.652  18.666  0.00  0.00    +0.000 NA
ATOM     20  C   UNL     1       7.756   5.413  20.002  0.00  0.00    +0.000 C 
ATOM     21  C   UNL     1       7.723   4.689  17.675  0.00  0.00    +0.000 C 
ENDBRANCH  14  16
ENDBRANCH  13  14
ENDBRANCH   5  13
TORSDOF 5
ENDMDL
MODEL 9
REMARK VINA RESULT:      -6.0      3.357      7.541
REMARK  Name = 
REMARK  9 active torsions:
REMARK  status: ('A' for Active; 'I' for Inactive)
REMARK    1  A    between atoms: C_1  and  C_2
REMARK    2  A    between atoms: C_2  and  C_3
REMARK    3  A    between atoms: C_2  and  O_4
REMARK    4  A    between atoms: O_4  and  C_5
REMARK    5  A    between atoms: C_9  and  C_10
REMARK    6  A    between atoms: C_10  and  N_11
REMARK    7  A    between atoms: N_11  and  C_12
REMARK    8  A    between atoms: N_11  and  C_13
REMARK    9  A    between atoms: N_16  and  C_17
REMARK                            x       y       z     vdW  Elec       q    Type
REMARK                         _______ _______ _______ _____ _____    ______ ____
ROOT
ATOM      1  C   UNL     1       0.824   9.568  20.107  0.00  0.00    +0.000 A 
ATOM      2  C   UNL     1       1.616   9.154  19.018  0.00  0.00    +0.000 A 
ATOM      3 CL   UNL     1       1.917  10.201  17.670  0.00  0.00    +0.000 Cl
ATOM      4  C   UNL     1       2.185   7.869  18.966  0.00  0.00    +0.000 A 
ATOM      5  C   UNL     1       1.988   6.965  20.014  0.00  0.00    +0.000 A 
ATOM      6  C   UNL     1       1.270   7.399  21.133  0.00  0.00    +0.000 A 
ATOM      7  C   UNL     1       0.725   8.695  21.197  0.00  0.00    +0.000 A 
ATOM      8 CL   UNL     1       0.030   9.126  22.721  0.00  0.00    +0.000 Cl
ENDROOT
BRANCH   1   9
ATOM      9  O   UNL     1       0.291  10.829  20.017  0.00  0.00    +0.000 OA
BRANCH   9  11
ATOM     10  C   UNL     1       1.449  12.901  19.853  0.00  0.00    +0.000 C 
ATOM     11  C   UNL     1       0.832  11.889  20.820  0.00  0.00    +0.000 C 
ATOM     12  C   UNL     1      -0.202  12.594  21.697  0.00  0.00    +0.000 C 
ENDBRANCH   9  11
ENDBRANCH   1   9
BRANCH   5  13
ATOM     13  C   UNL     1       2.472   5.529  19.904  0.00  0.00    +0.000 C 
BRANCH  13  14
ATOM     14  N   UNL     1       2.882   5.141  18.540  0.00  0.00    +0.000 NA
ATOM     15  C   UNL     1       1.854   4.316  17.900  0.00  0.00    +0.000 C 
BRANCH  14  16
ATOM     16  C   UNL     1       4.200   4.457  18.508  0.00  0.00    +0.000 C 
ATOM     17  C   UNL     1       4.676   4.194  17.065  0.00  0.00    +0.000 C 
ATOM     18  C   UNL     1       6.132   4.641  17.037  0.00  0.00    +0.000 C 
ATOM     19  N   UNL     1       6.182   5.688  18.059  0.00  0.00    +0.000 NA
ATOM     20  C   UNL     1       7.544   6.047  18.420  0.00  0.00    +0.000 C 
ATOM     21  C   UNL     1       5.410   5.149  19.183  0.00  0.00    +0.000 C 
ENDBRANCH  14  16
ENDBRANCH  13  14
ENDBRANCH   5  13
TORSDOF 5
ENDMDL
