MODEL 1
REMARK VINA RESULT:      -9.1      0.000      0.000
REMARK  Name = 
REMARK  7 active torsions:
REMARK  status: ('A' for Active; 'I' for Inactive)
REMARK    1  A    between atoms: C_2  and  O_3
REMARK    2  A    between atoms: C_2  and  C_17
REMARK    3  A    between atoms: O_3  and  C_4
REMARK    4  A    between atoms: C_4  and  C_5
REMARK    5  A    between atoms: C_19  and  S_20
REMARK    6  A    between atoms: S_20  and  N_23
REMARK    7  A    between atoms: C_31  and  O_32
REMARK                            x       y       z     vdW  Elec       q    Type
REMARK                         _______ _______ _______ _____ _____    ______ ____
ROOT
ATOM      1  C   UNL     1       6.480   6.307  17.316  0.00  0.00    +0.000 A 
ATOM      2  C   UNL     1       5.311   6.237  18.099  0.00  0.00    +0.000 A 
ATOM      3  C   UNL     1       4.246   5.452  17.673  0.00  0.00    +0.000 A 
ATOM      4  C   UNL     1       4.336   4.747  16.456  0.00  0.00    +0.000 A 
ATOM      5  C   UNL     1       5.477   4.852  15.657  0.00  0.00    +0.000 A 
ATOM      6  C   UNL     1       6.551   5.628  16.087  0.00  0.00    +0.000 A 
ENDROOT
BRANCH   3   7
ATOM      7  S   UNL     1       2.697   5.454  18.538  0.00  0.00    +0.000 S 
ATOM      8  O   UNL     1       2.526   6.796  19.064  0.00  0.00    +0.000 OA
ATOM      9  O   UNL     1       1.718   4.907  17.623  0.00  0.00    +0.000 OA
BRANCH   7  10
ATOM     10  N   UNL     1       2.820   4.397  19.878  0.00  0.00    +0.000 NA
ATOM     11  C   UNL     1       3.734   3.214  19.798  0.00  0.00    +0.000 C 
ATOM     12  C   UNL     1       3.191   2.152  18.838  0.00  0.00    +0.000 C 
ATOM     13  O   UNL     1       1.878   1.713  19.223  0.00  0.00    +0.000 OA
ATOM     14  C   UNL     1       0.947   2.799  19.365  0.00  0.00    +0.000 C 
ATOM     15  C   UNL     1       1.471   3.878  20.329  0.00  0.00    +0.000 C 
ENDBRANCH   7  10
ENDBRANCH   3   7
BRANCH   1  17
ATOM     16  O   UNL     1       8.192   6.672  18.910  0.00  0.00    +0.000 OA
ATOM     17  C   UNL     1       7.622   7.049  17.895  0.00  0.00    +0.000 C 
BRANCH  17  18
ATOM     18  O   UNL     1       7.956   8.122  17.148  0.00  0.00    +0.000 OA
BRANCH  18  19
ATOM     19  C   UNL     1       7.543   9.352  17.728  0.00  0.00    +0.000 C 
BRANCH  19  20
ATOM     20  C   UNL     1       8.724  10.104  18.349  0.00  0.00    +0.000 C 
ATOM     21  O   UNL     1       9.401   9.516  19.200  0.00  0.00    +0.000 OA
ATOM     22  N   UNL     1       8.917  11.438  17.962  0.00  0.00    +0.000 N 
ATOM     23  C   UNL     1       8.021  12.160  17.049  0.00  0.00    +0.000 C 
ATOM     24  C   UNL     1       7.491  13.418  17.706  0.00  0.00    +0.000 C 
ATOM     25  C   UNL     1       8.647  14.354  18.014  0.00  0.00    +0.000 C 
ATOM     26  C   UNL     1       9.862  13.637  18.546  0.00  0.00    +0.000 A 
ATOM     27  C   UNL     1      10.895  14.417  19.096  0.00  0.00    +0.000 A 
ATOM     28  C   UNL     1      12.050  13.820  19.596  0.00  0.00    +0.000 A 
ATOM     29  C   UNL     1      12.192  12.441  19.534  0.00  0.00    +0.000 A 
ATOM     30  C   UNL     1      11.172  11.657  18.988  0.00  0.00    +0.000 A 
ATOM     31  C   UNL     1       9.990  12.233  18.503  0.00  0.00    +0.000 A 
ENDBRANCH  19  20
ENDBRANCH  18  19
ENDBRANCH  17  18
ENDBRANCH   1  17
BRANCH   6  32
ATOM     32  O   UNL     1       7.672   5.670  15.308  0.00  0.00    +0.000 OA
ATOM     33  H   UNL     1       7.642   6.443  14.720  0.00  0.00    +0.000 HD
ENDBRANCH   6  32
TORSDOF 7
ENDMDL
MODEL 2
REMARK VINA RESULT:      -8.8      7.218     10.011
REMARK  Name = 
REMARK  7 active torsions:
REMARK  status: ('A' for Active; 'I' for Inactive)
REMARK    1  A    between atoms: C_2  and  O_3
REMARK    2  A    between atoms: C_2  and  C_17
REMARK    3  A    between atoms: O_3  and  C_4
REMARK    4  A    between atoms: C_4  and  C_5
REMARK    5  A    between atoms: C_19  and  S_20
REMARK    6  A    between atoms: S_20  and  N_23
REMARK    7  A    between atoms: C_31  and  O_32
REMARK                            x       y       z     vdW  Elec       q    Type
REMARK                         _______ _______ _______ _____ _____    ______ ____
ROOT
ATOM      1  C   UNL     1       1.320   9.105  19.926  0.00  0.00    +0.000 A 
ATOM      2  C   UNL     1       1.829   7.833  20.252  0.00  0.00    +0.000 A 
ATOM      3  C   UNL     1       2.464   7.076  19.276  0.00  0.00    +0.000 A 
ATOM      4  C   UNL     1       2.581   7.579  17.964  0.00  0.00    +0.000 A 
ATOM      5  C   UNL     1       2.037   8.820  17.628  0.00  0.00    +0.000 A 
ATOM      6  C   UNL     1       1.410   9.586  18.608  0.00  0.00    +0.000 A 
ENDROOT
BRANCH   3   7
ATOM      7  S   UNL     1       2.981   5.409  19.592  0.00  0.00    +0.000 S 
ATOM      8  O   UNL     1       4.430   5.440  19.673  0.00  0.00    +0.000 OA
ATOM      9  O   UNL     1       2.205   4.948  20.723  0.00  0.00    +0.000 OA
BRANCH   7  10
ATOM     10  N   UNL     1       2.570   4.445  18.239  0.00  0.00    +0.000 NA
ATOM     11  C   UNL     1       1.312   3.634  18.270  0.00  0.00    +0.000 C 
ATOM     12  C   UNL     1       1.427   2.458  19.244  0.00  0.00    +0.000 C 
ATOM     13  O   UNL     1       2.535   1.604  18.912  0.00  0.00    +0.000 OA
ATOM     14  C   UNL     1       3.780   2.317  18.819  0.00  0.00    +0.000 C 
ATOM     15  C   UNL     1       3.688   3.503  17.843  0.00  0.00    +0.000 C 
ENDBRANCH   7  10
ENDBRANCH   3   7
BRANCH   1  17
ATOM     16  O   UNL     1       1.317   9.936  22.142  0.00  0.00    +0.000 OA
ATOM     17  C   UNL     1       0.778   9.909  21.043  0.00  0.00    +0.000 C 
BRANCH  17  18
ATOM     18  O   UNL     1      -0.313  10.611  20.676  0.00  0.00    +0.000 OA
BRANCH  18  19
ATOM     19  C   UNL     1      -0.427  11.855  21.355  0.00  0.00    +0.000 C 
BRANCH  19  20
ATOM     20  C   UNL     1      -1.647  11.879  22.281  0.00  0.00    +0.000 C 
ATOM     21  O   UNL     1      -1.576  11.256  23.347  0.00  0.00    +0.000 OA
ATOM     22  N   UNL     1      -2.792  12.550  21.828  0.00  0.00    +0.000 N 
ATOM     23  C   UNL     1      -2.900  13.171  20.501  0.00  0.00    +0.000 C 
ATOM     24  C   UNL     1      -4.084  12.607  19.744  0.00  0.00    +0.000 C 
ATOM     25  C   UNL     1      -5.366  12.940  20.486  0.00  0.00    +0.000 C 
ATOM     26  C   UNL     1      -5.239  12.786  21.981  0.00  0.00    +0.000 A 
ATOM     27  C   UNL     1      -6.418  12.824  22.746  0.00  0.00    +0.000 A 
ATOM     28  C   UNL     1      -6.372  12.698  24.133  0.00  0.00    +0.000 A 
ATOM     29  C   UNL     1      -5.147  12.552  24.769  0.00  0.00    +0.000 A 
ATOM     30  C   UNL     1      -3.969  12.515  24.018  0.00  0.00    +0.000 A 
ATOM     31  C   UNL     1      -3.993  12.614  22.619  0.00  0.00    +0.000 A 
ENDBRANCH  19  20
ENDBRANCH  18  19
ENDBRANCH  17  18
ENDBRANCH   1  17
BRANCH   6  32
ATOM     32  O   UNL     1       0.933  10.818  18.260  0.00  0.00    +0.000 OA
ATOM     33  H   UNL     1       0.089  10.990  18.711  0.00  0.00    +0.000 HD
ENDBRANCH   6  32
TORSDOF 7
ENDMDL
MODEL 3
REMARK VINA RESULT:      -8.7      1.382      1.623
REMARK  Name = 
REMARK  7 active torsions:
REMARK  status: ('A' for Active; 'I' for Inactive)
REMARK    1  A    between atoms: C_2  and  O_3
REMARK    2  A    between atoms: C_2  and  C_17
REMARK    3  A    between atoms: O_3  and  C_4
REMARK    4  A    between atoms: C_4  and  C_5
REMARK    5  A    between atoms: C_19  and  S_20
REMARK    6  A    between atoms: S_20  and  N_23
REMARK    7  A    between atoms: C_31  and  O_32
REMARK                            x       y       z     vdW  Elec       q    Type
REMARK                         _______ _______ _______ _____ _____    ______ ____
ROOT
ATOM      1  C   UNL     1       6.858   5.832  17.250  0.00  0.00    +0.000 A 
ATOM      2  C   UNL     1       5.947   5.137  18.069  0.00  0.00    +0.000 A 
ATOM      3  C   UNL     1       5.192   4.102  17.533  0.00  0.00    +0.000 A 
ATOM      4  C   UNL     1       5.329   3.766  16.171  0.00  0.00    +0.000 A 
ATOM      5  C   UNL     1       6.199   4.483  15.347  0.00  0.00    +0.000 A 
ATOM      6  C   UNL     1       6.966   5.513  15.885  0.00  0.00    +0.000 A 
ENDROOT
BRANCH   3   7
ATOM      7  S   UNL     1       3.920   3.303  18.478  0.00  0.00    +0.000 S 
ATOM      8  O   UNL     1       3.454   2.189  17.672  0.00  0.00    +0.000 OA
ATOM      9  O   UNL     1       4.478   3.061  19.791  0.00  0.00    +0.000 OA
BRANCH   7  10
ATOM     10  N   UNL     1       2.607   4.386  18.650  0.00  0.00    +0.000 NA
ATOM     11  C   UNL     1       2.502   5.220  19.890  0.00  0.00    +0.000 C 
ATOM     12  C   UNL     1       2.135   4.367  21.108  0.00  0.00    +0.000 C 
ATOM     13  O   UNL     1       0.901   3.659  20.905  0.00  0.00    +0.000 OA
ATOM     14  C   UNL     1       0.905   2.865  19.706  0.00  0.00    +0.000 C 
ATOM     15  C   UNL     1       1.268   3.702  18.468  0.00  0.00    +0.000 C 
ENDBRANCH   7  10
ENDBRANCH   3   7
BRANCH   1  17
ATOM     16  O   UNL     1       8.202   6.629  19.027  0.00  0.00    +0.000 OA
ATOM     17  C   UNL     1       7.725   6.828  17.918  0.00  0.00    +0.000 C 
BRANCH  17  18
ATOM     18  O   UNL     1       7.940   7.909  17.142  0.00  0.00    +0.000 OA
BRANCH  18  19
ATOM     19  C   UNL     1       7.495   9.119  17.740  0.00  0.00    +0.000 C 
BRANCH  19  20
ATOM     20  C   UNL     1       8.655   9.890  18.377  0.00  0.00    +0.000 C 
ATOM     21  O   UNL     1       9.316   9.321  19.253  0.00  0.00    +0.000 OA
ATOM     22  N   UNL     1       8.849  11.219  17.972  0.00  0.00    +0.000 N 
ATOM     23  C   UNL     1       7.970  11.919  17.027  0.00  0.00    +0.000 C 
ATOM     24  C   UNL     1       7.416  13.183  17.650  0.00  0.00    +0.000 C 
ATOM     25  C   UNL     1       8.556  14.133  17.970  0.00  0.00    +0.000 C 
ATOM     26  C   UNL     1       9.763  13.434  18.543  0.00  0.00    +0.000 A 
ATOM     27  C   UNL     1      10.777  14.231  19.104  0.00  0.00    +0.000 A 
ATOM     28  C   UNL     1      11.924  13.650  19.642  0.00  0.00    +0.000 A 
ATOM     29  C   UNL     1      12.077  12.272  19.607  0.00  0.00    +0.000 A 
ATOM     30  C   UNL     1      11.076  11.471  19.049  0.00  0.00    +0.000 A 
ATOM     31  C   UNL     1       9.902  12.030  18.526  0.00  0.00    +0.000 A 
ENDBRANCH  19  20
ENDBRANCH  18  19
ENDBRANCH  17  18
ENDBRANCH   1  17
BRANCH   6  32
ATOM     32  O   UNL     1       7.846   6.162  15.064  0.00  0.00    +0.000 OA
ATOM     33  H   UNL     1       7.429   6.956  14.689  0.00  0.00    +0.000 HD
ENDBRANCH   6  32
TORSDOF 7
ENDMDL
MODEL 4
REMARK VINA RESULT:      -8.7      5.984      9.584
REMARK  Name = 
REMARK  7 active torsions:
REMARK  status: ('A' for Active; 'I' for Inactive)
REMARK    1  A    between atoms: C_2  and  O_3
REMARK    2  A    between atoms: C_2  and  C_17
REMARK    3  A    between atoms: O_3  and  C_4
REMARK    4  A    between atoms: C_4  and  C_5
REMARK    5  A    between atoms: C_19  and  S_20
REMARK    6  A    between atoms: S_20  and  N_23
REMARK    7  A    between atoms: C_31  and  O_32
REMARK                            x       y       z     vdW  Elec       q    Type
REMARK                         _______ _______ _______ _____ _____    ______ ____
ROOT
ATOM      1  C   UNL     1       0.100   9.877  21.541  0.00  0.00    +0.000 A 
ATOM      2  C   UNL     1      -0.482  10.369  20.356  0.00  0.00    +0.000 A 
ATOM      3  C   UNL     1      -1.467  11.346  20.430  0.00  0.00    +0.000 A 
ATOM      4  C   UNL     1      -1.888  11.825  21.687  0.00  0.00    +0.000 A 
ATOM      5  C   UNL     1      -1.345  11.305  22.863  0.00  0.00    +0.000 A 
ATOM      6  C   UNL     1      -0.348  10.335  22.792  0.00  0.00    +0.000 A 
ENDROOT
BRANCH   3   7
ATOM      7  S   UNL     1      -2.342  11.884  18.983  0.00  0.00    +0.000 S 
ATOM      8  O   UNL     1      -3.426  12.727  19.452  0.00  0.00    +0.000 OA
ATOM      9  O   UNL     1      -1.347  12.423  18.081  0.00  0.00    +0.000 OA
BRANCH   7  10
ATOM     10  N   UNL     1      -3.051  10.518  18.235  0.00  0.00    +0.000 NA
ATOM     11  C   UNL     1      -2.426   9.951  16.998  0.00  0.00    +0.000 C 
ATOM     12  C   UNL     1      -2.622  10.880  15.796  0.00  0.00    +0.000 C 
ATOM     13  O   UNL     1      -4.014  11.139  15.550  0.00  0.00    +0.000 OA
ATOM     14  C   UNL     1      -4.700  11.646  16.708  0.00  0.00    +0.000 C 
ATOM     15  C   UNL     1      -4.519  10.726  17.928  0.00  0.00    +0.000 C 
ENDBRANCH   7  10
ENDBRANCH   3   7
BRANCH   1  17
ATOM     16  O   UNL     1       1.986   8.671  22.311  0.00  0.00    +0.000 OA
ATOM     17  C   UNL     1       1.235   8.941  21.382  0.00  0.00    +0.000 C 
BRANCH  17  18
ATOM     18  O   UNL     1       1.286   8.417  20.141  0.00  0.00    +0.000 OA
BRANCH  18  19
ATOM     19  C   UNL     1       1.961   7.167  20.094  0.00  0.00    +0.000 C 
BRANCH  19  20
ATOM     20  C   UNL     1       2.747   7.002  18.789  0.00  0.00    +0.000 C 
ATOM     21  O   UNL     1       2.679   7.912  17.954  0.00  0.00    +0.000 OA
ATOM     22  N   UNL     1       3.439   5.798  18.598  0.00  0.00    +0.000 N 
ATOM     23  C   UNL     1       3.399   4.675  19.544  0.00  0.00    +0.000 C 
ATOM     24  C   UNL     1       2.920   3.414  18.856  0.00  0.00    +0.000 C 
ATOM     25  C   UNL     1       3.903   3.029  17.764  0.00  0.00    +0.000 C 
ATOM     26  C   UNL     1       4.408   4.213  16.980  0.00  0.00    +0.000 A 
ATOM     27  C   UNL     1       5.123   3.958  15.795  0.00  0.00    +0.000 A 
ATOM     28  C   UNL     1       5.627   5.006  15.028  0.00  0.00    +0.000 A 
ATOM     29  C   UNL     1       5.439   6.316  15.446  0.00  0.00    +0.000 A 
ATOM     30  C   UNL     1       4.732   6.580  16.622  0.00  0.00    +0.000 A 
ATOM     31  C   UNL     1       4.193   5.543  17.398  0.00  0.00    +0.000 A 
ENDBRANCH  19  20
ENDBRANCH  18  19
ENDBRANCH  17  18
ENDBRANCH   1  17
BRANCH   6  32
ATOM     32  O   UNL     1       0.201   9.884  23.959  0.00  0.00    +0.000 OA
ATOM     33  H   UNL     1      -0.382  10.099  24.707  0.00  0.00    +0.000 HD
ENDBRANCH   6  32
TORSDOF 7
ENDMDL
MODEL 5
REMARK VINA RESULT:      -8.6      6.422      9.609
REMARK  Name = 
REMARK  7 active torsions:
REMARK  status: ('A' for Active; 'I' for Inactive)
REMARK    1  A    between atoms: C_2  and  O_3
REMARK    2  A    between atoms: C_2  and  C_17
REMARK    3  A    between atoms: O_3  and  C_4
REMARK    4  A    between atoms: C_4  and  C_5
REMARK    5  A    between atoms: C_19  and  S_20
REMARK    6  A    between atoms: S_20  and  N_23
REMARK    7  A    between atoms: C_31  and  O_32
REMARK                            x       y       z     vdW  Elec       q    Type
REMARK                         _______ _______ _______ _____ _____    ______ ____
ROOT
ATOM      1  C   UNL     1       2.035   8.124  18.953  0.00  0.00    +0.000 A 
ATOM      2  C   UNL     1       2.828   7.246  18.189  0.00  0.00    +0.000 A 
ATOM      3  C   UNL     1       3.123   5.981  18.683  0.00  0.00    +0.000 A 
ATOM      4  C   UNL     1       2.642   5.593  19.950  0.00  0.00    +0.000 A 
ATOM      5  C   UNL     1       1.894   6.479  20.728  0.00  0.00    +0.000 A 
ATOM      6  C   UNL     1       1.587   7.743  20.230  0.00  0.00    +0.000 A 
ENDROOT
BRANCH   3   7
ATOM      7  S   UNL     1       4.244   4.899  17.835  0.00  0.00    +0.000 S 
ATOM      8  O   UNL     1       5.025   4.235  18.863  0.00  0.00    +0.000 OA
ATOM      9  O   UNL     1       3.442   4.116  16.920  0.00  0.00    +0.000 OA
BRANCH   7  10
ATOM     10  N   UNL     1       5.327   5.850  16.913  0.00  0.00    +0.000 NA
ATOM     11  C   UNL     1       5.715   5.396  15.539  0.00  0.00    +0.000 C 
ATOM     12  C   UNL     1       6.626   4.167  15.592  0.00  0.00    +0.000 C 
ATOM     13  O   UNL     1       7.813   4.421  16.362  0.00  0.00    +0.000 OA
ATOM     14  C   UNL     1       7.526   4.904  17.685  0.00  0.00    +0.000 C 
ATOM     15  C   UNL     1       6.614   6.143  17.657  0.00  0.00    +0.000 C 
ENDBRANCH   7  10
ENDBRANCH   3   7
BRANCH   1  17
ATOM     16  O   UNL     1       2.406  10.000  17.558  0.00  0.00    +0.000 OA
ATOM     17  C   UNL     1       1.649   9.399  18.309  0.00  0.00    +0.000 C 
BRANCH  17  18
ATOM     18  O   UNL     1       0.385   9.756  18.616  0.00  0.00    +0.000 OA
BRANCH  18  19
ATOM     19  C   UNL     1       0.222  11.162  18.745  0.00  0.00    +0.000 C 
BRANCH  19  20
ATOM     20  C   UNL     1      -1.078  11.511  19.478  0.00  0.00    +0.000 C 
ATOM     21  O   UNL     1      -1.058  11.525  20.714  0.00  0.00    +0.000 OA
ATOM     22  N   UNL     1      -2.224  11.724  18.698  0.00  0.00    +0.000 N 
ATOM     23  C   UNL     1      -2.256  11.571  17.238  0.00  0.00    +0.000 C 
ATOM     24  C   UNL     1      -3.316  10.570  16.829  0.00  0.00    +0.000 C 
ATOM     25  C   UNL     1      -4.684  11.083  17.244  0.00  0.00    +0.000 C 
ATOM     26  C   UNL     1      -4.686  11.722  18.610  0.00  0.00    +0.000 A 
ATOM     27  C   UNL     1      -5.931  12.006  19.199  0.00  0.00    +0.000 A 
ATOM     28  C   UNL     1      -6.004  12.605  20.454  0.00  0.00    +0.000 A 
ATOM     29  C   UNL     1      -4.837  12.943  21.124  0.00  0.00    +0.000 A 
ATOM     30  C   UNL     1      -3.595  12.667  20.547  0.00  0.00    +0.000 A 
ATOM     31  C   UNL     1      -3.495  12.041  19.296  0.00  0.00    +0.000 A 
ENDBRANCH  19  20
ENDBRANCH  18  19
ENDBRANCH  17  18
ENDBRANCH   1  17
BRANCH   6  32
ATOM     32  O   UNL     1       0.809   8.568  20.993  0.00  0.00    +0.000 OA
ATOM     33  H   UNL     1       0.542   9.347  20.477  0.00  0.00    +0.000 HD
ENDBRANCH   6  32
TORSDOF 7
ENDMDL
MODEL 6
REMARK VINA RESULT:      -8.4      0.824      1.948
REMARK  Name = 
REMARK  7 active torsions:
REMARK  status: ('A' for Active; 'I' for Inactive)
REMARK    1  A    between atoms: C_2  and  O_3
REMARK    2  A    between atoms: C_2  and  C_17
REMARK    3  A    between atoms: O_3  and  C_4
REMARK    4  A    between atoms: C_4  and  C_5
REMARK    5  A    between atoms: C_19  and  S_20
REMARK    6  A    between atoms: S_20  and  N_23
REMARK    7  A    between atoms: C_31  and  O_32
REMARK                            x       y       z     vdW  Elec       q    Type
REMARK                         _______ _______ _______ _____ _____    ______ ____
ROOT
ATOM      1  C   UNL     1       6.471   6.437  17.427  0.00  0.00    +0.000 A 
ATOM      2  C   UNL     1       5.281   6.302  18.169  0.00  0.00    +0.000 A 
ATOM      3  C   UNL     1       4.248   5.517  17.674  0.00  0.00    +0.000 A 
ATOM      4  C   UNL     1       4.389   4.875  16.428  0.00  0.00    +0.000 A 
ATOM      5  C   UNL     1       5.549   5.044  15.669  0.00  0.00    +0.000 A 
ATOM      6  C   UNL     1       6.592   5.821  16.169  0.00  0.00    +0.000 A 
ENDROOT
BRANCH   3   7
ATOM      7  S   UNL     1       2.674   5.443  18.492  0.00  0.00    +0.000 S 
ATOM      8  O   UNL     1       2.385   6.792  18.942  0.00  0.00    +0.000 OA
ATOM      9  O   UNL     1       1.771   4.777  17.578  0.00  0.00    +0.000 OA
BRANCH   7  10
ATOM     10  N   UNL     1       2.832   4.466  19.888  0.00  0.00    +0.000 NA
ATOM     11  C   UNL     1       3.658   3.219  19.822  0.00  0.00    +0.000 C 
ATOM     12  C   UNL     1       2.975   2.139  18.978  0.00  0.00    +0.000 C 
ATOM     13  O   UNL     1       1.670   1.818  19.486  0.00  0.00    +0.000 OA
ATOM     14  C   UNL     1       0.825   2.973  19.622  0.00  0.00    +0.000 C 
ATOM     15  C   UNL     1       1.490   4.072  20.470  0.00  0.00    +0.000 C 
ENDBRANCH   7  10
ENDBRANCH   3   7
BRANCH   1  17
ATOM     16  O   UNL     1       8.345   6.632  18.859  0.00  0.00    +0.000 OA
ATOM     17  C   UNL     1       7.577   7.174  18.074  0.00  0.00    +0.000 C 
BRANCH  17  18
ATOM     18  O   UNL     1       7.642   8.455  17.656  0.00  0.00    +0.000 OA
BRANCH  18  19
ATOM     19  C   UNL     1       8.636   9.210  18.334  0.00  0.00    +0.000 C 
BRANCH  19  20
ATOM     20  C   UNL     1       8.480  10.711  18.069  0.00  0.00    +0.000 C 
ATOM     21  O   UNL     1       7.755  11.059  17.129  0.00  0.00    +0.000 OA
ATOM     22  N   UNL     1       9.225  11.591  18.867  0.00  0.00    +0.000 N 
ATOM     23  C   UNL     1      10.182  11.151  19.890  0.00  0.00    +0.000 C 
ATOM     24  C   UNL     1      11.554  11.733  19.622  0.00  0.00    +0.000 C 
ATOM     25  C   UNL     1      11.489  13.248  19.709  0.00  0.00    +0.000 C 
ATOM     26  C   UNL     1      10.249  13.822  19.071  0.00  0.00    +0.000 A 
ATOM     27  C   UNL     1      10.199  15.214  18.871  0.00  0.00    +0.000 A 
ATOM     28  C   UNL     1       9.080  15.811  18.296  0.00  0.00    +0.000 A 
ATOM     29  C   UNL     1       7.993  15.028  17.934  0.00  0.00    +0.000 A 
ATOM     30  C   UNL     1       8.031  13.645  18.130  0.00  0.00    +0.000 A 
ATOM     31  C   UNL     1       9.157  13.018  18.683  0.00  0.00    +0.000 A 
ENDBRANCH  19  20
ENDBRANCH  18  19
ENDBRANCH  17  18
ENDBRANCH   1  17
BRANCH   6  32
ATOM     32  O   UNL     1       7.734   5.925  15.426  0.00  0.00    +0.000 OA
ATOM     33  H   UNL     1       8.231   6.719  15.687  0.00  0.00    +0.000 HD
ENDBRANCH   6  32
TORSDOF 7
ENDMDL
MODEL 7
REMARK VINA RESULT:      -8.4      1.029      2.252
REMARK  Name = 
REMARK  7 active torsions:
REMARK  status: ('A' for Active; 'I' for Inactive)
REMARK    1  A    between atoms: C_2  and  O_3
REMARK    2  A    between atoms: C_2  and  C_17
REMARK    3  A    between atoms: O_3  and  C_4
REMARK    4  A    between atoms: C_4  and  C_5
REMARK    5  A    between atoms: C_19  and  S_20
REMARK    6  A    between atoms: S_20  and  N_23
REMARK    7  A    between atoms: C_31  and  O_32
REMARK                            x       y       z     vdW  Elec       q    Type
REMARK                         _______ _______ _______ _____ _____    ______ ____
ROOT
ATOM      1  C   UNL     1       6.518   6.228  17.514  0.00  0.00    +0.000 A 
ATOM      2  C   UNL     1       5.366   5.985  18.288  0.00  0.00    +0.000 A 
ATOM      3  C   UNL     1       4.347   5.194  17.772  0.00  0.00    +0.000 A 
ATOM      4  C   UNL     1       4.465   4.655  16.475  0.00  0.00    +0.000 A 
ATOM      5  C   UNL     1       5.586   4.932  15.690  0.00  0.00    +0.000 A 
ATOM      6  C   UNL     1       6.615   5.715  16.209  0.00  0.00    +0.000 A 
ENDROOT
BRANCH   3   7
ATOM      7  S   UNL     1       2.813   4.988  18.638  0.00  0.00    +0.000 S 
ATOM      8  O   UNL     1       3.067   5.374  20.014  0.00  0.00    +0.000 OA
ATOM      9  O   UNL     1       1.810   5.689  17.865  0.00  0.00    +0.000 OA
BRANCH   7  10
ATOM     10  N   UNL     1       2.410   3.325  18.645  0.00  0.00    +0.000 NA
ATOM     11  C   UNL     1       1.057   2.900  19.126  0.00  0.00    +0.000 C 
ATOM     12  C   UNL     1       0.920   3.079  20.641  0.00  0.00    +0.000 C 
ATOM     13  O   UNL     1       1.931   2.345  21.353  0.00  0.00    +0.000 OA
ATOM     14  C   UNL     1       3.263   2.666  20.917  0.00  0.00    +0.000 C 
ATOM     15  C   UNL     1       3.425   2.490  19.397  0.00  0.00    +0.000 C 
ENDBRANCH   7  10
ENDBRANCH   3   7
BRANCH   1  17
ATOM     16  O   UNL     1       8.311   6.448  19.044  0.00  0.00    +0.000 OA
ATOM     17  C   UNL     1       7.618   6.963  18.176  0.00  0.00    +0.000 C 
BRANCH  17  18
ATOM     18  O   UNL     1       7.769   8.205  17.673  0.00  0.00    +0.000 OA
BRANCH  18  19
ATOM     19  C   UNL     1       8.635   9.018  18.452  0.00  0.00    +0.000 C 
BRANCH  19  20
ATOM     20  C   UNL     1       8.468  10.503  18.111  0.00  0.00    +0.000 C 
ATOM     21  O   UNL     1       7.680  10.804  17.208  0.00  0.00    +0.000 OA
ATOM     22  N   UNL     1       9.274  11.420  18.802  0.00  0.00    +0.000 N 
ATOM     23  C   UNL     1      10.300  11.031  19.778  0.00  0.00    +0.000 C 
ATOM     24  C   UNL     1      11.653  11.582  19.378  0.00  0.00    +0.000 C 
ATOM     25  C   UNL     1      11.602  13.100  19.382  0.00  0.00    +0.000 C 
ATOM     26  C   UNL     1      10.323  13.649  18.802  0.00  0.00    +0.000 A 
ATOM     27  C   UNL     1      10.267  15.027  18.525  0.00  0.00    +0.000 A 
ATOM     28  C   UNL     1       9.113  15.601  17.998  0.00  0.00    +0.000 A 
ATOM     29  C   UNL     1       7.998  14.810  17.761  0.00  0.00    +0.000 A 
ATOM     30  C   UNL     1       8.043  13.440  18.034  0.00  0.00    +0.000 A 
ATOM     31  C   UNL     1       9.201  12.834  18.540  0.00  0.00    +0.000 A 
ENDBRANCH  19  20
ENDBRANCH  18  19
ENDBRANCH  17  18
ENDBRANCH   1  17
BRANCH   6  32
ATOM     32  O   UNL     1       7.722   5.925  15.436  0.00  0.00    +0.000 OA
ATOM     33  H   UNL     1       8.326   5.167  15.504  0.00  0.00    +0.000 HD
ENDBRANCH   6  32
TORSDOF 7
ENDMDL
MODEL 8
REMARK VINA RESULT:      -8.3      5.613      7.595
REMARK  Name = 
REMARK  7 active torsions:
REMARK  status: ('A' for Active; 'I' for Inactive)
REMARK    1  A    between atoms: C_2  and  O_3
REMARK    2  A    between atoms: C_2  and  C_17
REMARK    3  A    between atoms: O_3  and  C_4
REMARK    4  A    between atoms: C_4  and  C_5
REMARK    5  A    between atoms: C_19  and  S_20
REMARK    6  A    between atoms: S_20  and  N_23
REMARK    7  A    between atoms: C_31  and  O_32
REMARK                            x       y       z     vdW  Elec       q    Type
REMARK                         _______ _______ _______ _____ _____    ______ ____
ROOT
ATOM      1  C   UNL     1       1.169   9.292  19.979  0.00  0.00    +0.000 A 
ATOM      2  C   UNL     1       1.616   8.002  20.327  0.00  0.00    +0.000 A 
ATOM      3  C   UNL     1       2.263   7.220  19.378  0.00  0.00    +0.000 A 
ATOM      4  C   UNL     1       2.453   7.715  18.072  0.00  0.00    +0.000 A 
ATOM      5  C   UNL     1       1.971   8.975  17.713  0.00  0.00    +0.000 A 
ATOM      6  C   UNL     1       1.332   9.766  18.666  0.00  0.00    +0.000 A 
ENDROOT
BRANCH   3   7
ATOM      7  S   UNL     1       2.703   5.535  19.717  0.00  0.00    +0.000 S 
ATOM      8  O   UNL     1       4.147   5.460  19.599  0.00  0.00    +0.000 OA
ATOM      9  O   UNL     1       2.062   5.189  20.967  0.00  0.00    +0.000 OA
BRANCH   7  10
ATOM     10  N   UNL     1       2.043   4.542  18.490  0.00  0.00    +0.000 NA
ATOM     11  C   UNL     1       1.185   3.375  18.872  0.00  0.00    +0.000 C 
ATOM     12  C   UNL     1       2.013   2.261  19.518  0.00  0.00    +0.000 C 
ATOM     13  O   UNL     1       3.065   1.812  18.647  0.00  0.00    +0.000 OA
ATOM     14  C   UNL     1       3.911   2.884  18.199  0.00  0.00    +0.000 C 
ATOM     15  C   UNL     1       3.101   4.016  17.543  0.00  0.00    +0.000 C 
ENDBRANCH   7  10
ENDBRANCH   3   7
BRANCH   1  17
ATOM     16  O   UNL     1       1.106  10.128  22.192  0.00  0.00    +0.000 OA
ATOM     17  C   UNL     1       0.612  10.118  21.072  0.00  0.00    +0.000 C 
BRANCH  17  18
ATOM     18  O   UNL     1      -0.437  10.859  20.660  0.00  0.00    +0.000 OA
BRANCH  18  19
ATOM     19  C   UNL     1      -0.622  12.037  21.433  0.00  0.00    +0.000 C 
BRANCH  19  20
ATOM     20  C   UNL     1      -0.726  13.281  20.545  0.00  0.00    +0.000 C 
ATOM     21  O   UNL     1      -1.796  13.486  19.960  0.00  0.00    +0.000 OA
ATOM     22  N   UNL     1       0.424  14.069  20.397  0.00  0.00    +0.000 N 
ATOM     23  C   UNL     1       1.724  13.734  20.994  0.00  0.00    +0.000 C 
ATOM     24  C   UNL     1       2.794  13.647  19.926  0.00  0.00    +0.000 C 
ATOM     25  C   UNL     1       2.957  15.001  19.260  0.00  0.00    +0.000 C 
ATOM     26  C   UNL     1       1.643  15.695  19.006  0.00  0.00    +0.000 A 
ATOM     27  C   UNL     1       1.652  16.832  18.177  0.00  0.00    +0.000 A 
ATOM     28  C   UNL     1       0.475  17.527  17.909  0.00  0.00    +0.000 A 
ATOM     29  C   UNL     1      -0.718  17.105  18.480  0.00  0.00    +0.000 A 
ATOM     30  C   UNL     1      -0.737  15.979  19.306  0.00  0.00    +0.000 A 
ATOM     31  C   UNL     1       0.430  15.248  19.570  0.00  0.00    +0.000 A 
ENDBRANCH  19  20
ENDBRANCH  18  19
ENDBRANCH  17  18
ENDBRANCH   1  17
BRANCH   6  32
ATOM     32  O   UNL     1       0.917  11.015  18.297  0.00  0.00    +0.000 OA
ATOM     33  H   UNL     1       1.678  11.619  18.250  0.00  0.00    +0.000 HD
ENDBRANCH   6  32
TORSDOF 7
ENDMDL
MODEL 9
REMARK VINA RESULT:      -8.3      5.369      7.114
REMARK  Name = 
REMARK  7 active torsions:
REMARK  status: ('A' for Active; 'I' for Inactive)
REMARK    1  A    between atoms: C_2  and  O_3
REMARK    2  A    between atoms: C_2  and  C_17
REMARK    3  A    between atoms: O_3  and  C_4
REMARK    4  A    between atoms: C_4  and  C_5
REMARK    5  A    between atoms: C_19  and  S_20
REMARK    6  A    between atoms: S_20  and  N_23
REMARK    7  A    between atoms: C_31  and  O_32
REMARK                            x       y       z     vdW  Elec       q    Type
REMARK                         _______ _______ _______ _____ _____    ______ ____
ROOT
ATOM      1  C   UNL     1       1.189   9.049  19.842  0.00  0.00    +0.000 A 
ATOM      2  C   UNL     1       1.751   7.808  20.197  0.00  0.00    +0.000 A 
ATOM      3  C   UNL     1       2.513   7.109  19.270  0.00  0.00    +0.000 A 
ATOM      4  C   UNL     1       2.705   7.637  17.977  0.00  0.00    +0.000 A 
ATOM      5  C   UNL     1       2.111   8.846  17.609  0.00  0.00    +0.000 A 
ATOM      6  C   UNL     1       1.356   9.555  18.541  0.00  0.00    +0.000 A 
ENDROOT
BRANCH   3   7
ATOM      7  S   UNL     1       3.110   5.473  19.612  0.00  0.00    +0.000 S 
ATOM      8  O   UNL     1       4.557   5.572  19.672  0.00  0.00    +0.000 OA
ATOM      9  O   UNL     1       2.371   5.001  20.763  0.00  0.00    +0.000 OA
BRANCH   7  10
ATOM     10  N   UNL     1       2.727   4.464  18.285  0.00  0.00    +0.000 NA
ATOM     11  C   UNL     1       1.344   3.899  18.167  0.00  0.00    +0.000 C 
ATOM     12  C   UNL     1       1.086   2.828  19.231  0.00  0.00    +0.000 C 
ATOM     13  O   UNL     1       2.045   1.760  19.149  0.00  0.00    +0.000 OA
ATOM     14  C   UNL     1       3.404   2.226  19.210  0.00  0.00    +0.000 C 
ATOM     15  C   UNL     1       3.688   3.302  18.147  0.00  0.00    +0.000 C 
ENDBRANCH   7  10
ENDBRANCH   3   7
BRANCH   1  17
ATOM     16  O   UNL     1      -0.581   9.451  21.361  0.00  0.00    +0.000 OA
ATOM     17  C   UNL     1       0.505   9.800  20.918  0.00  0.00    +0.000 C 
BRANCH  17  18
ATOM     18  O   UNL     1       1.242  10.843  21.351  0.00  0.00    +0.000 OA
BRANCH  18  19
ATOM     19  C   UNL     1       0.565  12.087  21.234  0.00  0.00    +0.000 C 
BRANCH  19  20
ATOM     20  C   UNL     1       1.380  13.097  20.420  0.00  0.00    +0.000 C 
ATOM     21  O   UNL     1       2.613  13.042  20.498  0.00  0.00    +0.000 OA
ATOM     22  N   UNL     1       0.672  14.063  19.691  0.00  0.00    +0.000 N 
ATOM     23  C   UNL     1      -0.791  14.194  19.717  0.00  0.00    +0.000 C 
ATOM     24  C   UNL     1      -1.194  15.589  20.147  0.00  0.00    +0.000 C 
ATOM     25  C   UNL     1      -0.684  16.598  19.134  0.00  0.00    +0.000 C 
ATOM     26  C   UNL     1       0.711  16.294  18.648  0.00  0.00    +0.000 A 
ATOM     27  C   UNL     1       1.377  17.286  17.905  0.00  0.00    +0.000 A 
ATOM     28  C   UNL     1       2.663  17.067  17.417  0.00  0.00    +0.000 A 
ATOM     29  C   UNL     1       3.288  15.849  17.650  0.00  0.00    +0.000 A 
ATOM     30  C   UNL     1       2.634  14.857  18.385  0.00  0.00    +0.000 A 
ATOM     31  C   UNL     1       1.350  15.064  18.908  0.00  0.00    +0.000 A 
ENDBRANCH  19  20
ENDBRANCH  18  19
ENDBRANCH  17  18
ENDBRANCH   1  17
BRANCH   6  32
ATOM     32  O   UNL     1       0.831  10.760  18.166  0.00  0.00    +0.000 OA
ATOM     33  H   UNL     1       0.338  10.664  17.334  0.00  0.00    +0.000 HD
ENDBRANCH   6  32
TORSDOF 7
ENDMDL
