MODEL 1
REMARK VINA RESULT:      -7.5      0.000      0.000
REMARK  Name = 
REMARK  6 active torsions:
REMARK  status: ('A' for Active; 'I' for Inactive)
REMARK    1  A    between atoms: C_2  and  OXT_3
REMARK    2  A    between atoms: C_2  and  CA_4
REMARK    3  A    between atoms: N_7  and  C_8
REMARK    4  A    between atoms: C_8  and  C_9
REMARK    5  A    between atoms: C_16  and  C_17
REMARK    6  A    between atoms: C_17  and  O_19
REMARK                            x       y       z     vdW  Elec       q    Type
REMARK                         _______ _______ _______ _____ _____    ______ ____
ROOT
ATOM      1  CA  UNL     1       2.537   3.928  20.407  0.00  0.00    +0.000 A 
ATOM      2  N   UNL     1       2.346   5.296  20.232  0.00  0.00    +0.000 NA
ATOM      3  C   UNL     1       3.428   5.729  19.643  0.00  0.00    +0.000 A 
ATOM      4  N   UNL     1       4.326   4.714  19.426  0.00  0.00    +0.000 N 
ATOM      5  C   UNL     1       3.752   3.530  19.855  0.00  0.00    +0.000 A 
ENDROOT
BRANCH   1   7
ATOM      6  O   UNL     1       1.612   2.587  22.161  0.00  0.00    +0.000 OA
ATOM      7  C   UNL     1       1.507   3.143  21.080  0.00  0.00    +0.000 C 
BRANCH   7   8
ATOM      8  OXT UNL     1       0.375   3.062  20.323  0.00  0.00    +0.000 OA
ATOM      9  HXT UNL     1      -0.311   3.607  20.772  0.00  0.00    +0.000 HD
ENDBRANCH   7   8
ENDBRANCH   1   7
BRANCH   5  10
ATOM     10  C   UNL     1       4.342   2.210  19.860  0.00  0.00    +0.000 C 
ATOM     11  O   UNL     1       5.087   1.768  20.717  0.00  0.00    +0.000 OA
BRANCH  10  12
ATOM     12  O   UNL     1       3.996   1.486  18.771  0.00  0.00    +0.000 OA
ATOM     13  H   UNL     1       4.654   0.825  18.504  0.00  0.00    +0.000 HD
ENDBRANCH  10  12
ENDBRANCH   5  10
BRANCH   4  14
ATOM     14  C   UNL     1       5.677   4.947  18.920  0.00  0.00    +0.000 C 
BRANCH  14  15
ATOM     15  C   UNL     1       5.827   4.723  17.435  0.00  0.00    +0.000 A 
ATOM     16  C   UNL     1       7.080   4.924  16.832  0.00  0.00    +0.000 A 
ATOM     17  C   UNL     1       7.265   4.679  15.469  0.00  0.00    +0.000 A 
ATOM     18  C   UNL     1       6.198   4.226  14.698  0.00  0.00    +0.000 A 
ATOM     19 BR   UNL     1       6.450   3.879  12.857  0.00  0.00    +0.000 Br
ATOM     20  C   UNL     1       4.951   4.014  15.277  0.00  0.00    +0.000 A 
ATOM     21  C   UNL     1       4.769   4.251  16.641  0.00  0.00    +0.000 A 
ENDBRANCH  14  15
ENDBRANCH   4  14
TORSDOF 6
ENDMDL
MODEL 2
REMARK VINA RESULT:      -7.4      0.146      1.117
REMARK  Name = 
REMARK  6 active torsions:
REMARK  status: ('A' for Active; 'I' for Inactive)
REMARK    1  A    between atoms: C_2  and  OXT_3
REMARK    2  A    between atoms: C_2  and  CA_4
REMARK    3  A    between atoms: N_7  and  C_8
REMARK    4  A    between atoms: C_8  and  C_9
REMARK    5  A    between atoms: C_16  and  C_17
REMARK    6  A    between atoms: C_17  and  O_19
REMARK                            x       y       z     vdW  Elec       q    Type
REMARK                         _______ _______ _______ _____ _____    ______ ____
ROOT
ATOM      1  CA  UNL     1       2.552   3.949  20.423  0.00  0.00    +0.000 A 
ATOM      2  N   UNL     1       2.347   5.297  20.139  0.00  0.00    +0.000 NA
ATOM      3  C   UNL     1       3.436   5.699  19.543  0.00  0.00    +0.000 A 
ATOM      4  N   UNL     1       4.353   4.685  19.425  0.00  0.00    +0.000 N 
ATOM      5  C   UNL     1       3.785   3.528  19.931  0.00  0.00    +0.000 A 
ENDROOT
BRANCH   1   7
ATOM      6  O   UNL     1       1.641   2.630  22.201  0.00  0.00    +0.000 OA
ATOM      7  C   UNL     1       1.517   3.202  21.131  0.00  0.00    +0.000 C 
BRANCH   7   8
ATOM      8  OXT UNL     1       0.353   3.180  20.420  0.00  0.00    +0.000 OA
ATOM      9  HXT UNL     1      -0.280   3.775  20.883  0.00  0.00    +0.000 HD
ENDBRANCH   7   8
ENDBRANCH   1   7
BRANCH   5  10
ATOM     10  C   UNL     1       4.392   2.222  20.051  0.00  0.00    +0.000 C 
ATOM     11  O   UNL     1       5.042   1.826  21.003  0.00  0.00    +0.000 OA
BRANCH  10  12
ATOM     12  O   UNL     1       4.185   1.453  18.957  0.00  0.00    +0.000 OA
ATOM     13  H   UNL     1       4.493   1.847  18.126  0.00  0.00    +0.000 HD
ENDBRANCH  10  12
ENDBRANCH   5  10
BRANCH   4  14
ATOM     14  C   UNL     1       5.712   4.899  18.933  0.00  0.00    +0.000 C 
BRANCH  14  15
ATOM     15  C   UNL     1       5.893   4.596  17.466  0.00  0.00    +0.000 A 
ATOM     16  C   UNL     1       4.803   4.110  16.724  0.00  0.00    +0.000 A 
ATOM     17  C   UNL     1       4.923   3.866  15.353  0.00  0.00    +0.000 A 
ATOM     18  C   UNL     1       6.134   4.112  14.712  0.00  0.00    +0.000 A 
ATOM     19 BR   UNL     1       6.294   3.797  12.855  0.00  0.00    +0.000 Br
ATOM     20  C   UNL     1       7.224   4.599  15.427  0.00  0.00    +0.000 A 
ATOM     21  C   UNL     1       7.101   4.851  16.795  0.00  0.00    +0.000 A 
ENDBRANCH  14  15
ENDBRANCH   4  14
TORSDOF 6
ENDMDL
MODEL 3
REMARK VINA RESULT:      -7.1      2.146      2.613
REMARK  Name = 
REMARK  6 active torsions:
REMARK  status: ('A' for Active; 'I' for Inactive)
REMARK    1  A    between atoms: C_2  and  OXT_3
REMARK    2  A    between atoms: C_2  and  CA_4
REMARK    3  A    between atoms: N_7  and  C_8
REMARK    4  A    between atoms: C_8  and  C_9
REMARK    5  A    between atoms: C_16  and  C_17
REMARK    6  A    between atoms: C_17  and  O_19
REMARK                            x       y       z     vdW  Elec       q    Type
REMARK                         _______ _______ _______ _____ _____    ______ ____
ROOT
ATOM      1  CA  UNL     1       2.262   3.221  19.880  0.00  0.00    +0.000 A 
ATOM      2  N   UNL     1       1.496   4.182  19.226  0.00  0.00    +0.000 NA
ATOM      3  C   UNL     1       2.101   4.400  18.090  0.00  0.00    +0.000 A 
ATOM      4  N   UNL     1       3.233   3.635  17.964  0.00  0.00    +0.000 N 
ATOM      5  C   UNL     1       3.330   2.820  19.079  0.00  0.00    +0.000 A 
ENDROOT
BRANCH   1   7
ATOM      6  O   UNL     1       2.617   2.515  22.139  0.00  0.00    +0.000 OA
ATOM      7  C   UNL     1       1.868   2.777  21.213  0.00  0.00    +0.000 C 
BRANCH   7   8
ATOM      8  OXT UNL     1       0.513   2.647  21.308  0.00  0.00    +0.000 OA
ATOM      9  HXT UNL     1       0.180   2.428  20.408  0.00  0.00    +0.000 HD
ENDBRANCH   7   8
ENDBRANCH   1   7
BRANCH   5  10
ATOM     10  C   UNL     1       4.377   1.877  19.400  0.00  0.00    +0.000 C 
ATOM     11  O   UNL     1       5.213   2.015  20.277  0.00  0.00    +0.000 OA
BRANCH  10  12
ATOM     12  O   UNL     1       4.362   0.792  18.592  0.00  0.00    +0.000 OA
ATOM     13  H   UNL     1       5.198   0.302  18.562  0.00  0.00    +0.000 HD
ENDBRANCH  10  12
ENDBRANCH   5  10
BRANCH   4  14
ATOM     14  C   UNL     1       4.177   3.791  16.860  0.00  0.00    +0.000 C 
BRANCH  14  15
ATOM     15  C   UNL     1       5.175   4.907  17.054  0.00  0.00    +0.000 A 
ATOM     16  C   UNL     1       4.800   6.226  16.746  0.00  0.00    +0.000 A 
ATOM     17  C   UNL     1       5.683   7.288  16.959  0.00  0.00    +0.000 A 
ATOM     18  C   UNL     1       6.947   7.040  17.488  0.00  0.00    +0.000 A 
ATOM     19 BR   UNL     1       8.137   8.476  17.792  0.00  0.00    +0.000 Br
ATOM     20  C   UNL     1       7.335   5.742  17.806  0.00  0.00    +0.000 A 
ATOM     21  C   UNL     1       6.449   4.682  17.600  0.00  0.00    +0.000 A 
ENDBRANCH  14  15
ENDBRANCH   4  14
TORSDOF 6
ENDMDL
MODEL 4
REMARK VINA RESULT:      -6.9      1.009      1.426
REMARK  Name = 
REMARK  6 active torsions:
REMARK  status: ('A' for Active; 'I' for Inactive)
REMARK    1  A    between atoms: C_2  and  OXT_3
REMARK    2  A    between atoms: C_2  and  CA_4
REMARK    3  A    between atoms: N_7  and  C_8
REMARK    4  A    between atoms: C_8  and  C_9
REMARK    5  A    between atoms: C_16  and  C_17
REMARK    6  A    between atoms: C_17  and  O_19
REMARK                            x       y       z     vdW  Elec       q    Type
REMARK                         _______ _______ _______ _____ _____    ______ ____
ROOT
ATOM      1  CA  UNL     1       2.040   3.948  19.717  0.00  0.00    +0.000 A 
ATOM      2  N   UNL     1       1.804   5.291  19.997  0.00  0.00    +0.000 NA
ATOM      3  C   UNL     1       2.923   5.907  19.731  0.00  0.00    +0.000 A 
ATOM      4  N   UNL     1       3.890   5.036  19.294  0.00  0.00    +0.000 N 
ATOM      5  C   UNL     1       3.329   3.772  19.218  0.00  0.00    +0.000 A 
ENDROOT
BRANCH   1   7
ATOM      6  O   UNL     1       0.316   2.409  19.093  0.00  0.00    +0.000 OA
ATOM      7  C   UNL     1       0.979   2.972  19.948  0.00  0.00    +0.000 C 
BRANCH   7   8
ATOM      8  OXT UNL     1       0.773   2.775  21.282  0.00  0.00    +0.000 OA
ATOM      9  HXT UNL     1      -0.196   2.847  21.438  0.00  0.00    +0.000 HD
ENDBRANCH   7   8
ENDBRANCH   1   7
BRANCH   5  10
ATOM     10  C   UNL     1       3.978   2.536  18.846  0.00  0.00    +0.000 C 
ATOM     11  O   UNL     1       3.712   1.860  17.867  0.00  0.00    +0.000 OA
BRANCH  10  12
ATOM     12  O   UNL     1       4.932   2.167  19.731  0.00  0.00    +0.000 OA
ATOM     13  H   UNL     1       5.809   2.028  19.340  0.00  0.00    +0.000 HD
ENDBRANCH  10  12
ENDBRANCH   5  10
BRANCH   4  14
ATOM     14  C   UNL     1       5.276   5.436  19.071  0.00  0.00    +0.000 C 
BRANCH  14  15
ATOM     15  C   UNL     1       5.734   5.307  17.638  0.00  0.00    +0.000 A 
ATOM     16  C   UNL     1       6.921   4.611  17.355  0.00  0.00    +0.000 A 
ATOM     17  C   UNL     1       7.347   4.432  16.036  0.00  0.00    +0.000 A 
ATOM     18  C   UNL     1       6.585   4.943  14.989  0.00  0.00    +0.000 A 
ATOM     19 BR   UNL     1       7.151   4.687  13.204  0.00  0.00    +0.000 Br
ATOM     20  C   UNL     1       5.403   5.629  15.248  0.00  0.00    +0.000 A 
ATOM     21  C   UNL     1       4.973   5.801  16.565  0.00  0.00    +0.000 A 
ENDBRANCH  14  15
ENDBRANCH   4  14
TORSDOF 6
ENDMDL
MODEL 5
REMARK VINA RESULT:      -6.9      2.247      2.645
REMARK  Name = 
REMARK  6 active torsions:
REMARK  status: ('A' for Active; 'I' for Inactive)
REMARK    1  A    between atoms: C_2  and  OXT_3
REMARK    2  A    between atoms: C_2  and  CA_4
REMARK    3  A    between atoms: N_7  and  C_8
REMARK    4  A    between atoms: C_8  and  C_9
REMARK    5  A    between atoms: C_16  and  C_17
REMARK    6  A    between atoms: C_17  and  O_19
REMARK                            x       y       z     vdW  Elec       q    Type
REMARK                         _______ _______ _______ _____ _____    ______ ____
ROOT
ATOM      1  CA  UNL     1       2.382   3.389  19.677  0.00  0.00    +0.000 A 
ATOM      2  N   UNL     1       1.838   4.444  18.950  0.00  0.00    +0.000 NA
ATOM      3  C   UNL     1       2.677   4.667  17.975  0.00  0.00    +0.000 A 
ATOM      4  N   UNL     1       3.752   3.814  18.026  0.00  0.00    +0.000 N 
ATOM      5  C   UNL     1       3.557   2.938  19.081  0.00  0.00    +0.000 A 
ENDROOT
BRANCH   1   7
ATOM      6  O   UNL     1       2.203   2.656  21.949  0.00  0.00    +0.000 OA
ATOM      7  C   UNL     1       1.691   2.914  20.872  0.00  0.00    +0.000 C 
BRANCH   7   8
ATOM      8  OXT UNL     1       0.358   2.748  20.637  0.00  0.00    +0.000 OA
ATOM      9  HXT UNL     1       0.121   3.340  19.887  0.00  0.00    +0.000 HD
ENDBRANCH   7   8
ENDBRANCH   1   7
BRANCH   5  10
ATOM     10  C   UNL     1       4.444   1.894  19.540  0.00  0.00    +0.000 C 
ATOM     11  O   UNL     1       5.160   1.952  20.525  0.00  0.00    +0.000 OA
BRANCH  10  12
ATOM     12  O   UNL     1       4.425   0.808  18.734  0.00  0.00    +0.000 OA
ATOM     13  H   UNL     1       4.340   1.011  17.790  0.00  0.00    +0.000 HD
ENDBRANCH  10  12
ENDBRANCH   5  10
BRANCH   4  14
ATOM     14  C   UNL     1       4.910   3.944  17.146  0.00  0.00    +0.000 C 
BRANCH  14  15
ATOM     15  C   UNL     1       5.743   5.177  17.400  0.00  0.00    +0.000 A 
ATOM     16  C   UNL     1       6.851   5.093  18.261  0.00  0.00    +0.000 A 
ATOM     17  C   UNL     1       7.671   6.203  18.479  0.00  0.00    +0.000 A 
ATOM     18  C   UNL     1       7.393   7.405  17.835  0.00  0.00    +0.000 A 
ATOM     19 BR   UNL     1       8.510   8.903  18.117  0.00  0.00    +0.000 Br
ATOM     20  C   UNL     1       6.304   7.507  16.974  0.00  0.00    +0.000 A 
ATOM     21  C   UNL     1       5.489   6.395  16.749  0.00  0.00    +0.000 A 
ENDBRANCH  14  15
ENDBRANCH   4  14
TORSDOF 6
ENDMDL
MODEL 6
REMARK VINA RESULT:      -6.9      0.323      1.075
REMARK  Name = 
REMARK  6 active torsions:
REMARK  status: ('A' for Active; 'I' for Inactive)
REMARK    1  A    between atoms: C_2  and  OXT_3
REMARK    2  A    between atoms: C_2  and  CA_4
REMARK    3  A    between atoms: N_7  and  C_8
REMARK    4  A    between atoms: C_8  and  C_9
REMARK    5  A    between atoms: C_16  and  C_17
REMARK    6  A    between atoms: C_17  and  O_19
REMARK                            x       y       z     vdW  Elec       q    Type
REMARK                         _______ _______ _______ _____ _____    ______ ____
ROOT
ATOM      1  CA  UNL     1       2.688   4.006  20.229  0.00  0.00    +0.000 A 
ATOM      2  N   UNL     1       2.657   5.396  20.157  0.00  0.00    +0.000 NA
ATOM      3  C   UNL     1       3.762   5.740  19.551  0.00  0.00    +0.000 A 
ATOM      4  N   UNL     1       4.523   4.646  19.226  0.00  0.00    +0.000 N 
ATOM      5  C   UNL     1       3.826   3.509  19.598  0.00  0.00    +0.000 A 
ENDROOT
BRANCH   1   7
ATOM      6  O   UNL     1       0.498   3.057  20.418  0.00  0.00    +0.000 OA
ATOM      7  C   UNL     1       1.596   3.300  20.892  0.00  0.00    +0.000 C 
BRANCH   7   8
ATOM      8  OXT UNL     1       1.933   2.957  22.168  0.00  0.00    +0.000 OA
ATOM      9  HXT UNL     1       1.587   2.049  22.324  0.00  0.00    +0.000 HD
ENDBRANCH   7   8
ENDBRANCH   1   7
BRANCH   5  10
ATOM     10  C   UNL     1       4.253   2.132  19.487  0.00  0.00    +0.000 C 
ATOM     11  O   UNL     1       3.808   1.311  18.704  0.00  0.00    +0.000 OA
BRANCH  10  12
ATOM     12  O   UNL     1       5.216   1.816  20.383  0.00  0.00    +0.000 OA
ATOM     13  H   UNL     1       6.051   2.292  20.259  0.00  0.00    +0.000 HD
ENDBRANCH  10  12
ENDBRANCH   5  10
BRANCH   4  14
ATOM     14  C   UNL     1       5.873   4.754  18.678  0.00  0.00    +0.000 C 
BRANCH  14  15
ATOM     15  C   UNL     1       5.951   4.559  17.184  0.00  0.00    +0.000 A 
ATOM     16  C   UNL     1       7.144   4.872  16.510  0.00  0.00    +0.000 A 
ATOM     17  C   UNL     1       7.264   4.659  15.134  0.00  0.00    +0.000 A 
ATOM     18  C   UNL     1       6.194   4.125  14.422  0.00  0.00    +0.000 A 
ATOM     19 BR   UNL     1       6.361   3.821  12.564  0.00  0.00    +0.000 Br
ATOM     20  C   UNL     1       5.006   3.803  15.071  0.00  0.00    +0.000 A 
ATOM     21  C   UNL     1       4.889   4.008  16.447  0.00  0.00    +0.000 A 
ENDBRANCH  14  15
ENDBRANCH   4  14
TORSDOF 6
ENDMDL
MODEL 7
REMARK VINA RESULT:      -6.9      2.636      3.388
REMARK  Name = 
REMARK  6 active torsions:
REMARK  status: ('A' for Active; 'I' for Inactive)
REMARK    1  A    between atoms: C_2  and  OXT_3
REMARK    2  A    between atoms: C_2  and  CA_4
REMARK    3  A    between atoms: N_7  and  C_8
REMARK    4  A    between atoms: C_8  and  C_9
REMARK    5  A    between atoms: C_16  and  C_17
REMARK    6  A    between atoms: C_17  and  O_19
REMARK                            x       y       z     vdW  Elec       q    Type
REMARK                         _______ _______ _______ _____ _____    ______ ____
ROOT
ATOM      1  CA  UNL     1       2.620   2.984  20.141  0.00  0.00    +0.000 A 
ATOM      2  N   UNL     1       3.755   2.273  20.523  0.00  0.00    +0.000 NA
ATOM      3  C   UNL     1       4.648   2.517  19.601  0.00  0.00    +0.000 A 
ATOM      4  N   UNL     1       4.156   3.349  18.627  0.00  0.00    +0.000 N 
ATOM      5  C   UNL     1       2.868   3.715  18.981  0.00  0.00    +0.000 A 
ENDROOT
BRANCH   1   7
ATOM      6  O   UNL     1       1.363   2.675  22.155  0.00  0.00    +0.000 OA
ATOM      7  C   UNL     1       1.413   2.892  20.956  0.00  0.00    +0.000 C 
BRANCH   7   8
ATOM      8  OXT UNL     1       0.292   3.047  20.194  0.00  0.00    +0.000 OA
ATOM      9  HXT UNL     1      -0.462   3.177  20.813  0.00  0.00    +0.000 HD
ENDBRANCH   7   8
ENDBRANCH   1   7
BRANCH   5  10
ATOM     10  C   UNL     1       1.947   4.546  18.240  0.00  0.00    +0.000 C 
ATOM     11  O   UNL     1       1.058   4.144  17.509  0.00  0.00    +0.000 OA
BRANCH  10  12
ATOM     12  O   UNL     1       2.183   5.866  18.420  0.00  0.00    +0.000 OA
ATOM     13  H   UNL     1       1.979   6.418  17.649  0.00  0.00    +0.000 HD
ENDBRANCH  10  12
ENDBRANCH   5  10
BRANCH   4  14
ATOM     14  C   UNL     1       4.893   3.662  17.405  0.00  0.00    +0.000 C 
BRANCH  14  15
ATOM     15  C   UNL     1       5.746   4.903  17.499  0.00  0.00    +0.000 A 
ATOM     16  C   UNL     1       5.325   6.078  16.853  0.00  0.00    +0.000 A 
ATOM     17  C   UNL     1       6.066   7.257  16.960  0.00  0.00    +0.000 A 
ATOM     18  C   UNL     1       7.234   7.273  17.719  0.00  0.00    +0.000 A 
ATOM     19 BR   UNL     1       8.230   8.871  17.877  0.00  0.00    +0.000 Br
ATOM     20  C   UNL     1       7.665   6.122  18.371  0.00  0.00    +0.000 A 
ATOM     21  C   UNL     1       6.919   4.945  18.271  0.00  0.00    +0.000 A 
ENDBRANCH  14  15
ENDBRANCH   4  14
TORSDOF 6
ENDMDL
MODEL 8
REMARK VINA RESULT:      -6.8      3.626      5.412
REMARK  Name = 
REMARK  6 active torsions:
REMARK  status: ('A' for Active; 'I' for Inactive)
REMARK    1  A    between atoms: C_2  and  OXT_3
REMARK    2  A    between atoms: C_2  and  CA_4
REMARK    3  A    between atoms: N_7  and  C_8
REMARK    4  A    between atoms: C_8  and  C_9
REMARK    5  A    between atoms: C_16  and  C_17
REMARK    6  A    between atoms: C_17  and  O_19
REMARK                            x       y       z     vdW  Elec       q    Type
REMARK                         _______ _______ _______ _____ _____    ______ ____
ROOT
ATOM      1  CA  UNL     1       4.514   3.504  19.364  0.00  0.00    +0.000 A 
ATOM      2  N   UNL     1       5.657   4.299  19.395  0.00  0.00    +0.000 NA
ATOM      3  C   UNL     1       5.316   5.426  18.831  0.00  0.00    +0.000 A 
ATOM      4  N   UNL     1       4.005   5.412  18.424  0.00  0.00    +0.000 N 
ATOM      5  C   UNL     1       3.446   4.206  18.809  0.00  0.00    +0.000 A 
ENDROOT
BRANCH   1   7
ATOM      6  O   UNL     1       4.839   1.828  21.042  0.00  0.00    +0.000 OA
ATOM      7  C   UNL     1       4.574   2.146  19.894  0.00  0.00    +0.000 C 
BRANCH   7   8
ATOM      8  OXT UNL     1       4.326   1.225  18.919  0.00  0.00    +0.000 OA
ATOM      9  HXT UNL     1       3.398   1.363  18.620  0.00  0.00    +0.000 HD
ENDBRANCH   7   8
ENDBRANCH   1   7
BRANCH   5  10
ATOM     10  C   UNL     1       2.104   3.732  18.560  0.00  0.00    +0.000 C 
ATOM     11  O   UNL     1       1.174   3.784  19.347  0.00  0.00    +0.000 OA
BRANCH  10  12
ATOM     12  O   UNL     1       1.970   3.181  17.332  0.00  0.00    +0.000 OA
ATOM     13  H   UNL     1       2.188   3.778  16.599  0.00  0.00    +0.000 HD
ENDBRANCH  10  12
ENDBRANCH   5  10
BRANCH   4  14
ATOM     14  C   UNL     1       3.410   6.486  17.633  0.00  0.00    +0.000 C 
BRANCH  14  15
ATOM     15  C   UNL     1       2.600   7.472  18.440  0.00  0.00    +0.000 A 
ATOM     16  C   UNL     1       2.090   8.620  17.811  0.00  0.00    +0.000 A 
ATOM     17  C   UNL     1       1.297   9.528  18.518  0.00  0.00    +0.000 A 
ATOM     18  C   UNL     1       1.003   9.292  19.858  0.00  0.00    +0.000 A 
ATOM     19 BR   UNL     1      -0.083  10.511  20.811  0.00  0.00    +0.000 Br
ATOM     20  C   UNL     1       1.494   8.158  20.497  0.00  0.00    +0.000 A 
ATOM     21  C   UNL     1       2.279   7.246  19.788  0.00  0.00    +0.000 A 
ENDBRANCH  14  15
ENDBRANCH   4  14
TORSDOF 6
ENDMDL
MODEL 9
REMARK VINA RESULT:      -6.8      2.577      3.367
REMARK  Name = 
REMARK  6 active torsions:
REMARK  status: ('A' for Active; 'I' for Inactive)
REMARK    1  A    between atoms: C_2  and  OXT_3
REMARK    2  A    between atoms: C_2  and  CA_4
REMARK    3  A    between atoms: N_7  and  C_8
REMARK    4  A    between atoms: C_8  and  C_9
REMARK    5  A    between atoms: C_16  and  C_17
REMARK    6  A    between atoms: C_17  and  O_19
REMARK                            x       y       z     vdW  Elec       q    Type
REMARK                         _______ _______ _______ _____ _____    ______ ____
ROOT
ATOM      1  CA  UNL     1       2.479   2.791  19.682  0.00  0.00    +0.000 A 
ATOM      2  N   UNL     1       2.869   1.540  19.212  0.00  0.00    +0.000 NA
ATOM      3  C   UNL     1       3.612   1.775  18.165  0.00  0.00    +0.000 A 
ATOM      4  N   UNL     1       3.728   3.120  17.917  0.00  0.00    +0.000 N 
ATOM      5  C   UNL     1       3.056   3.802  18.917  0.00  0.00    +0.000 A 
ENDROOT
BRANCH   1   7
ATOM      6  O   UNL     1       1.903   2.652  22.002  0.00  0.00    +0.000 OA
ATOM      7  C   UNL     1       1.597   2.875  20.842  0.00  0.00    +0.000 C 
BRANCH   7   8
ATOM      8  OXT UNL     1       0.328   3.210  20.472  0.00  0.00    +0.000 OA
ATOM      9  HXT UNL     1      -0.069   2.415  20.049  0.00  0.00    +0.000 HD
ENDBRANCH   7   8
ENDBRANCH   1   7
BRANCH   5  10
ATOM     10  C   UNL     1       2.875   5.230  19.048  0.00  0.00    +0.000 C 
ATOM     11  O   UNL     1       2.135   5.918  18.365  0.00  0.00    +0.000 OA
BRANCH  10  12
ATOM     12  O   UNL     1       3.647   5.762  20.023  0.00  0.00    +0.000 OA
ATOM     13  H   UNL     1       4.184   5.115  20.506  0.00  0.00    +0.000 HD
ENDBRANCH  10  12
ENDBRANCH   5  10
BRANCH   4  14
ATOM     14  C   UNL     1       4.378   3.653  16.723  0.00  0.00    +0.000 C 
BRANCH  14  15
ATOM     15  C   UNL     1       5.332   4.790  16.994  0.00  0.00    +0.000 A 
ATOM     16  C   UNL     1       5.062   6.059  16.454  0.00  0.00    +0.000 A 
ATOM     17  C   UNL     1       5.900   7.144  16.726  0.00  0.00    +0.000 A 
ATOM     18  C   UNL     1       7.012   6.971  17.546  0.00  0.00    +0.000 A 
ATOM     19 BR   UNL     1       8.136   8.440  17.928  0.00  0.00    +0.000 Br
ATOM     20  C   UNL     1       7.293   5.724  18.096  0.00  0.00    +0.000 A 
ATOM     21  C   UNL     1       6.451   4.641  17.831  0.00  0.00    +0.000 A 
ENDBRANCH  14  15
ENDBRANCH   4  14
TORSDOF 6
ENDMDL
