MODEL 1
REMARK VINA RESULT:      -7.3      0.000      0.000
REMARK  Name = 
REMARK  3 active torsions:
REMARK  status: ('A' for Active; 'I' for Inactive)
REMARK    1  A    between atoms: C_1  and  N_2
REMARK    2  A    between atoms: N_8  and  C_9
REMARK    3  A    between atoms: C_12  and  O_13
REMARK                            x       y       z     vdW  Elec       q    Type
REMARK                         _______ _______ _______ _____ _____    ______ ____
ROOT
ATOM      1  C   UNL     1       7.965   4.540  17.828  0.00  0.00    +0.000 C 
ATOM      2  N   UNL     1       6.729   5.282  17.673  0.00  0.00    +0.000 N 
ATOM      3  C   UNL     1       6.727   6.509  17.068  0.00  0.00    +0.000 A 
ATOM      4  O   UNL     1       7.731   7.067  16.628  0.00  0.00    +0.000 OA
ATOM      5  N   UNL     1       5.520   7.129  16.977  0.00  0.00    +0.000 N 
ATOM      6  C   UNL     1       4.359   6.672  17.513  0.00  0.00    +0.000 A 
ATOM      7  O   UNL     1       3.340   7.360  17.445  0.00  0.00    +0.000 OA
ATOM      8  N   UNL     1       4.422   5.450  18.136  0.00  0.00    +0.000 N 
ATOM      9  C   UNL     1       5.603   4.723  18.231  0.00  0.00    +0.000 A 
ATOM     10  O   UNL     1       5.672   3.633  18.805  0.00  0.00    +0.000 OA
ATOM     11  H   UNL     1       5.509   8.043  16.558  0.00  0.00    +0.000 HD
ENDROOT
BRANCH   8  12
ATOM     12  C   UNL     1       3.266   4.883  18.827  0.00  0.00    +0.000 C 
ATOM     13  C   UNL     1       2.747   5.698  20.015  0.00  0.00    +0.000 C 
ATOM     14  C   UNL     1       2.010   4.721  20.930  0.00  0.00    +0.000 C 
ATOM     15  C   UNL     1       0.903   3.948  20.195  0.00  0.00    +0.000 C 
ATOM     16  C   UNL     1       1.276   3.433  18.792  0.00  0.00    +0.000 C 
ATOM     17  C   UNL     1       2.077   4.449  17.964  0.00  0.00    +0.000 C 
BRANCH  15  18
ATOM     18  O   UNL     1       0.514   2.839  21.002  0.00  0.00    +0.000 OA
ATOM     19  H   UNL     1       0.360   3.161  21.908  0.00  0.00    +0.000 HD
ENDBRANCH  15  18
ENDBRANCH   8  12
TORSDOF 2
ENDMDL
MODEL 2
REMARK VINA RESULT:      -6.9      1.949      2.587
REMARK  Name = 
REMARK  3 active torsions:
REMARK  status: ('A' for Active; 'I' for Inactive)
REMARK    1  A    between atoms: C_1  and  N_2
REMARK    2  A    between atoms: N_8  and  C_9
REMARK    3  A    between atoms: C_12  and  O_13
REMARK                            x       y       z     vdW  Elec       q    Type
REMARK                         _______ _______ _______ _____ _____    ______ ____
ROOT
ATOM      1  C   UNL     1       5.356   4.040  14.525  0.00  0.00    +0.000 C 
ATOM      2  N   UNL     1       5.660   4.385  15.900  0.00  0.00    +0.000 N 
ATOM      3  C   UNL     1       6.906   4.839  16.241  0.00  0.00    +0.000 A 
ATOM      4  O   UNL     1       7.834   4.981  15.448  0.00  0.00    +0.000 OA
ATOM      5  N   UNL     1       7.096   5.130  17.556  0.00  0.00    +0.000 N 
ATOM      6  C   UNL     1       6.192   4.920  18.546  0.00  0.00    +0.000 A 
ATOM      7  O   UNL     1       6.503   5.139  19.717  0.00  0.00    +0.000 OA
ATOM      8  N   UNL     1       4.968   4.434  18.154  0.00  0.00    +0.000 N 
ATOM      9  C   UNL     1       4.670   4.157  16.825  0.00  0.00    +0.000 A 
ATOM     10  O   UNL     1       3.579   3.704  16.466  0.00  0.00    +0.000 OA
ATOM     11  H   UNL     1       8.014   5.440  17.824  0.00  0.00    +0.000 HD
ENDROOT
BRANCH   8  12
ATOM     12  C   UNL     1       3.936   4.085  19.126  0.00  0.00    +0.000 C 
ATOM     13  C   UNL     1       4.250   2.875  20.011  0.00  0.00    +0.000 C 
ATOM     14  C   UNL     1       2.909   2.312  20.480  0.00  0.00    +0.000 C 
ATOM     15  C   UNL     1       2.043   3.369  21.184  0.00  0.00    +0.000 C 
ATOM     16  C   UNL     1       2.014   4.755  20.512  0.00  0.00    +0.000 C 
ATOM     17  C   UNL     1       3.389   5.214  20.005  0.00  0.00    +0.000 C 
BRANCH  15  18
ATOM     18  O   UNL     1       0.708   2.874  21.272  0.00  0.00    +0.000 OA
ATOM     19  H   UNL     1       0.733   2.013  21.727  0.00  0.00    +0.000 HD
ENDBRANCH  15  18
ENDBRANCH   8  12
TORSDOF 2
ENDMDL
MODEL 3
REMARK VINA RESULT:      -6.8      1.965      2.454
REMARK  Name = 
REMARK  3 active torsions:
REMARK  status: ('A' for Active; 'I' for Inactive)
REMARK    1  A    between atoms: C_1  and  N_2
REMARK    2  A    between atoms: N_8  and  C_9
REMARK    3  A    between atoms: C_12  and  O_13
REMARK                            x       y       z     vdW  Elec       q    Type
REMARK                         _______ _______ _______ _____ _____    ______ ____
ROOT
ATOM      1  C   UNL     1       5.335   4.362  14.518  0.00  0.00    +0.000 C 
ATOM      2  N   UNL     1       5.670   4.693  15.889  0.00  0.00    +0.000 N 
ATOM      3  C   UNL     1       6.875   5.271  16.189  0.00  0.00    +0.000 A 
ATOM      4  O   UNL     1       7.740   5.541  15.358  0.00  0.00    +0.000 OA
ATOM      5  N   UNL     1       7.099   5.538  17.503  0.00  0.00    +0.000 N 
ATOM      6  C   UNL     1       6.275   5.195  18.527  0.00  0.00    +0.000 A 
ATOM      7  O   UNL     1       6.621   5.408  19.689  0.00  0.00    +0.000 OA
ATOM      8  N   UNL     1       5.093   4.590  18.175  0.00  0.00    +0.000 N 
ATOM      9  C   UNL     1       4.759   4.326  16.852  0.00  0.00    +0.000 A 
ATOM     10  O   UNL     1       3.708   3.766  16.527  0.00  0.00    +0.000 OA
ATOM     11  H   UNL     1       7.991   5.938  17.740  0.00  0.00    +0.000 HD
ENDROOT
BRANCH   8  12
ATOM     12  C   UNL     1       4.157   4.096  19.180  0.00  0.00    +0.000 C 
ATOM     13  C   UNL     1       2.780   4.767  19.180  0.00  0.00    +0.000 C 
ATOM     14  C   UNL     1       2.206   4.594  20.586  0.00  0.00    +0.000 C 
ATOM     15  C   UNL     1       2.163   3.122  21.026  0.00  0.00    +0.000 C 
ATOM     16  C   UNL     1       3.416   2.292  20.684  0.00  0.00    +0.000 C 
ATOM     17  C   UNL     1       3.971   2.579  19.281  0.00  0.00    +0.000 C 
BRANCH  15  18
ATOM     18  O   UNL     1       1.955   3.077  22.436  0.00  0.00    +0.000 OA
ATOM     19  H   UNL     1       1.569   3.926  22.713  0.00  0.00    +0.000 HD
ENDBRANCH  15  18
ENDBRANCH   8  12
TORSDOF 2
ENDMDL
MODEL 4
REMARK VINA RESULT:      -6.7      1.956      5.583
REMARK  Name = 
REMARK  3 active torsions:
REMARK  status: ('A' for Active; 'I' for Inactive)
REMARK    1  A    between atoms: C_1  and  N_2
REMARK    2  A    between atoms: N_8  and  C_9
REMARK    3  A    between atoms: C_12  and  O_13
REMARK                            x       y       z     vdW  Elec       q    Type
REMARK                         _______ _______ _______ _____ _____    ______ ____
ROOT
ATOM      1  C   UNL     1       1.328   4.296  20.424  0.00  0.00    +0.000 C 
ATOM      2  N   UNL     1       2.148   4.192  19.233  0.00  0.00    +0.000 N 
ATOM      3  C   UNL     1       1.826   3.301  18.245  0.00  0.00    +0.000 A 
ATOM      4  O   UNL     1       0.859   2.543  18.283  0.00  0.00    +0.000 OA
ATOM      5  N   UNL     1       2.659   3.273  17.171  0.00  0.00    +0.000 N 
ATOM      6  C   UNL     1       3.813   3.979  17.052  0.00  0.00    +0.000 A 
ATOM      7  O   UNL     1       4.538   3.809  16.071  0.00  0.00    +0.000 OA
ATOM      8  N   UNL     1       4.106   4.835  18.086  0.00  0.00    +0.000 N 
ATOM      9  C   UNL     1       3.284   4.966  19.198  0.00  0.00    +0.000 A 
ATOM     10  O   UNL     1       3.549   5.720  20.139  0.00  0.00    +0.000 OA
ATOM     11  H   UNL     1       2.449   2.604  16.450  0.00  0.00    +0.000 HD
ENDROOT
BRANCH   8  12
ATOM     12  C   UNL     1       5.356   5.590  18.123  0.00  0.00    +0.000 C 
ATOM     13  C   UNL     1       6.603   4.777  18.479  0.00  0.00    +0.000 C 
ATOM     14  C   UNL     1       7.622   5.761  19.053  0.00  0.00    +0.000 C 
ATOM     15  C   UNL     1       7.912   6.929  18.097  0.00  0.00    +0.000 C 
ATOM     16  C   UNL     1       6.679   7.537  17.402  0.00  0.00    +0.000 C 
ATOM     17  C   UNL     1       5.671   6.484  16.919  0.00  0.00    +0.000 C 
BRANCH  15  18
ATOM     18  O   UNL     1       8.580   7.956  18.829  0.00  0.00    +0.000 OA
ATOM     19  H   UNL     1       8.543   8.775  18.303  0.00  0.00    +0.000 HD
ENDBRANCH  15  18
ENDBRANCH   8  12
TORSDOF 2
ENDMDL
MODEL 5
REMARK VINA RESULT:      -6.7      1.835      2.178
REMARK  Name = 
REMARK  3 active torsions:
REMARK  status: ('A' for Active; 'I' for Inactive)
REMARK    1  A    between atoms: C_1  and  N_2
REMARK    2  A    between atoms: N_8  and  C_9
REMARK    3  A    between atoms: C_12  and  O_13
REMARK                            x       y       z     vdW  Elec       q    Type
REMARK                         _______ _______ _______ _____ _____    ______ ____
ROOT
ATOM      1  C   UNL     1       7.960   6.662  18.255  0.00  0.00    +0.000 C 
ATOM      2  N   UNL     1       6.960   5.736  17.760  0.00  0.00    +0.000 N 
ATOM      3  C   UNL     1       6.860   5.475  16.420  0.00  0.00    +0.000 A 
ATOM      4  O   UNL     1       7.574   5.985  15.559  0.00  0.00    +0.000 OA
ATOM      5  N   UNL     1       5.887   4.599  16.053  0.00  0.00    +0.000 N 
ATOM      6  C   UNL     1       4.968   4.049  16.888  0.00  0.00    +0.000 A 
ATOM      7  O   UNL     1       4.075   3.335  16.432  0.00  0.00    +0.000 OA
ATOM      8  N   UNL     1       5.094   4.368  18.219  0.00  0.00    +0.000 N 
ATOM      9  C   UNL     1       6.091   5.214  18.689  0.00  0.00    +0.000 A 
ATOM     10  O   UNL     1       6.200   5.520  19.880  0.00  0.00    +0.000 OA
ATOM     11  H   UNL     1       5.785   4.419  15.069  0.00  0.00    +0.000 HD
ENDROOT
BRANCH   8  12
ATOM     12  C   UNL     1       4.123   3.912  19.210  0.00  0.00    +0.000 C 
ATOM     13  C   UNL     1       2.706   4.468  19.044  0.00  0.00    +0.000 C 
ATOM     14  C   UNL     1       2.043   4.402  20.419  0.00  0.00    +0.000 C 
ATOM     15  C   UNL     1       2.073   2.986  21.018  0.00  0.00    +0.000 C 
ATOM     16  C   UNL     1       3.403   2.227  20.854  0.00  0.00    +0.000 C 
ATOM     17  C   UNL     1       4.039   2.404  19.467  0.00  0.00    +0.000 C 
BRANCH  15  18
ATOM     18  O   UNL     1       1.764   3.076  22.408  0.00  0.00    +0.000 OA
ATOM     19  H   UNL     1       2.361   2.477  22.890  0.00  0.00    +0.000 HD
ENDBRANCH  15  18
ENDBRANCH   8  12
TORSDOF 2
ENDMDL
MODEL 6
REMARK VINA RESULT:      -6.6      2.319      6.044
REMARK  Name = 
REMARK  3 active torsions:
REMARK  status: ('A' for Active; 'I' for Inactive)
REMARK    1  A    between atoms: C_1  and  N_2
REMARK    2  A    between atoms: N_8  and  C_9
REMARK    3  A    between atoms: C_12  and  O_13
REMARK                            x       y       z     vdW  Elec       q    Type
REMARK                         _______ _______ _______ _____ _____    ______ ____
ROOT
ATOM      1  C   UNL     1       0.691   4.700  20.536  0.00  0.00    +0.000 C 
ATOM      2  N   UNL     1       1.886   3.888  20.418  0.00  0.00    +0.000 N 
ATOM      3  C   UNL     1       2.135   2.886  21.316  0.00  0.00    +0.000 A 
ATOM      4  O   UNL     1       1.402   2.604  22.262  0.00  0.00    +0.000 OA
ATOM      5  N   UNL     1       3.285   2.185  21.126  0.00  0.00    +0.000 N 
ATOM      6  C   UNL     1       4.229   2.462  20.190  0.00  0.00    +0.000 A 
ATOM      7  O   UNL     1       5.276   1.814  20.164  0.00  0.00    +0.000 OA
ATOM      8  N   UNL     1       3.944   3.497  19.333  0.00  0.00    +0.000 N 
ATOM      9  C   UNL     1       2.769   4.234  19.422  0.00  0.00    +0.000 A 
ATOM     10  O   UNL     1       2.514   5.177  18.668  0.00  0.00    +0.000 OA
ATOM     11  H   UNL     1       3.493   1.463  21.794  0.00  0.00    +0.000 HD
ENDROOT
BRANCH   8  12
ATOM     12  C   UNL     1       4.909   3.952  18.335  0.00  0.00    +0.000 C 
ATOM     13  C   UNL     1       4.354   4.125  16.918  0.00  0.00    +0.000 C 
ATOM     14  C   UNL     1       5.539   3.993  15.962  0.00  0.00    +0.000 C 
ATOM     15  C   UNL     1       6.673   4.976  16.294  0.00  0.00    +0.000 C 
ATOM     16  C   UNL     1       7.006   5.121  17.791  0.00  0.00    +0.000 C 
ATOM     17  C   UNL     1       5.761   5.174  18.689  0.00  0.00    +0.000 C 
BRANCH  15  18
ATOM     18  O   UNL     1       7.849   4.560  15.601  0.00  0.00    +0.000 OA
ATOM     19  H   UNL     1       8.401   4.050  16.220  0.00  0.00    +0.000 HD
ENDBRANCH  15  18
ENDBRANCH   8  12
TORSDOF 2
ENDMDL
MODEL 7
REMARK VINA RESULT:      -6.5      2.314      5.608
REMARK  Name = 
REMARK  3 active torsions:
REMARK  status: ('A' for Active; 'I' for Inactive)
REMARK    1  A    between atoms: C_1  and  N_2
REMARK    2  A    between atoms: N_8  and  C_9
REMARK    3  A    between atoms: C_12  and  O_13
REMARK                            x       y       z     vdW  Elec       q    Type
REMARK                         _______ _______ _______ _____ _____    ______ ____
ROOT
ATOM      1  C   UNL     1       1.597   9.155  18.786  0.00  0.00    +0.000 C 
ATOM      2  N   UNL     1       2.203   7.863  19.039  0.00  0.00    +0.000 N 
ATOM      3  C   UNL     1       1.911   7.173  20.184  0.00  0.00    +0.000 A 
ATOM      4  O   UNL     1       1.147   7.573  21.060  0.00  0.00    +0.000 OA
ATOM      5  N   UNL     1       2.535   5.973  20.335  0.00  0.00    +0.000 N 
ATOM      6  C   UNL     1       3.476   5.467  19.498  0.00  0.00    +0.000 A 
ATOM      7  O   UNL     1       4.041   4.409  19.779  0.00  0.00    +0.000 OA
ATOM      8  N   UNL     1       3.755   6.214  18.379  0.00  0.00    +0.000 N 
ATOM      9  C   UNL     1       3.127   7.426  18.120  0.00  0.00    +0.000 A 
ATOM     10  O   UNL     1       3.385   8.112  17.127  0.00  0.00    +0.000 OA
ATOM     11  H   UNL     1       2.349   5.468  21.184  0.00  0.00    +0.000 HD
ENDROOT
BRANCH   8  12
ATOM     12  C   UNL     1       4.805   5.825  17.442  0.00  0.00    +0.000 C 
ATOM     13  C   UNL     1       6.222   5.785  18.023  0.00  0.00    +0.000 C 
ATOM     14  C   UNL     1       7.184   5.971  16.851  0.00  0.00    +0.000 C 
ATOM     15  C   UNL     1       6.957   4.939  15.735  0.00  0.00    +0.000 C 
ATOM     16  C   UNL     1       5.484   4.660  15.382  0.00  0.00    +0.000 C 
ATOM     17  C   UNL     1       4.571   4.558  16.613  0.00  0.00    +0.000 C 
BRANCH  15  18
ATOM     18  O   UNL     1       7.633   5.386  14.561  0.00  0.00    +0.000 OA
ATOM     19  H   UNL     1       7.231   6.228  14.282  0.00  0.00    +0.000 HD
ENDBRANCH  15  18
ENDBRANCH   8  12
TORSDOF 2
ENDMDL
MODEL 8
REMARK VINA RESULT:      -6.5      1.620      1.661
REMARK  Name = 
REMARK  3 active torsions:
REMARK  status: ('A' for Active; 'I' for Inactive)
REMARK    1  A    between atoms: C_1  and  N_2
REMARK    2  A    between atoms: N_8  and  C_9
REMARK    3  A    between atoms: C_12  and  O_13
REMARK                            x       y       z     vdW  Elec       q    Type
REMARK                         _______ _______ _______ _____ _____    ______ ____
ROOT
ATOM      1  C   UNL     1       5.975   3.879  15.611  0.00  0.00    +0.000 C 
ATOM      2  N   UNL     1       5.068   4.738  16.346  0.00  0.00    +0.000 N 
ATOM      3  C   UNL     1       5.056   6.088  16.120  0.00  0.00    +0.000 A 
ATOM      4  O   UNL     1       5.784   6.663  15.314  0.00  0.00    +0.000 OA
ATOM      5  N   UNL     1       4.175   6.810  16.864  0.00  0.00    +0.000 N 
ATOM      6  C   UNL     1       3.394   6.314  17.858  0.00  0.00    +0.000 A 
ATOM      7  O   UNL     1       2.696   7.077  18.527  0.00  0.00    +0.000 OA
ATOM      8  N   UNL     1       3.467   4.958  18.064  0.00  0.00    +0.000 N 
ATOM      9  C   UNL     1       4.301   4.137  17.316  0.00  0.00    +0.000 A 
ATOM     10  O   UNL     1       4.387   2.920  17.507  0.00  0.00    +0.000 OA
ATOM     11  H   UNL     1       4.174   7.806  16.727  0.00  0.00    +0.000 HD
ENDROOT
BRANCH   8  12
ATOM     12  C   UNL     1       2.743   4.310  19.154  0.00  0.00    +0.000 C 
ATOM     13  C   UNL     1       2.695   5.095  20.468  0.00  0.00    +0.000 C 
ATOM     14  C   UNL     1       2.475   4.075  21.584  0.00  0.00    +0.000 C 
ATOM     15  C   UNL     1       1.227   3.208  21.349  0.00  0.00    +0.000 C 
ATOM     16  C   UNL     1       1.032   2.707  19.906  0.00  0.00    +0.000 C 
ATOM     17  C   UNL     1       1.343   3.773  18.844  0.00  0.00    +0.000 C 
BRANCH  15  18
ATOM     18  O   UNL     1       1.289   2.080  22.221  0.00  0.00    +0.000 OA
ATOM     19  H   UNL     1       0.964   2.356  23.097  0.00  0.00    +0.000 HD
ENDBRANCH  15  18
ENDBRANCH   8  12
TORSDOF 2
ENDMDL
MODEL 9
REMARK VINA RESULT:      -6.5      1.780      2.139
REMARK  Name = 
REMARK  3 active torsions:
REMARK  status: ('A' for Active; 'I' for Inactive)
REMARK    1  A    between atoms: C_1  and  N_2
REMARK    2  A    between atoms: N_8  and  C_9
REMARK    3  A    between atoms: C_12  and  O_13
REMARK                            x       y       z     vdW  Elec       q    Type
REMARK                         _______ _______ _______ _____ _____    ______ ____
ROOT
ATOM      1  C   UNL     1       5.762   4.034  15.376  0.00  0.00    +0.000 C 
ATOM      2  N   UNL     1       4.963   4.814  16.301  0.00  0.00    +0.000 N 
ATOM      3  C   UNL     1       4.999   6.182  16.265  0.00  0.00    +0.000 A 
ATOM      4  O   UNL     1       5.686   6.838  15.484  0.00  0.00    +0.000 OA
ATOM      5  N   UNL     1       4.221   6.825  17.176  0.00  0.00    +0.000 N 
ATOM      6  C   UNL     1       3.500   6.223  18.157  0.00  0.00    +0.000 A 
ATOM      7  O   UNL     1       2.899   6.909  18.985  0.00  0.00    +0.000 OA
ATOM      8  N   UNL     1       3.522   4.849  18.168  0.00  0.00    +0.000 N 
ATOM      9  C   UNL     1       4.250   4.111  17.242  0.00  0.00    +0.000 A 
ATOM     10  O   UNL     1       4.290   2.878  17.256  0.00  0.00    +0.000 OA
ATOM     11  H   UNL     1       4.258   7.830  17.178  0.00  0.00    +0.000 HD
ENDROOT
BRANCH   8  12
ATOM     12  C   UNL     1       2.859   4.082  19.218  0.00  0.00    +0.000 C 
ATOM     13  C   UNL     1       1.489   3.508  18.846  0.00  0.00    +0.000 C 
ATOM     14  C   UNL     1       0.727   3.304  20.154  0.00  0.00    +0.000 C 
ATOM     15  C   UNL     1       1.500   2.428  21.153  0.00  0.00    +0.000 C 
ATOM     16  C   UNL     1       3.006   2.729  21.271  0.00  0.00    +0.000 C 
ATOM     17  C   UNL     1       3.681   2.994  19.917  0.00  0.00    +0.000 C 
BRANCH  15  18
ATOM     18  O   UNL     1       0.901   2.573  22.440  0.00  0.00    +0.000 OA
ATOM     19  H   UNL     1       1.454   3.179  22.965  0.00  0.00    +0.000 HD
ENDBRANCH  15  18
ENDBRANCH   8  12
TORSDOF 2
ENDMDL
