MODEL 1
REMARK VINA RESULT:      -7.2      0.000      0.000
REMARK  Name = 
REMARK  9 active torsions:
REMARK  status: ('A' for Active; 'I' for Inactive)
REMARK    1  A    between atoms: C_1  and  C_2
REMARK    2  A    between atoms: C_4  and  C_5
REMARK    3  A    between atoms: N_8  and  C_9
REMARK    4  A    between atoms: C_9  and  C_10
REMARK    5  A    between atoms: C_9  and  C_12
REMARK    6  A    between atoms: C_10  and  O_11
REMARK    7  A    between atoms: C_12  and  O_13
REMARK    8  A    between atoms: C_18  and  O_19
REMARK    9  A    between atoms: C_18  and  C_20
REMARK                            x       y       z     vdW  Elec       q    Type
REMARK                         _______ _______ _______ _____ _____    ______ ____
ROOT
ATOM      1  C   UNL     1      -3.360  10.252  14.711  0.00  0.00    +0.000 C 
ATOM      2  C   UNL     1      -3.337  10.785  16.116  0.00  0.00    +0.000 A 
ATOM      3  C   UNL     1      -2.175  10.681  16.904  0.00  0.00    +0.000 A 
ATOM      4  C   UNL     1      -2.100  11.161  18.234  0.00  0.00    +0.000 A 
ATOM      5  C   UNL     1      -3.243  11.774  18.766  0.00  0.00    +0.000 A 
ATOM      6  C   UNL     1      -4.426  11.827  17.975  0.00  0.00    +0.000 A 
ATOM      7  C   UNL     1      -4.478  11.362  16.662  0.00  0.00    +0.000 A 
ATOM      8  C   UNL     1      -5.588  12.426  18.764  0.00  0.00    +0.000 C 
ATOM      9  C   UNL     1      -4.921  12.744  20.093  0.00  0.00    +0.000 A 
ATOM     10  C   UNL     1      -5.511  13.327  21.212  0.00  0.00    +0.000 A 
ATOM     11  C   UNL     1      -4.728  13.539  22.342  0.00  0.00    +0.000 A 
ATOM     12  C   UNL     1      -3.364  13.237  22.313  0.00  0.00    +0.000 A 
ATOM     13  C   UNL     1      -2.769  12.711  21.161  0.00  0.00    +0.000 A 
ATOM     14  C   UNL     1      -3.553  12.395  20.059  0.00  0.00    +0.000 A 
ENDROOT
BRANCH   4  15
ATOM     15  C   UNL     1      -0.871  10.909  18.977  0.00  0.00    +0.000 A 
ATOM     16  C   UNL     1       0.268  11.716  19.200  0.00  0.00    +0.000 A 
ATOM     17  N   UNL     1       1.183  11.128  19.972  0.00  0.00    +0.000 NA
ATOM     18  N   UNL     1       0.569   9.999  20.376  0.00  0.00    +0.000 N 
ATOM     19  C   UNL     1      -0.641   9.801  19.775  0.00  0.00    +0.000 A 
BRANCH  18  20
ATOM     20  C   UNL     1       1.160   9.210  21.457  0.00  0.00    +0.000 C 
BRANCH  20  21
ATOM     21  C   UNL     1       0.395   9.439  22.767  0.00  0.00    +0.000 C 
BRANCH  21  22
ATOM     22  O   UNL     1      -0.018  10.794  22.933  0.00  0.00    +0.000 OA
ATOM     23  H   UNL     1       0.770  11.304  23.220  0.00  0.00    +0.000 HD
ENDBRANCH  21  22
ENDBRANCH  20  21
BRANCH  20  24
ATOM     24  C   UNL     1       1.189   7.725  21.072  0.00  0.00    +0.000 C 
BRANCH  24  25
ATOM     25  O   UNL     1       2.307   7.434  20.226  0.00  0.00    +0.000 OA
ATOM     26  H   UNL     1       2.238   6.482  20.005  0.00  0.00    +0.000 HD
ENDBRANCH  24  25
ENDBRANCH  20  24
ENDBRANCH  18  20
ENDBRANCH   4  15
BRANCH   8  27
ATOM     27  C   UNL     1      -6.823  11.473  18.896  0.00  0.00    +0.000 C 
ATOM     28  F   UNL     1      -7.756  11.927  19.766  0.00  0.00    +0.000 F 
ATOM     29  F   UNL     1      -7.460  11.233  17.727  0.00  0.00    +0.000 F 
ATOM     30  F   UNL     1      -6.420  10.263  19.374  0.00  0.00    +0.000 F 
ENDBRANCH   8  27
BRANCH   8  31
ATOM     31  O   UNL     1      -5.903  13.689  18.143  0.00  0.00    +0.000 OA
ATOM     32  H   UNL     1      -6.863  13.698  17.991  0.00  0.00    +0.000 HD
ENDBRANCH   8  31
TORSDOF 8
ENDMDL
MODEL 2
REMARK VINA RESULT:      -6.7      6.022     10.088
REMARK  Name = 
REMARK  9 active torsions:
REMARK  status: ('A' for Active; 'I' for Inactive)
REMARK    1  A    between atoms: C_1  and  C_2
REMARK    2  A    between atoms: C_4  and  C_5
REMARK    3  A    between atoms: N_8  and  C_9
REMARK    4  A    between atoms: C_9  and  C_10
REMARK    5  A    between atoms: C_9  and  C_12
REMARK    6  A    between atoms: C_10  and  O_11
REMARK    7  A    between atoms: C_12  and  O_13
REMARK    8  A    between atoms: C_18  and  O_19
REMARK    9  A    between atoms: C_18  and  C_20
REMARK                            x       y       z     vdW  Elec       q    Type
REMARK                         _______ _______ _______ _____ _____    ______ ____
ROOT
ATOM      1  C   UNL     1       1.320   2.876  22.358  0.00  0.00    +0.000 C 
ATOM      2  C   UNL     1       1.969   3.697  21.280  0.00  0.00    +0.000 A 
ATOM      3  C   UNL     1       1.668   5.065  21.140  0.00  0.00    +0.000 A 
ATOM      4  C   UNL     1       2.246   5.884  20.140  0.00  0.00    +0.000 A 
ATOM      5  C   UNL     1       3.166   5.286  19.266  0.00  0.00    +0.000 A 
ATOM      6  C   UNL     1       3.422   3.890  19.388  0.00  0.00    +0.000 A 
ATOM      7  C   UNL     1       2.855   3.102  20.387  0.00  0.00    +0.000 A 
ATOM      8  C   UNL     1       4.357   3.405  18.283  0.00  0.00    +0.000 C 
ATOM      9  C   UNL     1       4.637   4.698  17.532  0.00  0.00    +0.000 A 
ATOM     10  C   UNL     1       5.453   4.862  16.415  0.00  0.00    +0.000 A 
ATOM     11  C   UNL     1       5.582   6.135  15.868  0.00  0.00    +0.000 A 
ATOM     12  C   UNL     1       4.960   7.225  16.482  0.00  0.00    +0.000 A 
ATOM     13  C   UNL     1       4.195   7.057  17.641  0.00  0.00    +0.000 A 
ATOM     14  C   UNL     1       3.969   5.781  18.142  0.00  0.00    +0.000 A 
ENDROOT
BRANCH   4  15
ATOM     15  C   UNL     1       1.782   7.262  20.040  0.00  0.00    +0.000 A 
ATOM     16  C   UNL     1       1.773   8.169  18.956  0.00  0.00    +0.000 A 
ATOM     17  N   UNL     1       1.227   9.347  19.263  0.00  0.00    +0.000 NA
ATOM     18  N   UNL     1       0.742   9.150  20.504  0.00  0.00    +0.000 N 
ATOM     19  C   UNL     1       1.085   7.936  21.028  0.00  0.00    +0.000 A 
BRANCH  18  20
ATOM     20  C   UNL     1      -0.168  10.138  21.083  0.00  0.00    +0.000 C 
BRANCH  20  21
ATOM     21  C   UNL     1      -0.205  10.003  22.610  0.00  0.00    +0.000 C 
BRANCH  21  22
ATOM     22  O   UNL     1      -0.539  11.227  23.262  0.00  0.00    +0.000 OA
ATOM     23  H   UNL     1      -0.881  10.996  24.153  0.00  0.00    +0.000 HD
ENDBRANCH  21  22
ENDBRANCH  20  21
BRANCH  20  24
ATOM     24  C   UNL     1       0.245  11.552  20.651  0.00  0.00    +0.000 C 
BRANCH  24  25
ATOM     25  O   UNL     1       1.509  11.915  21.218  0.00  0.00    +0.000 OA
ATOM     26  H   UNL     1       2.158  11.862  20.486  0.00  0.00    +0.000 HD
ENDBRANCH  24  25
ENDBRANCH  20  24
ENDBRANCH  18  20
ENDBRANCH   4  15
BRANCH   8  27
ATOM     27  C   UNL     1       3.747   2.279  17.384  0.00  0.00    +0.000 C 
ATOM     28  F   UNL     1       2.598   2.651  16.769  0.00  0.00    +0.000 F 
ATOM     29  F   UNL     1       4.581   1.833  16.418  0.00  0.00    +0.000 F 
ATOM     30  F   UNL     1       3.429   1.200  18.152  0.00  0.00    +0.000 F 
ENDBRANCH   8  27
BRANCH   8  31
ATOM     31  O   UNL     1       5.591   3.020  18.923  0.00  0.00    +0.000 OA
ATOM     32  H   UNL     1       5.386   2.270  19.506  0.00  0.00    +0.000 HD
ENDBRANCH   8  31
TORSDOF 8
ENDMDL
MODEL 3
REMARK VINA RESULT:      -6.6      6.984     10.598
REMARK  Name = 
REMARK  9 active torsions:
REMARK  status: ('A' for Active; 'I' for Inactive)
REMARK    1  A    between atoms: C_1  and  C_2
REMARK    2  A    between atoms: C_4  and  C_5
REMARK    3  A    between atoms: N_8  and  C_9
REMARK    4  A    between atoms: C_9  and  C_10
REMARK    5  A    between atoms: C_9  and  C_12
REMARK    6  A    between atoms: C_10  and  O_11
REMARK    7  A    between atoms: C_12  and  O_13
REMARK    8  A    between atoms: C_18  and  O_19
REMARK    9  A    between atoms: C_18  and  C_20
REMARK                            x       y       z     vdW  Elec       q    Type
REMARK                         _______ _______ _______ _____ _____    ______ ____
ROOT
ATOM      1  C   UNL     1       1.703   9.328  17.927  0.00  0.00    +0.000 C 
ATOM      2  C   UNL     1       2.412   8.032  18.203  0.00  0.00    +0.000 A 
ATOM      3  C   UNL     1       3.557   7.670  17.468  0.00  0.00    +0.000 A 
ATOM      4  C   UNL     1       4.261   6.460  17.683  0.00  0.00    +0.000 A 
ATOM      5  C   UNL     1       3.784   5.604  18.686  0.00  0.00    +0.000 A 
ATOM      6  C   UNL     1       2.596   5.960  19.386  0.00  0.00    +0.000 A 
ATOM      7  C   UNL     1       1.924   7.162  19.172  0.00  0.00    +0.000 A 
ATOM      8  C   UNL     1       2.176   4.854  20.352  0.00  0.00    +0.000 C 
ATOM      9  C   UNL     1       3.286   3.835  20.149  0.00  0.00    +0.000 A 
ATOM     10  C   UNL     1       3.429   2.608  20.792  0.00  0.00    +0.000 A 
ATOM     11  C   UNL     1       4.522   1.810  20.467  0.00  0.00    +0.000 A 
ATOM     12  C   UNL     1       5.485   2.278  19.569  0.00  0.00    +0.000 A 
ATOM     13  C   UNL     1       5.363   3.541  18.978  0.00  0.00    +0.000 A 
ATOM     14  C   UNL     1       4.228   4.307  19.209  0.00  0.00    +0.000 A 
ENDROOT
BRANCH   4  15
ATOM     15  C   UNL     1       5.376   6.158  16.794  0.00  0.00    +0.000 A 
ATOM     16  C   UNL     1       6.770   6.321  16.955  0.00  0.00    +0.000 A 
ATOM     17  N   UNL     1       7.473   5.887  15.907  0.00  0.00    +0.000 NA
ATOM     18  N   UNL     1       6.542   5.300  15.131  0.00  0.00    +0.000 N 
ATOM     19  C   UNL     1       5.269   5.473  15.595  0.00  0.00    +0.000 A 
BRANCH  18  20
ATOM     20  C   UNL     1       6.968   4.467  14.007  0.00  0.00    +0.000 C 
BRANCH  20  21
ATOM     21  C   UNL     1       5.774   3.701  13.424  0.00  0.00    +0.000 C 
BRANCH  21  22
ATOM     22  O   UNL     1       6.153   2.797  12.388  0.00  0.00    +0.000 OA
ATOM     23  H   UNL     1       5.434   2.803  11.720  0.00  0.00    +0.000 HD
ENDBRANCH  21  22
ENDBRANCH  20  21
BRANCH  20  24
ATOM     24  C   UNL     1       7.659   5.331  12.942  0.00  0.00    +0.000 C 
BRANCH  24  25
ATOM     25  O   UNL     1       8.855   5.925  13.459  0.00  0.00    +0.000 OA
ATOM     26  H   UNL     1       9.403   5.185  13.791  0.00  0.00    +0.000 HD
ENDBRANCH  24  25
ENDBRANCH  20  24
ENDBRANCH  18  20
ENDBRANCH   4  15
BRANCH   8  27
ATOM     27  C   UNL     1       0.745   4.284  20.078  0.00  0.00    +0.000 C 
ATOM     28  F   UNL     1       0.514   4.026  18.768  0.00  0.00    +0.000 F 
ATOM     29  F   UNL     1       0.467   3.147  20.756  0.00  0.00    +0.000 F 
ATOM     30  F   UNL     1      -0.194   5.198  20.452  0.00  0.00    +0.000 F 
ENDBRANCH   8  27
BRANCH   8  31
ATOM     31  O   UNL     1       2.336   5.385  21.684  0.00  0.00    +0.000 OA
ATOM     32  H   UNL     1       2.777   6.246  21.595  0.00  0.00    +0.000 HD
ENDBRANCH   8  31
TORSDOF 8
ENDMDL
MODEL 4
REMARK VINA RESULT:      -6.6      5.924     10.192
REMARK  Name = 
REMARK  9 active torsions:
REMARK  status: ('A' for Active; 'I' for Inactive)
REMARK    1  A    between atoms: C_1  and  C_2
REMARK    2  A    between atoms: C_4  and  C_5
REMARK    3  A    between atoms: N_8  and  C_9
REMARK    4  A    between atoms: C_9  and  C_10
REMARK    5  A    between atoms: C_9  and  C_12
REMARK    6  A    between atoms: C_10  and  O_11
REMARK    7  A    between atoms: C_12  and  O_13
REMARK    8  A    between atoms: C_18  and  O_19
REMARK    9  A    between atoms: C_18  and  C_20
REMARK                            x       y       z     vdW  Elec       q    Type
REMARK                         _______ _______ _______ _____ _____    ______ ____
ROOT
ATOM      1  C   UNL     1       1.318   2.952  22.345  0.00  0.00    +0.000 C 
ATOM      2  C   UNL     1       2.000   3.738  21.261  0.00  0.00    +0.000 A 
ATOM      3  C   UNL     1       1.740   5.112  21.099  0.00  0.00    +0.000 A 
ATOM      4  C   UNL     1       2.350   5.899  20.093  0.00  0.00    +0.000 A 
ATOM      5  C   UNL     1       3.259   5.263  19.236  0.00  0.00    +0.000 A 
ATOM      6  C   UNL     1       3.474   3.863  19.380  0.00  0.00    +0.000 A 
ATOM      7  C   UNL     1       2.876   3.105  20.385  0.00  0.00    +0.000 A 
ATOM      8  C   UNL     1       4.404   3.335  18.290  0.00  0.00    +0.000 C 
ATOM      9  C   UNL     1       4.728   4.608  17.524  0.00  0.00    +0.000 A 
ATOM     10  C   UNL     1       5.558   4.733  16.412  0.00  0.00    +0.000 A 
ATOM     11  C   UNL     1       5.729   5.994  15.848  0.00  0.00    +0.000 A 
ATOM     12  C   UNL     1       5.133   7.110  16.441  0.00  0.00    +0.000 A 
ATOM     13  C   UNL     1       4.353   6.980  17.596  0.00  0.00    +0.000 A 
ATOM     14  C   UNL     1       4.086   5.719  18.112  0.00  0.00    +0.000 A 
ENDROOT
BRANCH   4  15
ATOM     15  C   UNL     1       1.927   7.289  19.970  0.00  0.00    +0.000 A 
ATOM     16  C   UNL     1       1.750   8.115  18.837  0.00  0.00    +0.000 A 
ATOM     17  N   UNL     1       1.315   9.339  19.144  0.00  0.00    +0.000 NA
ATOM     18  N   UNL     1       1.062   9.256  20.464  0.00  0.00    +0.000 N 
ATOM     19  C   UNL     1       1.451   8.067  21.012  0.00  0.00    +0.000 A 
BRANCH  18  20
ATOM     20  C   UNL     1       0.313  10.328  21.119  0.00  0.00    +0.000 C 
BRANCH  20  21
ATOM     21  C   UNL     1      -0.565  11.067  20.102  0.00  0.00    +0.000 C 
BRANCH  21  22
ATOM     22  O   UNL     1      -1.341  10.180  19.298  0.00  0.00    +0.000 OA
ATOM     23  H   UNL     1      -1.948   9.698  19.902  0.00  0.00    +0.000 HD
ENDBRANCH  21  22
ENDBRANCH  20  21
BRANCH  20  24
ATOM     24  C   UNL     1      -0.518   9.761  22.277  0.00  0.00    +0.000 C 
BRANCH  24  25
ATOM     25  O   UNL     1       0.058  10.107  23.542  0.00  0.00    +0.000 OA
ATOM     26  H   UNL     1       0.988  10.353  23.357  0.00  0.00    +0.000 HD
ENDBRANCH  24  25
ENDBRANCH  20  24
ENDBRANCH  18  20
ENDBRANCH   4  15
BRANCH   8  27
ATOM     27  C   UNL     1       3.769   2.214  17.401  0.00  0.00    +0.000 C 
ATOM     28  F   UNL     1       3.559   1.057  18.072  0.00  0.00    +0.000 F 
ATOM     29  F   UNL     1       2.589   2.561  16.838  0.00  0.00    +0.000 F 
ATOM     30  F   UNL     1       4.613   1.907  16.377  0.00  0.00    +0.000 F 
ENDBRANCH   8  27
BRANCH   8  31
ATOM     31  O   UNL     1       5.621   2.924  18.947  0.00  0.00    +0.000 OA
ATOM     32  H   UNL     1       6.350   3.091  18.326  0.00  0.00    +0.000 HD
ENDBRANCH   8  31
TORSDOF 8
ENDMDL
MODEL 5
REMARK VINA RESULT:      -6.4      6.092     10.280
REMARK  Name = 
REMARK  9 active torsions:
REMARK  status: ('A' for Active; 'I' for Inactive)
REMARK    1  A    between atoms: C_1  and  C_2
REMARK    2  A    between atoms: C_4  and  C_5
REMARK    3  A    between atoms: N_8  and  C_9
REMARK    4  A    between atoms: C_9  and  C_10
REMARK    5  A    between atoms: C_9  and  C_12
REMARK    6  A    between atoms: C_10  and  O_11
REMARK    7  A    between atoms: C_12  and  O_13
REMARK    8  A    between atoms: C_18  and  O_19
REMARK    9  A    between atoms: C_18  and  C_20
REMARK                            x       y       z     vdW  Elec       q    Type
REMARK                         _______ _______ _______ _____ _____    ______ ____
ROOT
ATOM      1  C   UNL     1       1.162   3.219  22.201  0.00  0.00    +0.000 C 
ATOM      2  C   UNL     1       1.905   3.915  21.095  0.00  0.00    +0.000 A 
ATOM      3  C   UNL     1       1.670   5.275  20.818  0.00  0.00    +0.000 A 
ATOM      4  C   UNL     1       2.338   5.978  19.787  0.00  0.00    +0.000 A 
ATOM      5  C   UNL     1       3.281   5.271  19.027  0.00  0.00    +0.000 A 
ATOM      6  C   UNL     1       3.471   3.884  19.286  0.00  0.00    +0.000 A 
ATOM      7  C   UNL     1       2.815   3.210  20.315  0.00  0.00    +0.000 A 
ATOM      8  C   UNL     1       4.447   3.267  18.287  0.00  0.00    +0.000 C 
ATOM      9  C   UNL     1       4.823   4.476  17.444  0.00  0.00    +0.000 A 
ATOM     10  C   UNL     1       5.708   4.509  16.369  0.00  0.00    +0.000 A 
ATOM     11  C   UNL     1       5.922   5.721  15.721  0.00  0.00    +0.000 A 
ATOM     12  C   UNL     1       5.311   6.885  16.197  0.00  0.00    +0.000 A 
ATOM     13  C   UNL     1       4.474   6.849  17.318  0.00  0.00    +0.000 A 
ATOM     14  C   UNL     1       4.167   5.634  17.914  0.00  0.00    +0.000 A 
ENDROOT
BRANCH   4  15
ATOM     15  C   UNL     1       1.939   7.358  19.538  0.00  0.00    +0.000 A 
ATOM     16  C   UNL     1       1.866   8.109  18.343  0.00  0.00    +0.000 A 
ATOM     17  N   UNL     1       1.416   9.351  18.532  0.00  0.00    +0.000 NA
ATOM     18  N   UNL     1       1.050   9.355  19.828  0.00  0.00    +0.000 N 
ATOM     19  C   UNL     1       1.381   8.204  20.483  0.00  0.00    +0.000 A 
BRANCH  18  20
ATOM     20  C   UNL     1       0.257  10.470  20.344  0.00  0.00    +0.000 C 
BRANCH  20  21
ATOM     21  C   UNL     1       1.121  11.731  20.469  0.00  0.00    +0.000 C 
BRANCH  21  22
ATOM     22  O   UNL     1       1.790  12.061  19.254  0.00  0.00    +0.000 OA
ATOM     23  H   UNL     1       1.099  12.302  18.599  0.00  0.00    +0.000 HD
ENDBRANCH  21  22
ENDBRANCH  20  21
BRANCH  20  24
ATOM     24  C   UNL     1      -0.965  10.709  19.447  0.00  0.00    +0.000 C 
BRANCH  24  25
ATOM     25  O   UNL     1      -0.580  11.295  18.198  0.00  0.00    +0.000 OA
ATOM     26  H   UNL     1       0.277  11.739  18.362  0.00  0.00    +0.000 HD
ENDBRANCH  24  25
ENDBRANCH  20  24
ENDBRANCH  18  20
ENDBRANCH   4  15
BRANCH   8  27
ATOM     27  C   UNL     1       3.843   2.088  17.455  0.00  0.00    +0.000 C 
ATOM     28  F   UNL     1       3.737   0.936  18.161  0.00  0.00    +0.000 F 
ATOM     29  F   UNL     1       2.619   2.347  16.941  0.00  0.00    +0.000 F 
ATOM     30  F   UNL     1       4.656   1.806  16.398  0.00  0.00    +0.000 F 
ENDBRANCH   8  27
BRANCH   8  31
ATOM     31  O   UNL     1       5.625   2.897  19.033  0.00  0.00    +0.000 OA
ATOM     32  H   UNL     1       5.976   2.088  18.625  0.00  0.00    +0.000 HD
ENDBRANCH   8  31
TORSDOF 8
ENDMDL
MODEL 6
REMARK VINA RESULT:      -6.4      6.688     10.429
REMARK  Name = 
REMARK  9 active torsions:
REMARK  status: ('A' for Active; 'I' for Inactive)
REMARK    1  A    between atoms: C_1  and  C_2
REMARK    2  A    between atoms: C_4  and  C_5
REMARK    3  A    between atoms: N_8  and  C_9
REMARK    4  A    between atoms: C_9  and  C_10
REMARK    5  A    between atoms: C_9  and  C_12
REMARK    6  A    between atoms: C_10  and  O_11
REMARK    7  A    between atoms: C_12  and  O_13
REMARK    8  A    between atoms: C_18  and  O_19
REMARK    9  A    between atoms: C_18  and  C_20
REMARK                            x       y       z     vdW  Elec       q    Type
REMARK                         _______ _______ _______ _____ _____    ______ ____
ROOT
ATOM      1  C   UNL     1       1.063   2.871  18.410  0.00  0.00    +0.000 C 
ATOM      2  C   UNL     1       2.106   3.940  18.246  0.00  0.00    +0.000 A 
ATOM      3  C   UNL     1       1.783   5.296  18.451  0.00  0.00    +0.000 A 
ATOM      4  C   UNL     1       2.724   6.343  18.306  0.00  0.00    +0.000 A 
ATOM      5  C   UNL     1       4.035   5.991  17.953  0.00  0.00    +0.000 A 
ATOM      6  C   UNL     1       4.334   4.622  17.701  0.00  0.00    +0.000 A 
ATOM      7  C   UNL     1       3.399   3.602  17.862  0.00  0.00    +0.000 A 
ATOM      8  C   UNL     1       5.775   4.454  17.223  0.00  0.00    +0.000 C 
ATOM      9  C   UNL     1       6.278   5.888  17.265  0.00  0.00    +0.000 A 
ATOM     10  C   UNL     1       7.554   6.342  16.937  0.00  0.00    +0.000 A 
ATOM     11  C   UNL     1       7.823   7.703  17.041  0.00  0.00    +0.000 A 
ATOM     12  C   UNL     1       6.846   8.572  17.536  0.00  0.00    +0.000 A 
ATOM     13  C   UNL     1       5.589   8.094  17.922  0.00  0.00    +0.000 A 
ATOM     14  C   UNL     1       5.267   6.757  17.729  0.00  0.00    +0.000 A 
ENDROOT
BRANCH   4  15
ATOM     15  C   UNL     1       2.243   7.712  18.453  0.00  0.00    +0.000 A 
ATOM     16  C   UNL     1       2.156   8.776  17.527  0.00  0.00    +0.000 A 
ATOM     17  N   UNL     1       1.621   9.881  18.049  0.00  0.00    +0.000 NA
ATOM     18  N   UNL     1       1.219   9.484  19.271  0.00  0.00    +0.000 N 
ATOM     19  C   UNL     1       1.606   8.211  19.576  0.00  0.00    +0.000 A 
BRANCH  18  20
ATOM     20  C   UNL     1       0.341  10.354  20.053  0.00  0.00    +0.000 C 
BRANCH  20  21
ATOM     21  C   UNL     1       1.109  11.585  20.550  0.00  0.00    +0.000 C 
BRANCH  21  22
ATOM     22  O   UNL     1       1.785  12.273  19.499  0.00  0.00    +0.000 OA
ATOM     23  H   UNL     1       1.107  12.783  19.005  0.00  0.00    +0.000 HD
ENDBRANCH  21  22
ENDBRANCH  20  21
BRANCH  20  24
ATOM     24  C   UNL     1      -0.886  10.751  19.221  0.00  0.00    +0.000 C 
BRANCH  24  25
ATOM     25  O   UNL     1      -0.539  11.713  18.219  0.00  0.00    +0.000 OA
ATOM     26  H   UNL     1      -1.122  12.485  18.372  0.00  0.00    +0.000 HD
ENDBRANCH  24  25
ENDBRANCH  20  24
ENDBRANCH  18  20
ENDBRANCH   4  15
BRANCH   8  27
ATOM     27  C   UNL     1       5.901   3.788  15.812  0.00  0.00    +0.000 C 
ATOM     28  F   UNL     1       7.108   3.992  15.231  0.00  0.00    +0.000 F 
ATOM     29  F   UNL     1       5.688   2.452  15.814  0.00  0.00    +0.000 F 
ATOM     30  F   UNL     1       4.980   4.327  14.965  0.00  0.00    +0.000 F 
ENDBRANCH   8  27
BRANCH   8  31
ATOM     31  O   UNL     1       6.475   3.736  18.260  0.00  0.00    +0.000 OA
ATOM     32  H   UNL     1       6.174   4.099  19.109  0.00  0.00    +0.000 HD
ENDBRANCH   8  31
TORSDOF 8
ENDMDL
MODEL 7
REMARK VINA RESULT:      -6.4      6.638     10.409
REMARK  Name = 
REMARK  9 active torsions:
REMARK  status: ('A' for Active; 'I' for Inactive)
REMARK    1  A    between atoms: C_1  and  C_2
REMARK    2  A    between atoms: C_4  and  C_5
REMARK    3  A    between atoms: N_8  and  C_9
REMARK    4  A    between atoms: C_9  and  C_10
REMARK    5  A    between atoms: C_9  and  C_12
REMARK    6  A    between atoms: C_10  and  O_11
REMARK    7  A    between atoms: C_12  and  O_13
REMARK    8  A    between atoms: C_18  and  O_19
REMARK    9  A    between atoms: C_18  and  C_20
REMARK                            x       y       z     vdW  Elec       q    Type
REMARK                         _______ _______ _______ _____ _____    ______ ____
ROOT
ATOM      1  C   UNL     1       1.182   2.777  18.287  0.00  0.00    +0.000 C 
ATOM      2  C   UNL     1       2.203   3.871  18.158  0.00  0.00    +0.000 A 
ATOM      3  C   UNL     1       1.858   5.210  18.428  0.00  0.00    +0.000 A 
ATOM      4  C   UNL     1       2.778   6.280  18.318  0.00  0.00    +0.000 A 
ATOM      5  C   UNL     1       4.090   5.969  17.932  0.00  0.00    +0.000 A 
ATOM      6  C   UNL     1       4.410   4.618  17.614  0.00  0.00    +0.000 A 
ATOM      7  C   UNL     1       3.496   3.574  17.741  0.00  0.00    +0.000 A 
ATOM      8  C   UNL     1       5.846   4.499  17.108  0.00  0.00    +0.000 C 
ATOM      9  C   UNL     1       6.324   5.939  17.208  0.00  0.00    +0.000 A 
ATOM     10  C   UNL     1       7.587   6.431  16.884  0.00  0.00    +0.000 A 
ATOM     11  C   UNL     1       7.833   7.790  17.046  0.00  0.00    +0.000 A 
ATOM     12  C   UNL     1       6.848   8.617  17.593  0.00  0.00    +0.000 A 
ATOM     13  C   UNL     1       5.605   8.099  17.975  0.00  0.00    +0.000 A 
ATOM     14  C   UNL     1       5.305   6.767  17.725  0.00  0.00    +0.000 A 
ENDROOT
BRANCH   4  15
ATOM     15  C   UNL     1       2.275   7.631  18.533  0.00  0.00    +0.000 A 
ATOM     16  C   UNL     1       2.050   8.699  17.635  0.00  0.00    +0.000 A 
ATOM     17  N   UNL     1       1.545   9.783  18.226  0.00  0.00    +0.000 NA
ATOM     18  N   UNL     1       1.297   9.364  19.482  0.00  0.00    +0.000 N 
ATOM     19  C   UNL     1       1.755   8.102  19.728  0.00  0.00    +0.000 A 
BRANCH  18  20
ATOM     20  C   UNL     1       0.488  10.200  20.369  0.00  0.00    +0.000 C 
BRANCH  20  21
ATOM     21  C   UNL     1       0.174   9.452  21.671  0.00  0.00    +0.000 C 
BRANCH  21  22
ATOM     22  O   UNL     1       1.095   9.758  22.716  0.00  0.00    +0.000 OA
ATOM     23  H   UNL     1       0.617  10.311  23.371  0.00  0.00    +0.000 HD
ENDBRANCH  21  22
ENDBRANCH  20  21
BRANCH  20  24
ATOM     24  C   UNL     1       1.203  11.530  20.640  0.00  0.00    +0.000 C 
BRANCH  24  25
ATOM     25  O   UNL     1       0.509  12.296  21.631  0.00  0.00    +0.000 OA
ATOM     26  H   UNL     1       0.411  13.196  21.257  0.00  0.00    +0.000 HD
ENDBRANCH  24  25
ENDBRANCH  20  24
ENDBRANCH  18  20
ENDBRANCH   4  15
BRANCH   8  27
ATOM     27  C   UNL     1       5.964   3.899  15.667  0.00  0.00    +0.000 C 
ATOM     28  F   UNL     1       7.166   4.132  15.088  0.00  0.00    +0.000 F 
ATOM     29  F   UNL     1       5.752   2.565  15.608  0.00  0.00    +0.000 F 
ATOM     30  F   UNL     1       5.037   4.477  14.852  0.00  0.00    +0.000 F 
ENDBRANCH   8  27
BRANCH   8  31
ATOM     31  O   UNL     1       6.574   3.748  18.101  0.00  0.00    +0.000 OA
ATOM     32  H   UNL     1       7.269   4.333  18.447  0.00  0.00    +0.000 HD
ENDBRANCH   8  31
TORSDOF 8
ENDMDL
MODEL 8
REMARK VINA RESULT:      -6.3      6.678     10.421
REMARK  Name = 
REMARK  9 active torsions:
REMARK  status: ('A' for Active; 'I' for Inactive)
REMARK    1  A    between atoms: C_1  and  C_2
REMARK    2  A    between atoms: C_4  and  C_5
REMARK    3  A    between atoms: N_8  and  C_9
REMARK    4  A    between atoms: C_9  and  C_10
REMARK    5  A    between atoms: C_9  and  C_12
REMARK    6  A    between atoms: C_10  and  O_11
REMARK    7  A    between atoms: C_12  and  O_13
REMARK    8  A    between atoms: C_18  and  O_19
REMARK    9  A    between atoms: C_18  and  C_20
REMARK                            x       y       z     vdW  Elec       q    Type
REMARK                         _______ _______ _______ _____ _____    ______ ____
ROOT
ATOM      1  C   UNL     1       1.195   2.694  18.264  0.00  0.00    +0.000 C 
ATOM      2  C   UNL     1       2.208   3.797  18.140  0.00  0.00    +0.000 A 
ATOM      3  C   UNL     1       1.855   5.131  18.423  0.00  0.00    +0.000 A 
ATOM      4  C   UNL     1       2.767   6.208  18.318  0.00  0.00    +0.000 A 
ATOM      5  C   UNL     1       4.080   5.909  17.923  0.00  0.00    +0.000 A 
ATOM      6  C   UNL     1       4.408   4.563  17.593  0.00  0.00    +0.000 A 
ATOM      7  C   UNL     1       3.501   3.512  17.715  0.00  0.00    +0.000 A 
ATOM      8  C   UNL     1       5.842   4.458  17.080  0.00  0.00    +0.000 C 
ATOM      9  C   UNL     1       6.311   5.900  17.190  0.00  0.00    +0.000 A 
ATOM     10  C   UNL     1       7.569   6.404  16.864  0.00  0.00    +0.000 A 
ATOM     11  C   UNL     1       7.806   7.763  17.037  0.00  0.00    +0.000 A 
ATOM     12  C   UNL     1       6.818   8.579  17.595  0.00  0.00    +0.000 A 
ATOM     13  C   UNL     1       5.580   8.049  17.978  0.00  0.00    +0.000 A 
ATOM     14  C   UNL     1       5.288   6.717  17.718  0.00  0.00    +0.000 A 
ENDROOT
BRANCH   4  15
ATOM     15  C   UNL     1       2.256   7.554  18.547  0.00  0.00    +0.000 A 
ATOM     16  C   UNL     1       1.932   8.596  17.648  0.00  0.00    +0.000 A 
ATOM     17  N   UNL     1       1.456   9.683  18.258  0.00  0.00    +0.000 NA
ATOM     18  N   UNL     1       1.326   9.289  19.538  0.00  0.00    +0.000 N 
ATOM     19  C   UNL     1       1.831   8.042  19.771  0.00  0.00    +0.000 A 
BRANCH  18  20
ATOM     20  C   UNL     1       0.578  10.129  20.474  0.00  0.00    +0.000 C 
BRANCH  20  21
ATOM     21  C   UNL     1      -0.727  10.615  19.833  0.00  0.00    +0.000 C 
BRANCH  21  22
ATOM     22  O   UNL     1      -0.543  11.772  19.019  0.00  0.00    +0.000 OA
ATOM     23  H   UNL     1      -1.410  11.976  18.605  0.00  0.00    +0.000 HD
ENDBRANCH  21  22
ENDBRANCH  20  21
BRANCH  20  24
ATOM     24  C   UNL     1       0.317   9.363  21.778  0.00  0.00    +0.000 C 
BRANCH  24  25
ATOM     25  O   UNL     1       0.402  10.233  22.912  0.00  0.00    +0.000 OA
ATOM     26  H   UNL     1       0.932  11.004  22.622  0.00  0.00    +0.000 HD
ENDBRANCH  24  25
ENDBRANCH  20  24
ENDBRANCH  18  20
ENDBRANCH   4  15
BRANCH   8  27
ATOM     27  C   UNL     1       5.957   3.871  15.633  0.00  0.00    +0.000 C 
ATOM     28  F   UNL     1       4.990   4.320  14.797  0.00  0.00    +0.000 F 
ATOM     29  F   UNL     1       7.142   4.120  15.031  0.00  0.00    +0.000 F 
ATOM     30  F   UNL     1       5.818   2.517  15.675  0.00  0.00    +0.000 F 
ENDBRANCH   8  27
BRANCH   8  31
ATOM     31  O   UNL     1       6.580   3.704  18.064  0.00  0.00    +0.000 OA
ATOM     32  H   UNL     1       6.764   4.306  18.803  0.00  0.00    +0.000 HD
ENDBRANCH   8  31
TORSDOF 8
ENDMDL
MODEL 9
REMARK VINA RESULT:      -6.3      6.012     10.105
REMARK  Name = 
REMARK  9 active torsions:
REMARK  status: ('A' for Active; 'I' for Inactive)
REMARK    1  A    between atoms: C_1  and  C_2
REMARK    2  A    between atoms: C_4  and  C_5
REMARK    3  A    between atoms: N_8  and  C_9
REMARK    4  A    between atoms: C_9  and  C_10
REMARK    5  A    between atoms: C_9  and  C_12
REMARK    6  A    between atoms: C_10  and  O_11
REMARK    7  A    between atoms: C_12  and  O_13
REMARK    8  A    between atoms: C_18  and  O_19
REMARK    9  A    between atoms: C_18  and  C_20
REMARK                            x       y       z     vdW  Elec       q    Type
REMARK                         _______ _______ _______ _____ _____    ______ ____
ROOT
ATOM      1  C   UNL     1       1.374   2.798  22.245  0.00  0.00    +0.000 C 
ATOM      2  C   UNL     1       1.998   3.694  21.212  0.00  0.00    +0.000 A 
ATOM      3  C   UNL     1       1.641   5.054  21.132  0.00  0.00    +0.000 A 
ATOM      4  C   UNL     1       2.193   5.942  20.177  0.00  0.00    +0.000 A 
ATOM      5  C   UNL     1       3.145   5.424  19.287  0.00  0.00    +0.000 A 
ATOM      6  C   UNL     1       3.458   4.036  19.348  0.00  0.00    +0.000 A 
ATOM      7  C   UNL     1       2.916   3.179  20.303  0.00  0.00    +0.000 A 
ATOM      8  C   UNL     1       4.423   3.642  18.231  0.00  0.00    +0.000 C 
ATOM      9  C   UNL     1       4.655   4.979  17.544  0.00  0.00    +0.000 A 
ATOM     10  C   UNL     1       5.474   5.229  16.445  0.00  0.00    +0.000 A 
ATOM     11  C   UNL     1       5.554   6.529  15.958  0.00  0.00    +0.000 A 
ATOM     12  C   UNL     1       4.881   7.564  16.615  0.00  0.00    +0.000 A 
ATOM     13  C   UNL     1       4.113   7.309  17.757  0.00  0.00    +0.000 A 
ATOM     14  C   UNL     1       3.936   6.004  18.196  0.00  0.00    +0.000 A 
ENDROOT
BRANCH   4  15
ATOM     15  C   UNL     1       1.672   7.303  20.136  0.00  0.00    +0.000 A 
ATOM     16  C   UNL     1       1.340   8.207  21.170  0.00  0.00    +0.000 A 
ATOM     17  N   UNL     1       0.917   9.389  20.715  0.00  0.00    +0.000 NA
ATOM     18  N   UNL     1       1.123   9.302  19.388  0.00  0.00    +0.000 N 
ATOM     19  C   UNL     1       1.532   8.062  18.987  0.00  0.00    +0.000 A 
BRANCH  18  20
ATOM     20  C   UNL     1       1.029  10.510  18.568  0.00  0.00    +0.000 C 
BRANCH  20  21
ATOM     21  C   UNL     1       0.510  11.687  19.404  0.00  0.00    +0.000 C 
BRANCH  21  22
ATOM     22  O   UNL     1       1.517  12.252  20.241  0.00  0.00    +0.000 OA
ATOM     23  H   UNL     1       1.101  12.436  21.111  0.00  0.00    +0.000 HD
ENDBRANCH  21  22
ENDBRANCH  20  21
BRANCH  20  24
ATOM     24  C   UNL     1       2.390  10.825  17.933  0.00  0.00    +0.000 C 
BRANCH  24  25
ATOM     25  O   UNL     1       2.456  12.191  17.508  0.00  0.00    +0.000 OA
ATOM     26  H   UNL     1       3.391  12.353  17.264  0.00  0.00    +0.000 HD
ENDBRANCH  24  25
ENDBRANCH  20  24
ENDBRANCH  18  20
ENDBRANCH   4  15
BRANCH   8  27
ATOM     27  C   UNL     1       3.869   2.534  17.275  0.00  0.00    +0.000 C 
ATOM     28  F   UNL     1       4.700   2.257  16.242  0.00  0.00    +0.000 F 
ATOM     29  F   UNL     1       3.601   1.360  17.890  0.00  0.00    +0.000 F 
ATOM     30  F   UNL     1       2.700   2.955  16.714  0.00  0.00    +0.000 F 
ENDBRANCH   8  27
BRANCH   8  31
ATOM     31  O   UNL     1       5.666   3.279  18.867  0.00  0.00    +0.000 OA
ATOM     32  H   UNL     1       6.139   4.106  19.059  0.00  0.00    +0.000 HD
ENDBRANCH   8  31
TORSDOF 8
ENDMDL
