MODEL 1
REMARK VINA RESULT:      -9.4      0.000      0.000
REMARK  Name = 
REMARK  6 active torsions:
REMARK  status: ('A' for Active; 'I' for Inactive)
REMARK    1  A    between atoms: C_2  and  C_3
REMARK    2  A    between atoms: C_3  and  C_4
REMARK    3  A    between atoms: C_15  and  C_16
REMARK    4  A    between atoms: C_16  and  O_17
REMARK    5  A    between atoms: C_18  and  C_19
REMARK    6  A    between atoms: C_22  and  C_23
REMARK                            x       y       z     vdW  Elec       q    Type
REMARK                         _______ _______ _______ _____ _____    ______ ____
ROOT
ATOM      1  O   UNL     1       5.946   6.495  16.237  0.00  0.00    +0.000 OA
ATOM      2  C   UNL     1       5.745   5.317  16.546  0.00  0.00    +0.000 C 
ATOM      3  N   UNL     1       5.914   4.875  17.856  0.00  0.00    +0.000 N 
ATOM      4  C   UNL     1       5.693   3.489  18.298  0.00  0.00    +0.000 C 
ATOM      5  C   UNL     1       4.215   3.340  18.649  0.00  0.00    +0.000 C 
ATOM      6  O   UNL     1       3.602   2.280  18.560  0.00  0.00    +0.000 OA
ATOM      7  N   UNL     1       3.650   4.490  19.132  0.00  0.00    +0.000 N 
ATOM      8  C   UNL     1       2.330   5.066  18.888  0.00  0.00    +0.000 C 
ATOM      9  C   UNL     1       3.114   6.372  18.499  0.00  0.00    +0.000 C 
ATOM     10  C   UNL     1       4.279   5.811  19.358  0.00  0.00    +0.000 C 
ATOM     11  C   UNL     1       5.743   5.876  18.903  0.00  0.00    +0.000 C 
ENDROOT
BRANCH   9  12
ATOM     12  C   UNL     1       2.325   7.683  18.865  0.00  0.00    +0.000 A 
ATOM     13  C   UNL     1       1.835   7.902  20.160  0.00  0.00    +0.000 A 
ATOM     14  C   UNL     1       0.886   8.885  20.421  0.00  0.00    +0.000 A 
ATOM     15  C   UNL     1       0.411   9.730  19.408  0.00  0.00    +0.000 A 
ATOM     16  C   UNL     1       0.978   9.591  18.135  0.00  0.00    +0.000 A 
ATOM     17  C   UNL     1       1.915   8.588  17.871  0.00  0.00    +0.000 A 
BRANCH  15  18
ATOM     18  C   UNL     1      -0.679  10.686  19.683  0.00  0.00    +0.000 A 
ATOM     19  C   UNL     1      -1.679  10.931  18.725  0.00  0.00    +0.000 A 
ATOM     20  C   UNL     1      -2.679  11.879  18.944  0.00  0.00    +0.000 A 
ATOM     21  C   UNL     1      -2.712  12.590  20.137  0.00  0.00    +0.000 A 
ATOM     22  C   UNL     1      -1.743  12.360  21.109  0.00  0.00    +0.000 A 
ATOM     23  C   UNL     1      -0.732  11.422  20.880  0.00  0.00    +0.000 A 
ENDBRANCH  15  18
ENDBRANCH   9  12
BRANCH   2  24
ATOM     24  C   UNL     1       5.177   4.353  15.515  0.00  0.00    +0.000 C 
BRANCH  24  25
ATOM     25  C   UNL     1       5.960   4.293  14.233  0.00  0.00    +0.000 A 
ATOM     26  C   UNL     1       5.506   3.502  13.172  0.00  0.00    +0.000 A 
ATOM     27  C   UNL     1       6.218   3.464  11.975  0.00  0.00    +0.000 A 
ATOM     28  C   UNL     1       7.378   4.213  11.827  0.00  0.00    +0.000 A 
ATOM     29  C   UNL     1       7.829   5.012  12.874  0.00  0.00    +0.000 A 
ATOM     30  C   UNL     1       7.120   5.055  14.073  0.00  0.00    +0.000 A 
ENDBRANCH  24  25
ENDBRANCH   2  24
BRANCH   8  31
ATOM     31  C   UNL     1       1.456   4.588  17.738  0.00  0.00    +0.000 C 
BRANCH  31  32
ATOM     32  O   UNL     1       0.920   3.296  17.985  0.00  0.00    +0.000 OA
ATOM     33  H   UNL     1       0.838   2.832  17.126  0.00  0.00    +0.000 HD
ENDBRANCH  31  32
ENDBRANCH   8  31
TORSDOF 6
ENDMDL
MODEL 2
REMARK VINA RESULT:      -9.4      0.061      1.205
REMARK  Name = 
REMARK  6 active torsions:
REMARK  status: ('A' for Active; 'I' for Inactive)
REMARK    1  A    between atoms: C_2  and  C_3
REMARK    2  A    between atoms: C_3  and  C_4
REMARK    3  A    between atoms: C_15  and  C_16
REMARK    4  A    between atoms: C_16  and  O_17
REMARK    5  A    between atoms: C_18  and  C_19
REMARK    6  A    between atoms: C_22  and  C_23
REMARK                            x       y       z     vdW  Elec       q    Type
REMARK                         _______ _______ _______ _____ _____    ______ ____
ROOT
ATOM      1  O   UNL     1       5.977   6.437  16.261  0.00  0.00    +0.000 OA
ATOM      2  C   UNL     1       5.759   5.265  16.580  0.00  0.00    +0.000 C 
ATOM      3  N   UNL     1       5.909   4.835  17.895  0.00  0.00    +0.000 N 
ATOM      4  C   UNL     1       5.668   3.456  18.349  0.00  0.00    +0.000 C 
ATOM      5  C   UNL     1       4.185   3.328  18.688  0.00  0.00    +0.000 C 
ATOM      6  O   UNL     1       3.560   2.275  18.604  0.00  0.00    +0.000 OA
ATOM      7  N   UNL     1       3.628   4.490  19.153  0.00  0.00    +0.000 N 
ATOM      8  C   UNL     1       2.318   5.079  18.890  0.00  0.00    +0.000 C 
ATOM      9  C   UNL     1       3.121   6.371  18.495  0.00  0.00    +0.000 C 
ATOM     10  C   UNL     1       4.271   5.806  19.371  0.00  0.00    +0.000 C 
ATOM     11  C   UNL     1       5.740   5.849  18.930  0.00  0.00    +0.000 C 
ENDROOT
BRANCH   9  12
ATOM     12  C   UNL     1       2.345   7.696  18.840  0.00  0.00    +0.000 A 
ATOM     13  C   UNL     1       1.864   7.945  20.133  0.00  0.00    +0.000 A 
ATOM     14  C   UNL     1       0.925   8.939  20.380  0.00  0.00    +0.000 A 
ATOM     15  C   UNL     1       0.449   9.768  19.353  0.00  0.00    +0.000 A 
ATOM     16  C   UNL     1       1.007   9.599  18.080  0.00  0.00    +0.000 A 
ATOM     17  C   UNL     1       1.935   8.583  17.830  0.00  0.00    +0.000 A 
BRANCH  15  18
ATOM     18  C   UNL     1      -0.632  10.737  19.615  0.00  0.00    +0.000 A 
ATOM     19  C   UNL     1      -0.736  11.377  20.863  0.00  0.00    +0.000 A 
ATOM     20  C   UNL     1      -1.789  12.247  21.148  0.00  0.00    +0.000 A 
ATOM     21  C   UNL     1      -2.752  12.512  20.181  0.00  0.00    +0.000 A 
ATOM     22  C   UNL     1      -2.667  11.903  18.933  0.00  0.00    +0.000 A 
ATOM     23  C   UNL     1      -1.621  11.018  18.656  0.00  0.00    +0.000 A 
ENDBRANCH  15  18
ENDBRANCH   9  12
BRANCH   2  24
ATOM     24  C   UNL     1       5.189   4.297  15.553  0.00  0.00    +0.000 C 
BRANCH  24  25
ATOM     25  C   UNL     1       5.928   4.284  14.243  0.00  0.00    +0.000 A 
ATOM     26  C   UNL     1       7.105   5.025  14.096  0.00  0.00    +0.000 A 
ATOM     27  C   UNL     1       7.804   4.995  12.891  0.00  0.00    +0.000 A 
ATOM     28  C   UNL     1       7.337   4.227  11.832  0.00  0.00    +0.000 A 
ATOM     29  C   UNL     1       6.173   3.477  11.975  0.00  0.00    +0.000 A 
ATOM     30  C   UNL     1       5.471   3.503  13.179  0.00  0.00    +0.000 A 
ENDBRANCH  24  25
ENDBRANCH   2  24
BRANCH   8  31
ATOM     31  C   UNL     1       1.450   4.599  17.736  0.00  0.00    +0.000 C 
BRANCH  31  32
ATOM     32  O   UNL     1       0.905   3.312  17.987  0.00  0.00    +0.000 OA
ATOM     33  H   UNL     1       0.025   3.430  18.400  0.00  0.00    +0.000 HD
ENDBRANCH  31  32
ENDBRANCH   8  31
TORSDOF 6
ENDMDL
MODEL 3
REMARK VINA RESULT:      -9.0      1.227      1.806
REMARK  Name = 
REMARK  6 active torsions:
REMARK  status: ('A' for Active; 'I' for Inactive)
REMARK    1  A    between atoms: C_2  and  C_3
REMARK    2  A    between atoms: C_3  and  C_4
REMARK    3  A    between atoms: C_15  and  C_16
REMARK    4  A    between atoms: C_16  and  O_17
REMARK    5  A    between atoms: C_18  and  C_19
REMARK    6  A    between atoms: C_22  and  C_23
REMARK                            x       y       z     vdW  Elec       q    Type
REMARK                         _______ _______ _______ _____ _____    ______ ____
ROOT
ATOM      1  O   UNL     1       5.492   6.757  16.165  0.00  0.00    +0.000 OA
ATOM      2  C   UNL     1       5.453   5.546  16.398  0.00  0.00    +0.000 C 
ATOM      3  N   UNL     1       5.802   5.040  17.647  0.00  0.00    +0.000 N 
ATOM      4  C   UNL     1       5.780   3.610  17.998  0.00  0.00    +0.000 C 
ATOM      5  C   UNL     1       4.371   3.268  18.475  0.00  0.00    +0.000 C 
ATOM      6  O   UNL     1       3.869   2.154  18.362  0.00  0.00    +0.000 OA
ATOM      7  N   UNL     1       3.737   4.310  19.098  0.00  0.00    +0.000 N 
ATOM      8  C   UNL     1       2.344   4.745  19.027  0.00  0.00    +0.000 C 
ATOM      9  C   UNL     1       2.938   6.156  18.669  0.00  0.00    +0.000 C 
ATOM     10  C   UNL     1       4.240   5.678  19.367  0.00  0.00    +0.000 C 
ATOM     11  C   UNL     1       5.633   5.941  18.781  0.00  0.00    +0.000 C 
ENDROOT
BRANCH   9  12
ATOM     12  C   UNL     1       2.055   7.340  19.210  0.00  0.00    +0.000 A 
ATOM     13  C   UNL     1       1.847   8.501  18.452  0.00  0.00    +0.000 A 
ATOM     14  C   UNL     1       1.343   9.663  19.026  0.00  0.00    +0.000 A 
ATOM     15  C   UNL     1       0.976   9.711  20.379  0.00  0.00    +0.000 A 
ATOM     16  C   UNL     1       1.076   8.524  21.115  0.00  0.00    +0.000 A 
ATOM     17  C   UNL     1       1.605   7.364  20.542  0.00  0.00    +0.000 A 
BRANCH  15  18
ATOM     18  C   UNL     1       0.554  10.985  20.994  0.00  0.00    +0.000 A 
ATOM     19  C   UNL     1      -0.415  11.004  22.013  0.00  0.00    +0.000 A 
ATOM     20  C   UNL     1      -0.871  12.204  22.559  0.00  0.00    +0.000 A 
ATOM     21  C   UNL     1      -0.353  13.413  22.109  0.00  0.00    +0.000 A 
ATOM     22  C   UNL     1       0.615  13.423  21.110  0.00  0.00    +0.000 A 
ATOM     23  C   UNL     1       1.059  12.221  20.553  0.00  0.00    +0.000 A 
ENDBRANCH  15  18
ENDBRANCH   9  12
BRANCH   2  24
ATOM     24  C   UNL     1       4.889   4.595  15.354  0.00  0.00    +0.000 C 
BRANCH  24  25
ATOM     25  C   UNL     1       5.760   4.428  14.139  0.00  0.00    +0.000 A 
ATOM     26  C   UNL     1       6.992   5.084  14.066  0.00  0.00    +0.000 A 
ATOM     27  C   UNL     1       7.811   4.911  12.952  0.00  0.00    +0.000 A 
ATOM     28  C   UNL     1       7.409   4.084  11.911  0.00  0.00    +0.000 A 
ATOM     29  C   UNL     1       6.189   3.418  11.982  0.00  0.00    +0.000 A 
ATOM     30  C   UNL     1       5.367   3.587  13.095  0.00  0.00    +0.000 A 
ENDBRANCH  24  25
ENDBRANCH   2  24
BRANCH   8  31
ATOM     31  C   UNL     1       1.414   4.249  17.931  0.00  0.00    +0.000 C 
BRANCH  31  32
ATOM     32  O   UNL     1       0.917   2.948  18.211  0.00  0.00    +0.000 OA
ATOM     33  H   UNL     1       1.274   2.334  17.536  0.00  0.00    +0.000 HD
ENDBRANCH  31  32
ENDBRANCH   8  31
TORSDOF 6
ENDMDL
MODEL 4
REMARK VINA RESULT:      -9.0      1.186      1.564
REMARK  Name = 
REMARK  6 active torsions:
REMARK  status: ('A' for Active; 'I' for Inactive)
REMARK    1  A    between atoms: C_2  and  C_3
REMARK    2  A    between atoms: C_3  and  C_4
REMARK    3  A    between atoms: C_15  and  C_16
REMARK    4  A    between atoms: C_16  and  O_17
REMARK    5  A    between atoms: C_18  and  C_19
REMARK    6  A    between atoms: C_22  and  C_23
REMARK                            x       y       z     vdW  Elec       q    Type
REMARK                         _______ _______ _______ _____ _____    ______ ____
ROOT
ATOM      1  O   UNL     1       5.559   6.704  16.235  0.00  0.00    +0.000 OA
ATOM      2  C   UNL     1       5.498   5.496  16.481  0.00  0.00    +0.000 C 
ATOM      3  N   UNL     1       5.813   5.000  17.742  0.00  0.00    +0.000 N 
ATOM      4  C   UNL     1       5.763   3.575  18.109  0.00  0.00    +0.000 C 
ATOM      5  C   UNL     1       4.339   3.257  18.559  0.00  0.00    +0.000 C 
ATOM      6  O   UNL     1       3.826   2.148  18.447  0.00  0.00    +0.000 OA
ATOM      7  N   UNL     1       3.706   4.315  19.156  0.00  0.00    +0.000 N 
ATOM      8  C   UNL     1       2.321   4.768  19.049  0.00  0.00    +0.000 C 
ATOM      9  C   UNL     1       2.942   6.166  18.688  0.00  0.00    +0.000 C 
ATOM     10  C   UNL     1       4.222   5.678  19.420  0.00  0.00    +0.000 C 
ATOM     11  C   UNL     1       5.631   5.916  18.862  0.00  0.00    +0.000 C 
ENDROOT
BRANCH   9  12
ATOM     12  C   UNL     1       2.063   7.368  19.196  0.00  0.00    +0.000 A 
ATOM     13  C   UNL     1       1.861   8.508  18.407  0.00  0.00    +0.000 A 
ATOM     14  C   UNL     1       1.361   9.687  18.948  0.00  0.00    +0.000 A 
ATOM     15  C   UNL     1       0.994   9.774  20.299  0.00  0.00    +0.000 A 
ATOM     16  C   UNL     1       1.089   8.608  21.068  0.00  0.00    +0.000 A 
ATOM     17  C   UNL     1       1.614   7.430  20.527  0.00  0.00    +0.000 A 
BRANCH  15  18
ATOM     18  C   UNL     1       0.576  11.066  20.879  0.00  0.00    +0.000 A 
ATOM     19  C   UNL     1       1.196  12.265  20.483  0.00  0.00    +0.000 A 
ATOM     20  C   UNL     1       0.857  13.485  21.068  0.00  0.00    +0.000 A 
ATOM     21  C   UNL     1      -0.126  13.535  22.050  0.00  0.00    +0.000 A 
ATOM     22  C   UNL     1      -0.765  12.366  22.452  0.00  0.00    +0.000 A 
ATOM     23  C   UNL     1      -0.411  11.142  21.877  0.00  0.00    +0.000 A 
ENDBRANCH  15  18
ENDBRANCH   9  12
BRANCH   2  24
ATOM     24  C   UNL     1       4.944   4.541  15.434  0.00  0.00    +0.000 C 
BRANCH  24  25
ATOM     25  C   UNL     1       5.813   4.390  14.217  0.00  0.00    +0.000 A 
ATOM     26  C   UNL     1       5.409   3.560  13.166  0.00  0.00    +0.000 A 
ATOM     27  C   UNL     1       6.202   3.439  12.027  0.00  0.00    +0.000 A 
ATOM     28  C   UNL     1       7.396   4.142  11.928  0.00  0.00    +0.000 A 
ATOM     29  C   UNL     1       7.799   4.979  12.965  0.00  0.00    +0.000 A 
ATOM     30  C   UNL     1       7.008   5.106  14.106  0.00  0.00    +0.000 A 
ENDBRANCH  24  25
ENDBRANCH   2  24
BRANCH   8  31
ATOM     31  C   UNL     1       1.409   4.271  17.938  0.00  0.00    +0.000 C 
BRANCH  31  32
ATOM     32  O   UNL     1       0.927   2.960  18.199  0.00  0.00    +0.000 OA
ATOM     33  H   UNL     1       0.039   2.877  17.795  0.00  0.00    +0.000 HD
ENDBRANCH  31  32
ENDBRANCH   8  31
TORSDOF 6
ENDMDL
MODEL 5
REMARK VINA RESULT:      -8.9      1.043      1.635
REMARK  Name = 
REMARK  6 active torsions:
REMARK  status: ('A' for Active; 'I' for Inactive)
REMARK    1  A    between atoms: C_2  and  C_3
REMARK    2  A    between atoms: C_3  and  C_4
REMARK    3  A    between atoms: C_15  and  C_16
REMARK    4  A    between atoms: C_16  and  O_17
REMARK    5  A    between atoms: C_18  and  C_19
REMARK    6  A    between atoms: C_22  and  C_23
REMARK                            x       y       z     vdW  Elec       q    Type
REMARK                         _______ _______ _______ _____ _____    ______ ____
ROOT
ATOM      1  O   UNL     1       5.686   6.662  16.083  0.00  0.00    +0.000 OA
ATOM      2  C   UNL     1       5.609   5.475  16.413  0.00  0.00    +0.000 C 
ATOM      3  N   UNL     1       5.874   5.071  17.718  0.00  0.00    +0.000 N 
ATOM      4  C   UNL     1       5.802   3.677  18.185  0.00  0.00    +0.000 C 
ATOM      5  C   UNL     1       4.361   3.397  18.603  0.00  0.00    +0.000 C 
ATOM      6  O   UNL     1       3.845   2.284  18.553  0.00  0.00    +0.000 OA
ATOM      7  N   UNL     1       3.712   4.497  19.097  0.00  0.00    +0.000 N 
ATOM      8  C   UNL     1       2.335   4.945  18.905  0.00  0.00    +0.000 C 
ATOM      9  C   UNL     1       2.977   6.312  18.468  0.00  0.00    +0.000 C 
ATOM     10  C   UNL     1       4.225   5.874  19.281  0.00  0.00    +0.000 C 
ATOM     11  C   UNL     1       5.655   6.067  18.761  0.00  0.00    +0.000 C 
ENDROOT
BRANCH   9  12
ATOM     12  C   UNL     1       2.086   7.550  18.854  0.00  0.00    +0.000 A 
ATOM     13  C   UNL     1       1.816   8.570  17.932  0.00  0.00    +0.000 A 
ATOM     14  C   UNL     1       1.306   9.799  18.336  0.00  0.00    +0.000 A 
ATOM     15  C   UNL     1       0.997  10.057  19.679  0.00  0.00    +0.000 A 
ATOM     16  C   UNL     1       1.159   9.005  20.589  0.00  0.00    +0.000 A 
ATOM     17  C   UNL     1       1.694   7.779  20.184  0.00  0.00    +0.000 A 
BRANCH  15  18
ATOM     18  C   UNL     1       0.568  11.404  20.102  0.00  0.00    +0.000 A 
ATOM     19  C   UNL     1       0.782  12.520  19.273  0.00  0.00    +0.000 A 
ATOM     20  C   UNL     1       0.440  13.808  19.686  0.00  0.00    +0.000 A 
ATOM     21  C   UNL     1      -0.143  14.006  20.932  0.00  0.00    +0.000 A 
ATOM     22  C   UNL     1      -0.378  12.919  21.768  0.00  0.00    +0.000 A 
ATOM     23  C   UNL     1      -0.019  11.631  21.360  0.00  0.00    +0.000 A 
ENDBRANCH  15  18
ENDBRANCH   9  12
BRANCH   2  24
ATOM     24  C   UNL     1       5.089   4.448  15.419  0.00  0.00    +0.000 C 
BRANCH  24  25
ATOM     25  C   UNL     1       5.892   4.358  14.150  0.00  0.00    +0.000 A 
ATOM     26  C   UNL     1       7.085   5.077  14.024  0.00  0.00    +0.000 A 
ATOM     27  C   UNL     1       7.841   4.975  12.859  0.00  0.00    +0.000 A 
ATOM     28  C   UNL     1       7.417   4.158  11.818  0.00  0.00    +0.000 A 
ATOM     29  C   UNL     1       6.237   3.430  11.941  0.00  0.00    +0.000 A 
ATOM     30  C   UNL     1       5.477   3.527  13.106  0.00  0.00    +0.000 A 
ENDBRANCH  24  25
ENDBRANCH   2  24
BRANCH   8  31
ATOM     31  C   UNL     1       1.461   4.372  17.800  0.00  0.00    +0.000 C 
BRANCH  31  32
ATOM     32  O   UNL     1       0.980   3.076  18.128  0.00  0.00    +0.000 OA
ATOM     33  H   UNL     1       1.223   2.468  17.400  0.00  0.00    +0.000 HD
ENDBRANCH  31  32
ENDBRANCH   8  31
TORSDOF 6
ENDMDL
MODEL 6
REMARK VINA RESULT:      -8.9      0.920      1.406
REMARK  Name = 
REMARK  6 active torsions:
REMARK  status: ('A' for Active; 'I' for Inactive)
REMARK    1  A    between atoms: C_2  and  C_3
REMARK    2  A    between atoms: C_3  and  C_4
REMARK    3  A    between atoms: C_15  and  C_16
REMARK    4  A    between atoms: C_16  and  O_17
REMARK    5  A    between atoms: C_18  and  C_19
REMARK    6  A    between atoms: C_22  and  C_23
REMARK                            x       y       z     vdW  Elec       q    Type
REMARK                         _______ _______ _______ _____ _____    ______ ____
ROOT
ATOM      1  O   UNL     1       5.769   6.582  16.145  0.00  0.00    +0.000 OA
ATOM      2  C   UNL     1       5.670   5.402  16.495  0.00  0.00    +0.000 C 
ATOM      3  N   UNL     1       5.889   5.020  17.816  0.00  0.00    +0.000 N 
ATOM      4  C   UNL     1       5.789   3.636  18.306  0.00  0.00    +0.000 C 
ATOM      5  C   UNL     1       4.332   3.378  18.683  0.00  0.00    +0.000 C 
ATOM      6  O   UNL     1       3.807   2.270  18.637  0.00  0.00    +0.000 OA
ATOM      7  N   UNL     1       3.679   4.494  19.136  0.00  0.00    +0.000 N 
ATOM      8  C   UNL     1       2.314   4.951  18.892  0.00  0.00    +0.000 C 
ATOM      9  C   UNL     1       2.983   6.303  18.450  0.00  0.00    +0.000 C 
ATOM     10  C   UNL     1       4.201   5.869  19.310  0.00  0.00    +0.000 C 
ATOM     11  C   UNL     1       5.649   6.038  18.832  0.00  0.00    +0.000 C 
ENDROOT
BRANCH   9  12
ATOM     12  C   UNL     1       2.094   7.557  18.785  0.00  0.00    +0.000 A 
ATOM     13  C   UNL     1       1.836   8.546  17.825  0.00  0.00    +0.000 A 
ATOM     14  C   UNL     1       1.327   9.790  18.182  0.00  0.00    +0.000 A 
ATOM     15  C   UNL     1       1.006  10.095  19.513  0.00  0.00    +0.000 A 
ATOM     16  C   UNL     1       1.156   9.075  20.460  0.00  0.00    +0.000 A 
ATOM     17  C   UNL     1       1.690   7.833  20.103  0.00  0.00    +0.000 A 
BRANCH  15  18
ATOM     18  C   UNL     1       0.578  11.457  19.885  0.00  0.00    +0.000 A 
ATOM     19  C   UNL     1      -0.725  11.697  20.356  0.00  0.00    +0.000 A 
ATOM     20  C   UNL     1      -1.165  12.988  20.650  0.00  0.00    +0.000 A 
ATOM     21  C   UNL     1      -0.302  14.067  20.499  0.00  0.00    +0.000 A 
ATOM     22  C   UNL     1       0.998  13.858  20.047  0.00  0.00    +0.000 A 
ATOM     23  C   UNL     1       1.431  12.566  19.736  0.00  0.00    +0.000 A 
ENDBRANCH  15  18
ENDBRANCH   9  12
BRANCH   2  24
ATOM     24  C   UNL     1       5.171   4.362  15.504  0.00  0.00    +0.000 C 
BRANCH  24  25
ATOM     25  C   UNL     1       5.962   4.299  14.227  0.00  0.00    +0.000 A 
ATOM     26  C   UNL     1       5.510   3.514  13.161  0.00  0.00    +0.000 A 
ATOM     27  C   UNL     1       6.230   3.474  11.969  0.00  0.00    +0.000 A 
ATOM     28  C   UNL     1       7.397   4.215  11.831  0.00  0.00    +0.000 A 
ATOM     29  C   UNL     1       7.846   5.008  12.883  0.00  0.00    +0.000 A 
ATOM     30  C   UNL     1       7.129   5.053  14.078  0.00  0.00    +0.000 A 
ENDBRANCH  24  25
ENDBRANCH   2  24
BRANCH   8  31
ATOM     31  C   UNL     1       1.469   4.366  17.771  0.00  0.00    +0.000 C 
BRANCH  31  32
ATOM     32  O   UNL     1       0.968   3.080  18.106  0.00  0.00    +0.000 OA
ATOM     33  H   UNL     1       1.206   2.894  19.038  0.00  0.00    +0.000 HD
ENDBRANCH  31  32
ENDBRANCH   8  31
TORSDOF 6
ENDMDL
MODEL 7
REMARK VINA RESULT:      -8.7      1.029      1.611
REMARK  Name = 
REMARK  6 active torsions:
REMARK  status: ('A' for Active; 'I' for Inactive)
REMARK    1  A    between atoms: C_2  and  C_3
REMARK    2  A    between atoms: C_3  and  C_4
REMARK    3  A    between atoms: C_15  and  C_16
REMARK    4  A    between atoms: C_16  and  O_17
REMARK    5  A    between atoms: C_18  and  C_19
REMARK    6  A    between atoms: C_22  and  C_23
REMARK                            x       y       z     vdW  Elec       q    Type
REMARK                         _______ _______ _______ _____ _____    ______ ____
ROOT
ATOM      1  O   UNL     1       5.207   6.863  15.312  0.00  0.00    +0.000 OA
ATOM      2  C   UNL     1       5.531   5.812  15.873  0.00  0.00    +0.000 C 
ATOM      3  N   UNL     1       6.183   5.822  17.103  0.00  0.00    +0.000 N 
ATOM      4  C   UNL     1       6.600   4.613  17.831  0.00  0.00    +0.000 C 
ATOM      5  C   UNL     1       5.422   4.150  18.683  0.00  0.00    +0.000 C 
ATOM      6  O   UNL     1       5.231   2.979  18.996  0.00  0.00    +0.000 OA
ATOM      7  N   UNL     1       4.626   5.176  19.119  0.00  0.00    +0.000 N 
ATOM      8  C   UNL     1       3.173   5.257  19.241  0.00  0.00    +0.000 C 
ATOM      9  C   UNL     1       3.303   6.569  18.386  0.00  0.00    +0.000 C 
ATOM     10  C   UNL     1       4.773   6.631  18.882  0.00  0.00    +0.000 C 
ATOM     11  C   UNL     1       5.942   6.983  17.953  0.00  0.00    +0.000 C 
ENDROOT
BRANCH   9  12
ATOM     12  C   UNL     1       2.220   7.647  18.761  0.00  0.00    +0.000 A 
ATOM     13  C   UNL     1       1.798   8.611  17.835  0.00  0.00    +0.000 A 
ATOM     14  C   UNL     1       1.092   9.740  18.233  0.00  0.00    +0.000 A 
ATOM     15  C   UNL     1       0.731   9.943  19.573  0.00  0.00    +0.000 A 
ATOM     16  C   UNL     1       1.051   8.931  20.485  0.00  0.00    +0.000 A 
ATOM     17  C   UNL     1       1.781   7.807  20.087  0.00  0.00    +0.000 A 
BRANCH  15  18
ATOM     18  C   UNL     1       0.084  11.203  19.990  0.00  0.00    +0.000 A 
ATOM     19  C   UNL     1       0.734  12.088  20.868  0.00  0.00    +0.000 A 
ATOM     20  C   UNL     1       0.111  13.250  21.322  0.00  0.00    +0.000 A 
ATOM     21  C   UNL     1      -1.173  13.563  20.891  0.00  0.00    +0.000 A 
ATOM     22  C   UNL     1      -1.836  12.712  20.012  0.00  0.00    +0.000 A 
ATOM     23  C   UNL     1      -1.216  11.539  19.572  0.00  0.00    +0.000 A 
ENDBRANCH  15  18
ENDBRANCH   9  12
BRANCH   2  24
ATOM     24  C   UNL     1       5.101   4.478  15.283  0.00  0.00    +0.000 C 
BRANCH  24  25
ATOM     25  C   UNL     1       5.747   4.151  13.965  0.00  0.00    +0.000 A 
ATOM     26  C   UNL     1       5.083   3.335  13.043  0.00  0.00    +0.000 A 
ATOM     27  C   UNL     1       5.670   3.051  11.812  0.00  0.00    +0.000 A 
ATOM     28  C   UNL     1       6.915   3.579  11.492  0.00  0.00    +0.000 A 
ATOM     29  C   UNL     1       7.576   4.402  12.399  0.00  0.00    +0.000 A 
ATOM     30  C   UNL     1       6.992   4.690  13.632  0.00  0.00    +0.000 A 
ENDBRANCH  24  25
ENDBRANCH   2  24
BRANCH   8  31
ATOM     31  C   UNL     1       2.263   4.247  18.559  0.00  0.00    +0.000 C 
BRANCH  31  32
ATOM     32  O   UNL     1       2.174   3.036  19.296  0.00  0.00    +0.000 OA
ATOM     33  H   UNL     1       2.441   2.301  18.707  0.00  0.00    +0.000 HD
ENDBRANCH  31  32
ENDBRANCH   8  31
TORSDOF 6
ENDMDL
MODEL 8
REMARK VINA RESULT:      -8.7      0.648      1.170
REMARK  Name = 
REMARK  6 active torsions:
REMARK  status: ('A' for Active; 'I' for Inactive)
REMARK    1  A    between atoms: C_2  and  C_3
REMARK    2  A    between atoms: C_3  and  C_4
REMARK    3  A    between atoms: C_15  and  C_16
REMARK    4  A    between atoms: C_16  and  O_17
REMARK    5  A    between atoms: C_18  and  C_19
REMARK    6  A    between atoms: C_22  and  C_23
REMARK                            x       y       z     vdW  Elec       q    Type
REMARK                         _______ _______ _______ _____ _____    ______ ____
ROOT
ATOM      1  O   UNL     1       5.757   6.746  16.385  0.00  0.00    +0.000 OA
ATOM      2  C   UNL     1       5.531   5.542  16.538  0.00  0.00    +0.000 C 
ATOM      3  N   UNL     1       5.762   4.914  17.759  0.00  0.00    +0.000 N 
ATOM      4  C   UNL     1       5.517   3.486  18.015  0.00  0.00    +0.000 C 
ATOM      5  C   UNL     1       4.058   3.330  18.438  0.00  0.00    +0.000 C 
ATOM      6  O   UNL     1       3.401   2.313  18.242  0.00  0.00    +0.000 OA
ATOM      7  N   UNL     1       3.567   4.416  19.114  0.00  0.00    +0.000 N 
ATOM      8  C   UNL     1       2.257   5.059  19.040  0.00  0.00    +0.000 C 
ATOM      9  C   UNL     1       3.065   6.383  18.788  0.00  0.00    +0.000 C 
ATOM     10  C   UNL     1       4.259   5.673  19.481  0.00  0.00    +0.000 C 
ATOM     11  C   UNL     1       5.693   5.759  18.945  0.00  0.00    +0.000 C 
ENDROOT
BRANCH   9  12
ATOM     12  C   UNL     1       2.350   7.652  19.386  0.00  0.00    +0.000 A 
ATOM     13  C   UNL     1       2.041   7.740  20.750  0.00  0.00    +0.000 A 
ATOM     14  C   UNL     1       1.149   8.691  21.232  0.00  0.00    +0.000 A 
ATOM     15  C   UNL     1       0.554   9.634  20.382  0.00  0.00    +0.000 A 
ATOM     16  C   UNL     1       0.944   9.623  19.037  0.00  0.00    +0.000 A 
ATOM     17  C   UNL     1       1.823   8.651  18.550  0.00  0.00    +0.000 A 
BRANCH  15  18
ATOM     18  C   UNL     1      -0.477  10.558  20.895  0.00  0.00    +0.000 A 
ATOM     19  C   UNL     1      -1.192  11.394  20.019  0.00  0.00    +0.000 A 
ATOM     20  C   UNL     1      -2.123  12.318  20.495  0.00  0.00    +0.000 A 
ATOM     21  C   UNL     1      -2.373  12.411  21.859  0.00  0.00    +0.000 A 
ATOM     22  C   UNL     1      -1.689  11.588  22.748  0.00  0.00    +0.000 A 
ATOM     23  C   UNL     1      -0.745  10.675  22.271  0.00  0.00    +0.000 A 
ENDBRANCH  15  18
ENDBRANCH   9  12
BRANCH   2  24
ATOM     24  C   UNL     1       4.865   4.752  15.422  0.00  0.00    +0.000 C 
BRANCH  24  25
ATOM     25  C   UNL     1       5.735   4.540  14.214  0.00  0.00    +0.000 A 
ATOM     26  C   UNL     1       6.918   5.272  14.066  0.00  0.00    +0.000 A 
ATOM     27  C   UNL     1       7.737   5.059  12.959  0.00  0.00    +0.000 A 
ATOM     28  C   UNL     1       7.386   4.118  12.000  0.00  0.00    +0.000 A 
ATOM     29  C   UNL     1       6.217   3.377  12.146  0.00  0.00    +0.000 A 
ATOM     30  C   UNL     1       5.394   3.585  13.252  0.00  0.00    +0.000 A 
ENDBRANCH  24  25
ENDBRANCH   2  24
BRANCH   8  31
ATOM     31  C   UNL     1       1.298   4.775  17.894  0.00  0.00    +0.000 C 
BRANCH  31  32
ATOM     32  O   UNL     1       0.947   3.400  17.829  0.00  0.00    +0.000 OA
ATOM     33  H   UNL     1       0.565   3.143  18.694  0.00  0.00    +0.000 HD
ENDBRANCH  31  32
ENDBRANCH   8  31
TORSDOF 6
ENDMDL
MODEL 9
REMARK VINA RESULT:      -8.4      4.729     10.767
REMARK  Name = 
REMARK  6 active torsions:
REMARK  status: ('A' for Active; 'I' for Inactive)
REMARK    1  A    between atoms: C_2  and  C_3
REMARK    2  A    between atoms: C_3  and  C_4
REMARK    3  A    between atoms: C_15  and  C_16
REMARK    4  A    between atoms: C_16  and  O_17
REMARK    5  A    between atoms: C_18  and  C_19
REMARK    6  A    between atoms: C_22  and  C_23
REMARK                            x       y       z     vdW  Elec       q    Type
REMARK                         _______ _______ _______ _____ _____    ______ ____
ROOT
ATOM      1  O   UNL     1      -0.194  11.315  22.811  0.00  0.00    +0.000 OA
ATOM      2  C   UNL     1      -0.591  12.075  21.923  0.00  0.00    +0.000 C 
ATOM      3  N   UNL     1       0.305  12.785  21.128  0.00  0.00    +0.000 N 
ATOM      4  C   UNL     1      -0.092  13.707  20.052  0.00  0.00    +0.000 C 
ATOM      5  C   UNL     1      -0.268  12.889  18.776  0.00  0.00    +0.000 C 
ATOM      6  O   UNL     1      -1.038  13.199  17.873  0.00  0.00    +0.000 OA
ATOM      7  N   UNL     1       0.563  11.802  18.705  0.00  0.00    +0.000 N 
ATOM      8  C   UNL     1       0.309  10.450  18.213  0.00  0.00    +0.000 C 
ATOM      9  C   UNL     1       0.857   9.978  19.608  0.00  0.00    +0.000 C 
ATOM     10  C   UNL     1       1.584  11.348  19.677  0.00  0.00    +0.000 C 
ATOM     11  C   UNL     1       1.627  12.194  20.957  0.00  0.00    +0.000 C 
ENDROOT
BRANCH   9  12
ATOM     12  C   UNL     1       1.616   8.602  19.526  0.00  0.00    +0.000 A 
ATOM     13  C   UNL     1       2.251   8.188  18.347  0.00  0.00    +0.000 A 
ATOM     14  C   UNL     1       2.648   6.868  18.161  0.00  0.00    +0.000 A 
ATOM     15  C   UNL     1       2.470   5.902  19.161  0.00  0.00    +0.000 A 
ATOM     16  C   UNL     1       1.938   6.333  20.383  0.00  0.00    +0.000 A 
ATOM     17  C   UNL     1       1.519   7.654  20.560  0.00  0.00    +0.000 A 
BRANCH  15  18
ATOM     18  C   UNL     1       2.791   4.486  18.899  0.00  0.00    +0.000 A 
ATOM     19  C   UNL     1       2.049   3.742  17.965  0.00  0.00    +0.000 A 
ATOM     20  C   UNL     1       2.298   2.386  17.753  0.00  0.00    +0.000 A 
ATOM     21  C   UNL     1       3.312   1.748  18.458  0.00  0.00    +0.000 A 
ATOM     22  C   UNL     1       4.072   2.462  19.379  0.00  0.00    +0.000 A 
ATOM     23  C   UNL     1       3.809   3.817  19.603  0.00  0.00    +0.000 A 
ENDBRANCH  15  18
ENDBRANCH   9  12
BRANCH   2  24
ATOM     24  C   UNL     1      -2.074  12.143  21.596  0.00  0.00    +0.000 C 
BRANCH  24  25
ATOM     25  C   UNL     1      -2.866  13.035  22.512  0.00  0.00    +0.000 A 
ATOM     26  C   UNL     1      -2.982  14.400  22.232  0.00  0.00    +0.000 A 
ATOM     27  C   UNL     1      -3.735  15.223  23.067  0.00  0.00    +0.000 A 
ATOM     28  C   UNL     1      -4.377  14.692  24.178  0.00  0.00    +0.000 A 
ATOM     29  C   UNL     1      -4.277  13.332  24.456  0.00  0.00    +0.000 A 
ATOM     30  C   UNL     1      -3.525  12.504  23.623  0.00  0.00    +0.000 A 
ENDBRANCH  24  25
ENDBRANCH   2  24
BRANCH   8  31
ATOM     31  C   UNL     1      -1.107   9.945  17.980  0.00  0.00    +0.000 C 
BRANCH  31  32
ATOM     32  O   UNL     1      -1.645  10.427  16.757  0.00  0.00    +0.000 OA
ATOM     33  H   UNL     1      -2.516  10.002  16.620  0.00  0.00    +0.000 HD
ENDBRANCH  31  32
ENDBRANCH   8  31
TORSDOF 6
ENDMDL
