MODEL 1
REMARK VINA RESULT:      -7.6      0.000      0.000
REMARK  Name = 
REMARK  4 active torsions:
REMARK  status: ('A' for Active; 'I' for Inactive)
REMARK    1  A    between atoms: C_1  and  C_2
REMARK    2  A    between atoms: C_8  and  C_9
REMARK    3  A    between atoms: C_9  and  C_10
REMARK    4  A    between atoms: C_10  and  C_11
REMARK                            x       y       z     vdW  Elec       q    Type
REMARK                         _______ _______ _______ _____ _____    ______ ____
ROOT
ATOM      1  C   UNL     1       1.087   2.669  21.000  0.00  0.00    +0.000 C 
ATOM      2  C   UNL     1       1.677   3.787  20.149  0.00  0.00    +0.000 C 
ATOM      3  C   UNL     1       1.896   3.320  18.703  0.00  0.00    +0.000 C 
ATOM      4  C   UNL     1       2.549   4.410  17.855  0.00  0.00    +0.000 C 
ATOM      5  N   UNL     1       3.758   4.863  18.513  0.00  0.00    +0.000 N 
ATOM      6  C   UNL     1       4.970   4.837  17.865  0.00  0.00    +0.000 A 
ATOM      7  C   UNL     1       4.991   4.989  16.479  0.00  0.00    +0.000 A 
ATOM      8  C   UNL     1       6.208   4.946  15.826  0.00  0.00    +0.000 A 
ATOM      9  N   UNL     1       7.348   4.760  16.493  0.00  0.00    +0.000 NA
ATOM     10  C   UNL     1       7.239   4.619  17.823  0.00  0.00    +0.000 A 
ATOM     11  N   UNL     1       6.104   4.666  18.551  0.00  0.00    +0.000 NA
ATOM     12  C   UNL     1       3.659   5.349  19.883  0.00  0.00    +0.000 C 
ATOM     13  C   UNL     1       2.997   4.290  20.760  0.00  0.00    +0.000 C 
ENDROOT
BRANCH   8  14
ATOM     14  C   UNL     1       6.281   5.162  14.334  0.00  0.00    +0.000 C 
BRANCH  14  15
ATOM     15  C   UNL     1       6.991   4.007  13.610  0.00  0.00    +0.000 C 
BRANCH  15  16
ATOM     16  C   UNL     1       6.326   3.617  12.291  0.00  0.00    +0.000 C 
ATOM     17  C   UNL     1       4.816   3.764  12.343  0.00  0.00    +0.000 C 
ATOM     18  C   UNL     1       4.353   2.885  11.200  0.00  0.00    +0.000 C 
ATOM     19  C   UNL     1       5.401   1.785  11.118  0.00  0.00    +0.000 C 
ATOM     20  N   UNL     1       6.492   2.184  12.012  0.00  0.00    +0.000 NA
ATOM     21  H   UNL     1       7.399   1.986  11.593  0.00  0.00    +0.000 HD
ENDBRANCH  15  16
ENDBRANCH  14  15
ENDBRANCH   8  14
TORSDOF 3
ENDMDL
MODEL 2
REMARK VINA RESULT:      -7.4      1.504      1.895
REMARK  Name = 
REMARK  4 active torsions:
REMARK  status: ('A' for Active; 'I' for Inactive)
REMARK    1  A    between atoms: C_1  and  C_2
REMARK    2  A    between atoms: C_8  and  C_9
REMARK    3  A    between atoms: C_9  and  C_10
REMARK    4  A    between atoms: C_10  and  C_11
REMARK                            x       y       z     vdW  Elec       q    Type
REMARK                         _______ _______ _______ _____ _____    ______ ____
ROOT
ATOM      1  C   UNL     1       1.949   2.675  21.813  0.00  0.00    +0.000 C 
ATOM      2  C   UNL     1       2.163   2.711  20.305  0.00  0.00    +0.000 C 
ATOM      3  C   UNL     1       3.643   2.501  19.954  0.00  0.00    +0.000 C 
ATOM      4  C   UNL     1       3.882   2.600  18.448  0.00  0.00    +0.000 C 
ATOM      5  N   UNL     1       3.338   3.853  17.964  0.00  0.00    +0.000 N 
ATOM      6  C   UNL     1       4.122   4.748  17.275  0.00  0.00    +0.000 A 
ATOM      7  C   UNL     1       5.181   4.259  16.510  0.00  0.00    +0.000 A 
ATOM      8  C   UNL     1       5.980   5.160  15.833  0.00  0.00    +0.000 A 
ATOM      9  N   UNL     1       5.759   6.473  15.900  0.00  0.00    +0.000 NA
ATOM     10  C   UNL     1       4.722   6.860  16.661  0.00  0.00    +0.000 A 
ATOM     11  N   UNL     1       3.876   6.059  17.342  0.00  0.00    +0.000 NA
ATOM     12  C   UNL     1       1.933   4.143  18.223  0.00  0.00    +0.000 C 
ATOM     13  C   UNL     1       1.653   4.040  19.719  0.00  0.00    +0.000 C 
ENDROOT
BRANCH   8  14
ATOM     14  C   UNL     1       7.102   4.669  14.950  0.00  0.00    +0.000 C 
BRANCH  14  15
ATOM     15  C   UNL     1       6.743   4.735  13.457  0.00  0.00    +0.000 C 
BRANCH  15  16
ATOM     16  C   UNL     1       6.026   3.484  12.949  0.00  0.00    +0.000 C 
ATOM     17  C   UNL     1       6.823   2.759  11.880  0.00  0.00    +0.000 C 
ATOM     18  C   UNL     1       5.773   1.915  11.191  0.00  0.00    +0.000 C 
ATOM     19  C   UNL     1       4.491   2.724  11.322  0.00  0.00    +0.000 C 
ATOM     20  N   UNL     1       4.789   3.829  12.237  0.00  0.00    +0.000 NA
ATOM     21  H   UNL     1       4.017   3.988  12.882  0.00  0.00    +0.000 HD
ENDBRANCH  15  16
ENDBRANCH  14  15
ENDBRANCH   8  14
TORSDOF 3
ENDMDL
MODEL 3
REMARK VINA RESULT:      -7.2      3.191      5.138
REMARK  Name = 
REMARK  4 active torsions:
REMARK  status: ('A' for Active; 'I' for Inactive)
REMARK    1  A    between atoms: C_1  and  C_2
REMARK    2  A    between atoms: C_8  and  C_9
REMARK    3  A    between atoms: C_9  and  C_10
REMARK    4  A    between atoms: C_10  and  C_11
REMARK                            x       y       z     vdW  Elec       q    Type
REMARK                         _______ _______ _______ _____ _____    ______ ____
ROOT
ATOM      1  C   UNL     1      -0.726  10.716  18.448  0.00  0.00    +0.000 C 
ATOM      2  C   UNL     1       0.565  10.065  18.931  0.00  0.00    +0.000 C 
ATOM      3  C   UNL     1       1.113   9.087  17.882  0.00  0.00    +0.000 C 
ATOM      4  C   UNL     1       2.371   8.377  18.380  0.00  0.00    +0.000 C 
ATOM      5  N   UNL     1       2.092   7.764  19.663  0.00  0.00    +0.000 N 
ATOM      6  C   UNL     1       2.298   6.419  19.865  0.00  0.00    +0.000 A 
ATOM      7  C   UNL     1       3.302   5.779  19.140  0.00  0.00    +0.000 A 
ATOM      8  C   UNL     1       3.496   4.425  19.331  0.00  0.00    +0.000 A 
ATOM      9  N   UNL     1       2.746   3.728  20.185  0.00  0.00    +0.000 NA
ATOM     10  C   UNL     1       1.799   4.419  20.840  0.00  0.00    +0.000 A 
ATOM     11  N   UNL     1       1.546   5.741  20.737  0.00  0.00    +0.000 NA
ATOM     12  C   UNL     1       1.587   8.608  20.739  0.00  0.00    +0.000 C 
ATOM     13  C   UNL     1       0.336   9.346  20.272  0.00  0.00    +0.000 C 
ENDROOT
BRANCH   8  14
ATOM     14  C   UNL     1       4.609   3.705  18.606  0.00  0.00    +0.000 C 
BRANCH  14  15
ATOM     15  C   UNL     1       5.828   4.608  18.364  0.00  0.00    +0.000 C 
BRANCH  15  16
ATOM     16  C   UNL     1       5.947   5.095  16.921  0.00  0.00    +0.000 C 
ATOM     17  C   UNL     1       5.049   4.315  15.976  0.00  0.00    +0.000 C 
ATOM     18  C   UNL     1       5.672   4.583  14.623  0.00  0.00    +0.000 C 
ATOM     19  C   UNL     1       7.154   4.765  14.916  0.00  0.00    +0.000 C 
ATOM     20  N   UNL     1       7.284   4.827  16.374  0.00  0.00    +0.000 NA
ATOM     21  H   UNL     1       7.952   5.543  16.652  0.00  0.00    +0.000 HD
ENDBRANCH  15  16
ENDBRANCH  14  15
ENDBRANCH   8  14
TORSDOF 3
ENDMDL
MODEL 4
REMARK VINA RESULT:      -7.2      1.813      2.751
REMARK  Name = 
REMARK  4 active torsions:
REMARK  status: ('A' for Active; 'I' for Inactive)
REMARK    1  A    between atoms: C_1  and  C_2
REMARK    2  A    between atoms: C_8  and  C_9
REMARK    3  A    between atoms: C_9  and  C_10
REMARK    4  A    between atoms: C_10  and  C_11
REMARK                            x       y       z     vdW  Elec       q    Type
REMARK                         _______ _______ _______ _____ _____    ______ ____
ROOT
ATOM      1  C   UNL     1       1.030   2.369  22.163  0.00  0.00    +0.000 C 
ATOM      2  C   UNL     1       1.652   2.501  20.778  0.00  0.00    +0.000 C 
ATOM      3  C   UNL     1       3.142   2.861  20.877  0.00  0.00    +0.000 C 
ATOM      4  C   UNL     1       3.763   3.062  19.496  0.00  0.00    +0.000 C 
ATOM      5  N   UNL     1       2.974   4.029  18.758  0.00  0.00    +0.000 N 
ATOM      6  C   UNL     1       3.552   5.160  18.232  0.00  0.00    +0.000 A 
ATOM      7  C   UNL     1       4.891   5.111  17.845  0.00  0.00    +0.000 A 
ATOM      8  C   UNL     1       5.475   6.252  17.332  0.00  0.00    +0.000 A 
ATOM      9  N   UNL     1       4.788   7.389  17.206  0.00  0.00    +0.000 NA
ATOM     10  C   UNL     1       3.507   7.353  17.606  0.00  0.00    +0.000 A 
ATOM     11  N   UNL     1       2.844   6.286  18.098  0.00  0.00    +0.000 NA
ATOM     12  C   UNL     1       1.550   3.774  18.586  0.00  0.00    +0.000 C 
ATOM     13  C   UNL     1       0.897   3.553  19.947  0.00  0.00    +0.000 C 
ENDROOT
BRANCH   8  14
ATOM     14  C   UNL     1       6.906   6.226  16.850  0.00  0.00    +0.000 C 
BRANCH  14  15
ATOM     15  C   UNL     1       7.226   4.959  16.041  0.00  0.00    +0.000 C 
BRANCH  15  16
ATOM     16  C   UNL     1       6.738   5.022  14.594  0.00  0.00    +0.000 C 
ATOM     17  C   UNL     1       6.198   3.688  14.111  0.00  0.00    +0.000 C 
ATOM     18  C   UNL     1       6.259   3.826  12.605  0.00  0.00    +0.000 C 
ATOM     19  C   UNL     1       7.443   4.749  12.356  0.00  0.00    +0.000 C 
ATOM     20  N   UNL     1       7.849   5.266  13.665  0.00  0.00    +0.000 NA
ATOM     21  H   UNL     1       8.082   6.256  13.611  0.00  0.00    +0.000 HD
ENDBRANCH  15  16
ENDBRANCH  14  15
ENDBRANCH   8  14
TORSDOF 3
ENDMDL
MODEL 5
REMARK VINA RESULT:      -7.1      3.746      6.307
REMARK  Name = 
REMARK  4 active torsions:
REMARK  status: ('A' for Active; 'I' for Inactive)
REMARK    1  A    between atoms: C_1  and  C_2
REMARK    2  A    between atoms: C_8  and  C_9
REMARK    3  A    between atoms: C_9  and  C_10
REMARK    4  A    between atoms: C_10  and  C_11
REMARK                            x       y       z     vdW  Elec       q    Type
REMARK                         _______ _______ _______ _____ _____    ______ ____
ROOT
ATOM      1  C   UNL     1       0.538   3.014  18.930  0.00  0.00    +0.000 C 
ATOM      2  C   UNL     1       2.048   3.056  19.126  0.00  0.00    +0.000 C 
ATOM      3  C   UNL     1       2.515   4.471  19.501  0.00  0.00    +0.000 C 
ATOM      4  C   UNL     1       4.035   4.542  19.636  0.00  0.00    +0.000 C 
ATOM      5  N   UNL     1       4.643   4.026  18.426  0.00  0.00    +0.000 N 
ATOM      6  C   UNL     1       5.536   4.783  17.704  0.00  0.00    +0.000 A 
ATOM      7  C   UNL     1       6.323   5.715  18.379  0.00  0.00    +0.000 A 
ATOM      8  C   UNL     1       7.208   6.486  17.650  0.00  0.00    +0.000 A 
ATOM      9  N   UNL     1       7.315   6.358  16.327  0.00  0.00    +0.000 NA
ATOM     10  C   UNL     1       6.518   5.441  15.755  0.00  0.00    +0.000 A 
ATOM     11  N   UNL     1       5.642   4.629  16.381  0.00  0.00    +0.000 NA
ATOM     12  C   UNL     1       4.286   2.682  17.991  0.00  0.00    +0.000 C 
ATOM     13  C   UNL     1       2.770   2.568  17.858  0.00  0.00    +0.000 C 
ENDROOT
BRANCH   8  14
ATOM     14  C   UNL     1       8.118   7.467  18.349  0.00  0.00    +0.000 C 
BRANCH  14  15
ATOM     15  C   UNL     1       8.228   8.802  17.595  0.00  0.00    +0.000 C 
BRANCH  15  16
ATOM     16  C   UNL     1       8.388  10.009  18.519  0.00  0.00    +0.000 C 
ATOM     17  C   UNL     1       9.109  11.160  17.840  0.00  0.00    +0.000 C 
ATOM     18  C   UNL     1       9.596  11.989  19.010  0.00  0.00    +0.000 C 
ATOM     19  C   UNL     1       9.831  10.976  20.121  0.00  0.00    +0.000 C 
ATOM     20  N   UNL     1       9.277   9.704  19.648  0.00  0.00    +0.000 NA
ATOM     21  H   UNL     1       8.781   9.221  20.395  0.00  0.00    +0.000 HD
ENDBRANCH  15  16
ENDBRANCH  14  15
ENDBRANCH   8  14
TORSDOF 3
ENDMDL
MODEL 6
REMARK VINA RESULT:      -7.1      3.090      5.295
REMARK  Name = 
REMARK  4 active torsions:
REMARK  status: ('A' for Active; 'I' for Inactive)
REMARK    1  A    between atoms: C_1  and  C_2
REMARK    2  A    between atoms: C_8  and  C_9
REMARK    3  A    between atoms: C_9  and  C_10
REMARK    4  A    between atoms: C_10  and  C_11
REMARK                            x       y       z     vdW  Elec       q    Type
REMARK                         _______ _______ _______ _____ _____    ______ ____
ROOT
ATOM      1  C   UNL     1      -0.212  10.725  18.648  0.00  0.00    +0.000 C 
ATOM      2  C   UNL     1       0.952   9.862  19.120  0.00  0.00    +0.000 C 
ATOM      3  C   UNL     1       1.373   8.864  18.031  0.00  0.00    +0.000 C 
ATOM      4  C   UNL     1       2.495   7.948  18.515  0.00  0.00    +0.000 C 
ATOM      5  N   UNL     1       2.094   7.322  19.758  0.00  0.00    +0.000 N 
ATOM      6  C   UNL     1       2.088   5.953  19.894  0.00  0.00    +0.000 A 
ATOM      7  C   UNL     1       3.003   5.204  19.154  0.00  0.00    +0.000 A 
ATOM      8  C   UNL     1       2.985   3.828  19.277  0.00  0.00    +0.000 A 
ATOM      9  N   UNL     1       2.116   3.213  20.080  0.00  0.00    +0.000 NA
ATOM     10  C   UNL     1       1.268   4.007  20.753  0.00  0.00    +0.000 A 
ATOM     11  N   UNL     1       1.221   5.355  20.715  0.00  0.00    +0.000 NA
ATOM     12  C   UNL     1       1.695   8.179  20.867  0.00  0.00    +0.000 C 
ATOM     13  C   UNL     1       0.582   9.121  20.417  0.00  0.00    +0.000 C 
ENDROOT
BRANCH   8  14
ATOM     14  C   UNL     1       3.994   2.984  18.537  0.00  0.00    +0.000 C 
BRANCH  14  15
ATOM     15  C   UNL     1       4.040   3.310  17.036  0.00  0.00    +0.000 C 
BRANCH  15  16
ATOM     16  C   UNL     1       5.141   4.301  16.663  0.00  0.00    +0.000 C 
ATOM     17  C   UNL     1       5.773   3.981  15.320  0.00  0.00    +0.000 C 
ATOM     18  C   UNL     1       7.096   4.712  15.387  0.00  0.00    +0.000 C 
ATOM     19  C   UNL     1       7.462   4.701  16.864  0.00  0.00    +0.000 C 
ATOM     20  N   UNL     1       6.285   4.199  17.579  0.00  0.00    +0.000 NA
ATOM     21  H   UNL     1       6.127   4.725  18.437  0.00  0.00    +0.000 HD
ENDBRANCH  15  16
ENDBRANCH  14  15
ENDBRANCH   8  14
TORSDOF 3
ENDMDL
MODEL 7
REMARK VINA RESULT:      -7.0      0.800      1.071
REMARK  Name = 
REMARK  4 active torsions:
REMARK  status: ('A' for Active; 'I' for Inactive)
REMARK    1  A    between atoms: C_1  and  C_2
REMARK    2  A    between atoms: C_8  and  C_9
REMARK    3  A    between atoms: C_9  and  C_10
REMARK    4  A    between atoms: C_10  and  C_11
REMARK                            x       y       z     vdW  Elec       q    Type
REMARK                         _______ _______ _______ _____ _____    ______ ____
ROOT
ATOM      1  C   UNL     1       0.971   3.040  20.856  0.00  0.00    +0.000 C 
ATOM      2  C   UNL     1       1.630   4.096  19.978  0.00  0.00    +0.000 C 
ATOM      3  C   UNL     1       1.895   3.551  18.567  0.00  0.00    +0.000 C 
ATOM      4  C   UNL     1       2.616   4.578  17.695  0.00  0.00    +0.000 C 
ATOM      5  N   UNL     1       3.809   5.029  18.383  0.00  0.00    +0.000 N 
ATOM      6  C   UNL     1       5.047   4.936  17.790  0.00  0.00    +0.000 A 
ATOM      7  C   UNL     1       5.131   5.017  16.400  0.00  0.00    +0.000 A 
ATOM      8  C   UNL     1       6.372   4.907  15.804  0.00  0.00    +0.000 A 
ATOM      9  N   UNL     1       7.477   4.721  16.527  0.00  0.00    +0.000 NA
ATOM     10  C   UNL     1       7.308   4.650  17.857  0.00  0.00    +0.000 A 
ATOM     11  N   UNL     1       6.145   4.766  18.532  0.00  0.00    +0.000 NA
ATOM     12  C   UNL     1       3.668   5.585  19.722  0.00  0.00    +0.000 C 
ATOM     13  C   UNL     1       2.938   4.591  20.620  0.00  0.00    +0.000 C 
ENDROOT
BRANCH   8  14
ATOM     14  C   UNL     1       6.513   5.046  14.307  0.00  0.00    +0.000 C 
BRANCH  14  15
ATOM     15  C   UNL     1       5.557   4.118  13.541  0.00  0.00    +0.000 C 
BRANCH  15  16
ATOM     16  C   UNL     1       6.261   2.934  12.878  0.00  0.00    +0.000 C 
ATOM     17  C   UNL     1       7.327   3.378  11.893  0.00  0.00    +0.000 C 
ATOM     18  C   UNL     1       7.514   2.152  11.025  0.00  0.00    +0.000 C 
ATOM     19  C   UNL     1       6.150   1.478  11.020  0.00  0.00    +0.000 C 
ATOM     20  N   UNL     1       5.339   2.176  12.022  0.00  0.00    +0.000 NA
ATOM     21  H   UNL     1       4.780   1.518  12.563  0.00  0.00    +0.000 HD
ENDBRANCH  15  16
ENDBRANCH  14  15
ENDBRANCH   8  14
TORSDOF 3
ENDMDL
MODEL 8
REMARK VINA RESULT:      -7.0      3.845      6.248
REMARK  Name = 
REMARK  4 active torsions:
REMARK  status: ('A' for Active; 'I' for Inactive)
REMARK    1  A    between atoms: C_1  and  C_2
REMARK    2  A    between atoms: C_8  and  C_9
REMARK    3  A    between atoms: C_9  and  C_10
REMARK    4  A    between atoms: C_10  and  C_11
REMARK                            x       y       z     vdW  Elec       q    Type
REMARK                         _______ _______ _______ _____ _____    ______ ____
ROOT
ATOM      1  C   UNL     1       0.731   2.713  18.710  0.00  0.00    +0.000 C 
ATOM      2  C   UNL     1       2.028   3.345  19.201  0.00  0.00    +0.000 C 
ATOM      3  C   UNL     1       2.139   4.804  18.736  0.00  0.00    +0.000 C 
ATOM      4  C   UNL     1       3.465   5.430  19.165  0.00  0.00    +0.000 C 
ATOM      5  N   UNL     1       4.554   4.587  18.715  0.00  0.00    +0.000 N 
ATOM      6  C   UNL     1       5.562   5.092  17.927  0.00  0.00    +0.000 A 
ATOM      7  C   UNL     1       5.906   6.437  18.061  0.00  0.00    +0.000 A 
ATOM      8  C   UNL     1       6.907   6.947  17.257  0.00  0.00    +0.000 A 
ATOM      9  N   UNL     1       7.538   6.185  16.363  0.00  0.00    +0.000 NA
ATOM     10  C   UNL     1       7.143   4.903  16.295  0.00  0.00    +0.000 A 
ATOM     11  N   UNL     1       6.194   4.309  17.048  0.00  0.00    +0.000 NA
ATOM     12  C   UNL     1       4.558   3.187  19.119  0.00  0.00    +0.000 C 
ATOM     13  C   UNL     1       3.241   2.530  18.718  0.00  0.00    +0.000 C 
ENDROOT
BRANCH   8  14
ATOM     14  C   UNL     1       7.348   8.383  17.409  0.00  0.00    +0.000 C 
BRANCH  14  15
ATOM     15  C   UNL     1       8.410   8.555  18.506  0.00  0.00    +0.000 C 
BRANCH  15  16
ATOM     16  C   UNL     1       9.194   9.862  18.394  0.00  0.00    +0.000 C 
ATOM     17  C   UNL     1       9.467  10.487  19.750  0.00  0.00    +0.000 C 
ATOM     18  C   UNL     1       9.764  11.930  19.402  0.00  0.00    +0.000 C 
ATOM     19  C   UNL     1       8.934  12.199  18.156  0.00  0.00    +0.000 C 
ATOM     20  N   UNL     1       8.404  10.903  17.723  0.00  0.00    +0.000 NA
ATOM     21  H   UNL     1       8.446  10.811  16.709  0.00  0.00    +0.000 HD
ENDBRANCH  15  16
ENDBRANCH  14  15
ENDBRANCH   8  14
TORSDOF 3
ENDMDL
MODEL 9
REMARK VINA RESULT:      -6.8      2.767      4.215
REMARK  Name = 
REMARK  4 active torsions:
REMARK  status: ('A' for Active; 'I' for Inactive)
REMARK    1  A    between atoms: C_1  and  C_2
REMARK    2  A    between atoms: C_8  and  C_9
REMARK    3  A    between atoms: C_9  and  C_10
REMARK    4  A    between atoms: C_10  and  C_11
REMARK                            x       y       z     vdW  Elec       q    Type
REMARK                         _______ _______ _______ _____ _____    ______ ____
ROOT
ATOM      1  C   UNL     1       1.617   2.296  22.254  0.00  0.00    +0.000 C 
ATOM      2  C   UNL     1       1.610   2.567  20.755  0.00  0.00    +0.000 C 
ATOM      3  C   UNL     1       3.019   2.417  20.162  0.00  0.00    +0.000 C 
ATOM      4  C   UNL     1       3.039   2.751  18.672  0.00  0.00    +0.000 C 
ATOM      5  N   UNL     1       2.456   4.063  18.472  0.00  0.00    +0.000 N 
ATOM      6  C   UNL     1       3.151   5.056  17.823  0.00  0.00    +0.000 A 
ATOM      7  C   UNL     1       4.078   4.695  16.845  0.00  0.00    +0.000 A 
ATOM      8  C   UNL     1       4.788   5.692  16.205  0.00  0.00    +0.000 A 
ATOM      9  N   UNL     1       4.607   6.978  16.508  0.00  0.00    +0.000 NA
ATOM     10  C   UNL     1       3.700   7.240  17.463  0.00  0.00    +0.000 A 
ATOM     11  N   UNL     1       2.945   6.341  18.127  0.00  0.00    +0.000 NA
ATOM     12  C   UNL     1       1.111   4.307  18.977  0.00  0.00    +0.000 C 
ATOM     13  C   UNL     1       1.048   3.970  20.463  0.00  0.00    +0.000 C 
ENDROOT
BRANCH   8  14
ATOM     14  C   UNL     1       5.760   5.348  15.102  0.00  0.00    +0.000 C 
BRANCH  14  15
ATOM     15  C   UNL     1       6.948   4.515  15.609  0.00  0.00    +0.000 C 
BRANCH  15  16
ATOM     16  C   UNL     1       7.770   5.222  16.686  0.00  0.00    +0.000 C 
ATOM     17  C   UNL     1       7.328   4.843  18.088  0.00  0.00    +0.000 C 
ATOM     18  C   UNL     1       7.875   5.975  18.931  0.00  0.00    +0.000 C 
ATOM     19  C   UNL     1       7.857   7.181  18.005  0.00  0.00    +0.000 C 
ATOM     20  N   UNL     1       7.540   6.673  16.667  0.00  0.00    +0.000 NA
ATOM     21  H   UNL     1       8.107   7.133  15.957  0.00  0.00    +0.000 HD
ENDBRANCH  15  16
ENDBRANCH  14  15
ENDBRANCH   8  14
TORSDOF 3
ENDMDL
