MODEL 1
REMARK VINA RESULT:      -7.2      0.000      0.000
REMARK  Name = 
REMARK  1 active torsions:
REMARK  status: ('A' for Active; 'I' for Inactive)
REMARK    1  A    between atoms: C_7  and  N_8
REMARK                            x       y       z     vdW  Elec       q    Type
REMARK                         _______ _______ _______ _____ _____    ______ ____
ROOT
ATOM      1  O   UNL     1       7.515   5.197  14.371  0.00  0.00    +0.000 OA
ATOM      2  C   UNL     1       7.001   4.896  15.441  0.00  0.00    +0.000 C 
ATOM      3  N   UNL     1       7.680   4.993  16.612  0.00  0.00    +0.000 N 
ATOM      4  C   UNL     1       7.185   4.758  17.866  0.00  0.00    +0.000 C 
ATOM      5  O   UNL     1       7.885   4.930  18.857  0.00  0.00    +0.000 OA
ATOM      6  C   UNL     1       5.768   4.307  17.920  0.00  0.00    +0.000 C 
ATOM      7  C   UNL     1       5.235   4.118  19.140  0.00  0.00    +0.000 C 
ATOM      8  C   UNL     1       5.005   4.195  16.652  0.00  0.00    +0.000 C 
ATOM      9  O   UNL     1       3.817   3.917  16.561  0.00  0.00    +0.000 OA
ATOM     10  N   UNL     1       5.715   4.465  15.515  0.00  0.00    +0.000 N 
ATOM     11  H   UNL     1       8.631   5.325  16.556  0.00  0.00    +0.000 HD
ATOM     12  H   UNL     1       5.198   4.429  14.649  0.00  0.00    +0.000 HD
ENDROOT
BRANCH   7  13
ATOM     13  N   UNL     1       3.968   3.747  19.559  0.00  0.00    +0.000 N 
ATOM     14  C   UNL     1       3.488   2.358  19.696  0.00  0.00    +0.000 C 
ATOM     15  C   UNL     1       2.146   2.172  18.965  0.00  0.00    +0.000 C 
ATOM     16  O   UNL     1       1.172   3.148  19.386  0.00  0.00    +0.000 OA
ATOM     17  C   UNL     1       1.672   4.475  19.138  0.00  0.00    +0.000 C 
ATOM     18  C   UNL     1       2.952   4.739  19.949  0.00  0.00    +0.000 C 
ENDBRANCH   7  13
TORSDOF 1
ENDMDL
MODEL 2
REMARK VINA RESULT:      -7.1      1.928      2.634
REMARK  Name = 
REMARK  1 active torsions:
REMARK  status: ('A' for Active; 'I' for Inactive)
REMARK    1  A    between atoms: C_7  and  N_8
REMARK                            x       y       z     vdW  Elec       q    Type
REMARK                         _______ _______ _______ _____ _____    ______ ____
ROOT
ATOM      1  O   UNL     1       7.928   4.473  16.635  0.00  0.00    +0.000 OA
ATOM      2  C   UNL     1       6.824   4.693  17.118  0.00  0.00    +0.000 C 
ATOM      3  N   UNL     1       6.067   5.747  16.722  0.00  0.00    +0.000 N 
ATOM      4  C   UNL     1       4.797   6.043  17.135  0.00  0.00    +0.000 C 
ATOM      5  O   UNL     1       4.193   7.000  16.663  0.00  0.00    +0.000 OA
ATOM      6  C   UNL     1       4.228   5.126  18.160  0.00  0.00    +0.000 C 
ATOM      7  C   UNL     1       2.961   5.359  18.549  0.00  0.00    +0.000 C 
ATOM      8  C   UNL     1       5.037   3.966  18.609  0.00  0.00    +0.000 C 
ATOM      9  O   UNL     1       4.660   3.095  19.379  0.00  0.00    +0.000 OA
ATOM     10  N   UNL     1       6.289   3.882  18.068  0.00  0.00    +0.000 N 
ATOM     11  H   UNL     1       6.461   6.341  16.007  0.00  0.00    +0.000 HD
ATOM     12  H   UNL     1       6.836   3.076  18.337  0.00  0.00    +0.000 HD
ENDROOT
BRANCH   7  13
ATOM     13  N   UNL     1       2.121   4.703  19.432  0.00  0.00    +0.000 N 
ATOM     14  C   UNL     1       2.034   4.965  20.883  0.00  0.00    +0.000 C 
ATOM     15  C   UNL     1       2.155   3.653  21.679  0.00  0.00    +0.000 C 
ATOM     16  O   UNL     1       1.205   2.668  21.228  0.00  0.00    +0.000 OA
ATOM     17  C   UNL     1       1.407   2.398  19.829  0.00  0.00    +0.000 C 
ATOM     18  C   UNL     1       1.177   3.664  18.987  0.00  0.00    +0.000 C 
ENDBRANCH   7  13
TORSDOF 1
ENDMDL
MODEL 3
REMARK VINA RESULT:      -7.1      0.860      1.498
REMARK  Name = 
REMARK  1 active torsions:
REMARK  status: ('A' for Active; 'I' for Inactive)
REMARK    1  A    between atoms: C_7  and  N_8
REMARK                            x       y       z     vdW  Elec       q    Type
REMARK                         _______ _______ _______ _____ _____    ______ ____
ROOT
ATOM      1  O   UNL     1       7.676   5.139  14.717  0.00  0.00    +0.000 OA
ATOM      2  C   UNL     1       7.056   4.898  15.746  0.00  0.00    +0.000 C 
ATOM      3  N   UNL     1       7.601   5.100  16.972  0.00  0.00    +0.000 N 
ATOM      4  C   UNL     1       6.978   4.939  18.180  0.00  0.00    +0.000 C 
ATOM      5  O   UNL     1       7.562   5.203  19.225  0.00  0.00    +0.000 OA
ATOM      6  C   UNL     1       5.576   4.447  18.115  0.00  0.00    +0.000 C 
ATOM      7  C   UNL     1       4.918   4.327  19.283  0.00  0.00    +0.000 C 
ATOM      8  C   UNL     1       4.958   4.219  16.785  0.00  0.00    +0.000 C 
ATOM      9  O   UNL     1       3.795   3.897  16.589  0.00  0.00    +0.000 OA
ATOM     10  N   UNL     1       5.781   4.431  15.714  0.00  0.00    +0.000 N 
ATOM     11  H   UNL     1       8.544   5.459  16.993  0.00  0.00    +0.000 HD
ATOM     12  H   UNL     1       5.362   4.316  14.802  0.00  0.00    +0.000 HD
ENDROOT
BRANCH   7  13
ATOM     13  N   UNL     1       3.623   3.945  19.590  0.00  0.00    +0.000 N 
ATOM     14  C   UNL     1       2.427   4.802  19.461  0.00  0.00    +0.000 C 
ATOM     15  C   UNL     1       1.610   4.792  20.765  0.00  0.00    +0.000 C 
ATOM     16  O   UNL     1       1.297   3.450  21.187  0.00  0.00    +0.000 OA
ATOM     17  C   UNL     1       2.512   2.702  21.378  0.00  0.00    +0.000 C 
ATOM     18  C   UNL     1       3.299   2.589  20.063  0.00  0.00    +0.000 C 
ENDBRANCH   7  13
TORSDOF 1
ENDMDL
MODEL 4
REMARK VINA RESULT:      -7.0      1.867      2.739
REMARK  Name = 
REMARK  1 active torsions:
REMARK  status: ('A' for Active; 'I' for Inactive)
REMARK    1  A    between atoms: C_7  and  N_8
REMARK                            x       y       z     vdW  Elec       q    Type
REMARK                         _______ _______ _______ _____ _____    ______ ____
ROOT
ATOM      1  O   UNL     1       8.707   4.120  17.500  0.00  0.00    +0.000 OA
ATOM      2  C   UNL     1       7.562   4.548  17.571  0.00  0.00    +0.000 C 
ATOM      3  N   UNL     1       7.094   5.483  16.706  0.00  0.00    +0.000 N 
ATOM      4  C   UNL     1       5.818   5.974  16.646  0.00  0.00    +0.000 C 
ATOM      5  O   UNL     1       5.500   6.784  15.781  0.00  0.00    +0.000 OA
ATOM      6  C   UNL     1       4.880   5.448  17.674  0.00  0.00    +0.000 C 
ATOM      7  C   UNL     1       3.605   5.872  17.610  0.00  0.00    +0.000 C 
ATOM      8  C   UNL     1       5.370   4.424  18.631  0.00  0.00    +0.000 C 
ATOM      9  O   UNL     1       4.686   3.851  19.467  0.00  0.00    +0.000 OA
ATOM     10  N   UNL     1       6.692   4.097  18.512  0.00  0.00    +0.000 N 
ATOM     11  H   UNL     1       7.738   5.807  16.000  0.00  0.00    +0.000 HD
ATOM     12  H   UNL     1       7.028   3.375  19.132  0.00  0.00    +0.000 HD
ENDROOT
BRANCH   7  13
ATOM     13  N   UNL     1       2.482   5.569  18.360  0.00  0.00    +0.000 N 
ATOM     14  C   UNL     1       2.106   6.215  19.633  0.00  0.00    +0.000 C 
ATOM     15  C   UNL     1       1.810   5.158  20.712  0.00  0.00    +0.000 C 
ATOM     16  O   UNL     1       0.835   4.197  20.261  0.00  0.00    +0.000 OA
ATOM     17  C   UNL     1       1.309   3.544  19.069  0.00  0.00    +0.000 C 
ATOM     18  C   UNL     1       1.503   4.557  17.929  0.00  0.00    +0.000 C 
ENDBRANCH   7  13
TORSDOF 1
ENDMDL
MODEL 5
REMARK VINA RESULT:      -7.0      2.002      2.083
REMARK  Name = 
REMARK  1 active torsions:
REMARK  status: ('A' for Active; 'I' for Inactive)
REMARK    1  A    between atoms: C_7  and  N_8
REMARK                            x       y       z     vdW  Elec       q    Type
REMARK                         _______ _______ _______ _____ _____    ______ ____
ROOT
ATOM      1  O   UNL     1       8.038   8.370  17.063  0.00  0.00    +0.000 OA
ATOM      2  C   UNL     1       7.420   7.418  17.520  0.00  0.00    +0.000 C 
ATOM      3  N   UNL     1       7.863   6.731  18.603  0.00  0.00    +0.000 N 
ATOM      4  C   UNL     1       7.220   5.706  19.242  0.00  0.00    +0.000 C 
ATOM      5  O   UNL     1       7.700   5.196  20.248  0.00  0.00    +0.000 OA
ATOM      6  C   UNL     1       5.924   5.290  18.639  0.00  0.00    +0.000 C 
ATOM      7  C   UNL     1       5.241   4.320  19.273  0.00  0.00    +0.000 C 
ATOM      8  C   UNL     1       5.418   6.026  17.454  0.00  0.00    +0.000 C 
ATOM      9  O   UNL     1       4.337   5.843  16.914  0.00  0.00    +0.000 OA
ATOM     10  N   UNL     1       6.244   7.006  16.977  0.00  0.00    +0.000 N 
ATOM     11  H   UNL     1       8.730   7.046  19.013  0.00  0.00    +0.000 HD
ATOM     12  H   UNL     1       5.895   7.540  16.194  0.00  0.00    +0.000 HD
ENDROOT
BRANCH   7  13
ATOM     13  N   UNL     1       4.016   3.726  19.023  0.00  0.00    +0.000 N 
ATOM     14  C   UNL     1       3.780   2.624  18.069  0.00  0.00    +0.000 C 
ATOM     15  C   UNL     1       2.614   2.964  17.124  0.00  0.00    +0.000 C 
ATOM     16  O   UNL     1       1.429   3.338  17.855  0.00  0.00    +0.000 OA
ATOM     17  C   UNL     1       1.711   4.472  18.695  0.00  0.00    +0.000 C 
ATOM     18  C   UNL     1       2.791   4.130  19.734  0.00  0.00    +0.000 C 
ENDBRANCH   7  13
TORSDOF 1
ENDMDL
MODEL 6
REMARK VINA RESULT:      -7.0      1.822      5.661
REMARK  Name = 
REMARK  1 active torsions:
REMARK  status: ('A' for Active; 'I' for Inactive)
REMARK    1  A    between atoms: C_7  and  N_8
REMARK                            x       y       z     vdW  Elec       q    Type
REMARK                         _______ _______ _______ _____ _____    ______ ____
ROOT
ATOM      1  O   UNL     1       2.364   2.389  21.919  0.00  0.00    +0.000 OA
ATOM      2  C   UNL     1       2.676   2.790  20.804  0.00  0.00    +0.000 C 
ATOM      3  N   UNL     1       1.765   2.906  19.806  0.00  0.00    +0.000 N 
ATOM      4  C   UNL     1       1.984   3.411  18.553  0.00  0.00    +0.000 C 
ATOM      5  O   UNL     1       1.063   3.513  17.750  0.00  0.00    +0.000 OA
ATOM      6  C   UNL     1       3.384   3.826  18.267  0.00  0.00    +0.000 C 
ATOM      7  C   UNL     1       3.622   4.376  17.062  0.00  0.00    +0.000 C 
ATOM      8  C   UNL     1       4.398   3.709  19.344  0.00  0.00    +0.000 C 
ATOM      9  O   UNL     1       5.558   4.089  19.270  0.00  0.00    +0.000 OA
ATOM     10  N   UNL     1       3.951   3.158  20.512  0.00  0.00    +0.000 N 
ATOM     11  H   UNL     1       0.816   2.644  20.028  0.00  0.00    +0.000 HD
ATOM     12  H   UNL     1       4.621   3.108  21.266  0.00  0.00    +0.000 HD
ENDROOT
BRANCH   7  13
ATOM     13  N   UNL     1       4.767   4.897  16.485  0.00  0.00    +0.000 N 
ATOM     14  C   UNL     1       5.832   4.107  15.835  0.00  0.00    +0.000 C 
ATOM     15  C   UNL     1       7.213   4.495  16.391  0.00  0.00    +0.000 C 
ATOM     16  O   UNL     1       7.439   5.916  16.309  0.00  0.00    +0.000 OA
ATOM     17  C   UNL     1       6.415   6.617  17.039  0.00  0.00    +0.000 C 
ATOM     18  C   UNL     1       5.028   6.346  16.435  0.00  0.00    +0.000 C 
ENDBRANCH   7  13
TORSDOF 1
ENDMDL
MODEL 7
REMARK VINA RESULT:      -7.0      2.002      2.401
REMARK  Name = 
REMARK  1 active torsions:
REMARK  status: ('A' for Active; 'I' for Inactive)
REMARK    1  A    between atoms: C_7  and  N_8
REMARK                            x       y       z     vdW  Elec       q    Type
REMARK                         _______ _______ _______ _____ _____    ______ ____
ROOT
ATOM      1  O   UNL     1       8.186   8.477  17.155  0.00  0.00    +0.000 OA
ATOM      2  C   UNL     1       7.541   7.521  17.566  0.00  0.00    +0.000 C 
ATOM      3  N   UNL     1       7.952   6.786  18.630  0.00  0.00    +0.000 N 
ATOM      4  C   UNL     1       7.277   5.750  19.218  0.00  0.00    +0.000 C 
ATOM      5  O   UNL     1       7.729   5.194  20.212  0.00  0.00    +0.000 OA
ATOM      6  C   UNL     1       5.985   5.383  18.578  0.00  0.00    +0.000 C 
ATOM      7  C   UNL     1       5.272   4.404  19.163  0.00  0.00    +0.000 C 
ATOM      8  C   UNL     1       5.515   6.173  17.412  0.00  0.00    +0.000 C 
ATOM      9  O   UNL     1       4.440   6.031  16.847  0.00  0.00    +0.000 OA
ATOM     10  N   UNL     1       6.367   7.153  16.988  0.00  0.00    +0.000 N 
ATOM     11  H   UNL     1       8.817   7.068  19.066  0.00  0.00    +0.000 HD
ATOM     12  H   UNL     1       6.042   7.723  16.219  0.00  0.00    +0.000 HD
ENDROOT
BRANCH   7  13
ATOM     13  N   UNL     1       4.041   3.844  18.870  0.00  0.00    +0.000 N 
ATOM     14  C   UNL     1       2.762   4.209  19.512  0.00  0.00    +0.000 C 
ATOM     15  C   UNL     1       2.027   2.953  20.012  0.00  0.00    +0.000 C 
ATOM     16  O   UNL     1       1.871   1.975  18.965  0.00  0.00    +0.000 OA
ATOM     17  C   UNL     1       3.161   1.601  18.449  0.00  0.00    +0.000 C 
ATOM     18  C   UNL     1       3.877   2.812  17.831  0.00  0.00    +0.000 C 
ENDBRANCH   7  13
TORSDOF 1
ENDMDL
MODEL 8
REMARK VINA RESULT:      -7.0      2.047      5.640
REMARK  Name = 
REMARK  1 active torsions:
REMARK  status: ('A' for Active; 'I' for Inactive)
REMARK    1  A    between atoms: C_7  and  N_8
REMARK                            x       y       z     vdW  Elec       q    Type
REMARK                         _______ _______ _______ _____ _____    ______ ____
ROOT
ATOM      1  O   UNL     1       1.755   2.655  22.054  0.00  0.00    +0.000 OA
ATOM      2  C   UNL     1       2.311   3.349  21.212  0.00  0.00    +0.000 C 
ATOM      3  N   UNL     1       1.932   4.631  20.979  0.00  0.00    +0.000 N 
ATOM      4  C   UNL     1       2.528   5.517  20.122  0.00  0.00    +0.000 C 
ATOM      5  O   UNL     1       2.123   6.671  20.035  0.00  0.00    +0.000 OA
ATOM      6  C   UNL     1       3.677   4.980  19.344  0.00  0.00    +0.000 C 
ATOM      7  C   UNL     1       4.316   5.840  18.530  0.00  0.00    +0.000 C 
ATOM      8  C   UNL     1       4.109   3.580  19.582  0.00  0.00    +0.000 C 
ATOM      9  O   UNL     1       5.083   3.043  19.074  0.00  0.00    +0.000 OA
ATOM     10  N   UNL     1       3.351   2.877  20.475  0.00  0.00    +0.000 N 
ATOM     11  H   UNL     1       1.169   4.984  21.536  0.00  0.00    +0.000 HD
ATOM     12  H   UNL     1       3.657   1.936  20.675  0.00  0.00    +0.000 HD
ENDROOT
BRANCH   7  13
ATOM     13  N   UNL     1       5.421   5.700  17.708  0.00  0.00    +0.000 N 
ATOM     14  C   UNL     1       5.384   5.269  16.296  0.00  0.00    +0.000 C 
ATOM     15  C   UNL     1       6.381   4.123  16.052  0.00  0.00    +0.000 C 
ATOM     16  O   UNL     1       7.707   4.466  16.500  0.00  0.00    +0.000 OA
ATOM     17  C   UNL     1       7.681   4.787  17.903  0.00  0.00    +0.000 C 
ATOM     18  C   UNL     1       6.785   6.007  18.170  0.00  0.00    +0.000 C 
ENDBRANCH   7  13
TORSDOF 1
ENDMDL
MODEL 9
REMARK VINA RESULT:      -6.9      1.795      5.906
REMARK  Name = 
REMARK  1 active torsions:
REMARK  status: ('A' for Active; 'I' for Inactive)
REMARK    1  A    between atoms: C_7  and  N_8
REMARK                            x       y       z     vdW  Elec       q    Type
REMARK                         _______ _______ _______ _____ _____    ______ ____
ROOT
ATOM      1  O   UNL     1       1.270   2.476  21.538  0.00  0.00    +0.000 OA
ATOM      2  C   UNL     1       1.883   2.837  20.542  0.00  0.00    +0.000 C 
ATOM      3  N   UNL     1       1.245   3.318  19.445  0.00  0.00    +0.000 N 
ATOM      4  C   UNL     1       1.829   3.818  18.312  0.00  0.00    +0.000 C 
ATOM      5  O   UNL     1       1.143   4.273  17.404  0.00  0.00    +0.000 OA
ATOM      6  C   UNL     1       3.316   3.774  18.288  0.00  0.00    +0.000 C 
ATOM      7  C   UNL     1       3.923   4.305  17.211  0.00  0.00    +0.000 C 
ATOM      8  C   UNL     1       4.037   3.253  19.476  0.00  0.00    +0.000 C 
ATOM      9  O   UNL     1       5.251   3.238  19.620  0.00  0.00    +0.000 OA
ATOM     10  N   UNL     1       3.240   2.791  20.487  0.00  0.00    +0.000 N 
ATOM     11  H   UNL     1       0.238   3.363  19.493  0.00  0.00    +0.000 HD
ATOM     12  H   UNL     1       3.717   2.468  21.317  0.00  0.00    +0.000 HD
ENDROOT
BRANCH   7  13
ATOM     13  N   UNL     1       5.257   4.468  16.876  0.00  0.00    +0.000 N 
ATOM     14  C   UNL     1       6.209   5.358  17.571  0.00  0.00    +0.000 C 
ATOM     15  C   UNL     1       6.942   6.260  16.563  0.00  0.00    +0.000 C 
ATOM     16  O   UNL     1       7.557   5.491  15.510  0.00  0.00    +0.000 OA
ATOM     17  C   UNL     1       6.557   4.719  14.821  0.00  0.00    +0.000 C 
ATOM     18  C   UNL     1       5.883   3.719  15.774  0.00  0.00    +0.000 C 
ENDBRANCH   7  13
TORSDOF 1
ENDMDL
