MODEL 1
REMARK VINA RESULT:      -7.8      0.000      0.000
REMARK  Name = 
REMARK  10 active torsions:
REMARK  status: ('A' for Active; 'I' for Inactive)
REMARK    1  A    between atoms: C_1  and  C_2
REMARK    2  A    between atoms: C_2  and  N_3
REMARK    3  A    between atoms: C_4  and  C_6
REMARK    4  A    between atoms: C_8  and  S_9
REMARK    5  A    between atoms: S_9  and  N_12
REMARK    6  A    between atoms: N_12  and  C_13
REMARK    7  A    between atoms: C_13  and  C_14
REMARK    8  A    between atoms: C_17  and  C_18
REMARK    9  A    between atoms: C_18  and  O_20
REMARK   10  A    between atoms: C_23  and  C_24
REMARK                            x       y       z     vdW  Elec       q    Type
REMARK                         _______ _______ _______ _____ _____    ______ ____
ROOT
ATOM      1  S   UNL     1       4.101   3.126  18.615  0.00  0.00    +0.000 S 
ATOM      2  O   UNL     1       3.669   1.987  17.840  0.00  0.00    +0.000 OA
ATOM      3  O   UNL     1       4.840   3.001  19.850  0.00  0.00    +0.000 OA
ENDROOT
BRANCH   1   6
ATOM      4  C   UNL     1       6.250   4.554  15.553  0.00  0.00    +0.000 A 
ATOM      5  C   UNL     1       5.312   3.745  16.170  0.00  0.00    +0.000 A 
ATOM      6  C   UNL     1       5.189   4.007  17.573  0.00  0.00    +0.000 A 
ATOM      7  C   UNL     1       6.059   4.997  17.994  0.00  0.00    +0.000 A 
ATOM      8  C   UNL     1       6.342   5.535  19.359  0.00  0.00    +0.000 C 
ATOM      9  S   UNL     1       6.951   5.640  16.675  0.00  0.00    +0.000 S 
BRANCH   4  11
ATOM     10  N   UNL     1       6.074   3.531  13.381  0.00  0.00    +0.000 N 
ATOM     11  C   UNL     1       6.661   4.516  14.151  0.00  0.00    +0.000 C 
ATOM     12  O   UNL     1       7.479   5.300  13.678  0.00  0.00    +0.000 OA
ATOM     13  H   UNL     1       5.512   2.835  13.854  0.00  0.00    +0.000 HD
BRANCH  10  15
ATOM     14  C   UNL     1       6.258   1.937  11.532  0.00  0.00    +0.000 C 
ATOM     15  C   UNL     1       6.353   3.386  11.970  0.00  0.00    +0.000 C 
ENDBRANCH  10  15
ENDBRANCH   4  11
ENDBRANCH   1   6
BRANCH   1  16
ATOM     16  N   UNL     1       2.769   4.122  18.917  0.00  0.00    +0.000 NA
ATOM     17  H   UNL     1       1.903   3.590  18.975  0.00  0.00    +0.000 HD
BRANCH  16  18
ATOM     18  C   UNL     1       2.933   5.096  20.004  0.00  0.00    +0.000 C 
BRANCH  18  19
ATOM     19  C   UNL     1       2.422   6.466  19.604  0.00  0.00    +0.000 A 
ATOM     20  C   UNL     1       1.820   7.305  20.551  0.00  0.00    +0.000 A 
ATOM     21  C   UNL     1       1.376   8.580  20.189  0.00  0.00    +0.000 A 
ATOM     22  C   UNL     1       1.529   9.039  18.874  0.00  0.00    +0.000 A 
ATOM     23  C   UNL     1       2.150   8.217  17.926  0.00  0.00    +0.000 A 
ATOM     24  C   UNL     1       2.587   6.936  18.291  0.00  0.00    +0.000 A 
BRANCH  22  25
ATOM     25  C   UNL     1       1.056  10.413  18.562  0.00  0.00    +0.000 C 
ATOM     26  O   UNL     1       1.508  11.404  19.110  0.00  0.00    +0.000 OA
BRANCH  25  27
ATOM     27  O   UNL     1       0.054  10.466  17.660  0.00  0.00    +0.000 OA
ATOM     28  H   UNL     1      -0.598   9.745  17.715  0.00  0.00    +0.000 HD
ENDBRANCH  25  27
ENDBRANCH  22  25
ENDBRANCH  18  19
ENDBRANCH  16  18
ENDBRANCH   1  16
TORSDOF 8
ENDMDL
MODEL 2
REMARK VINA RESULT:      -7.5      1.032      1.257
REMARK  Name = 
REMARK  10 active torsions:
REMARK  status: ('A' for Active; 'I' for Inactive)
REMARK    1  A    between atoms: C_1  and  C_2
REMARK    2  A    between atoms: C_2  and  N_3
REMARK    3  A    between atoms: C_4  and  C_6
REMARK    4  A    between atoms: C_8  and  S_9
REMARK    5  A    between atoms: S_9  and  N_12
REMARK    6  A    between atoms: N_12  and  C_13
REMARK    7  A    between atoms: C_13  and  C_14
REMARK    8  A    between atoms: C_17  and  C_18
REMARK    9  A    between atoms: C_18  and  O_20
REMARK   10  A    between atoms: C_23  and  C_24
REMARK                            x       y       z     vdW  Elec       q    Type
REMARK                         _______ _______ _______ _____ _____    ______ ____
ROOT
ATOM      1  S   UNL     1       4.243   3.309  18.862  0.00  0.00    +0.000 S 
ATOM      2  O   UNL     1       3.497   2.371  18.057  0.00  0.00    +0.000 OA
ATOM      3  O   UNL     1       5.089   2.903  19.959  0.00  0.00    +0.000 OA
ENDROOT
BRANCH   1   6
ATOM      4  C   UNL     1       6.326   4.552  15.676  0.00  0.00    +0.000 A 
ATOM      5  C   UNL     1       5.351   3.835  16.347  0.00  0.00    +0.000 A 
ATOM      6  C   UNL     1       5.348   4.087  17.757  0.00  0.00    +0.000 A 
ATOM      7  C   UNL     1       6.343   4.974  18.128  0.00  0.00    +0.000 A 
ATOM      8  C   UNL     1       6.770   5.458  19.476  0.00  0.00    +0.000 C 
ATOM      9  S   UNL     1       7.209   5.540  16.759  0.00  0.00    +0.000 S 
BRANCH   4  11
ATOM     10  N   UNL     1       6.039   3.466  13.547  0.00  0.00    +0.000 N 
ATOM     11  C   UNL     1       6.639   4.492  14.249  0.00  0.00    +0.000 C 
ATOM     12  O   UNL     1       7.390   5.295  13.700  0.00  0.00    +0.000 OA
ATOM     13  H   UNL     1       5.541   2.761  14.075  0.00  0.00    +0.000 HD
BRANCH  10  15
ATOM     14  C   UNL     1       4.932   2.884  11.442  0.00  0.00    +0.000 C 
ATOM     15  C   UNL     1       6.224   3.294  12.123  0.00  0.00    +0.000 C 
ENDBRANCH  10  15
ENDBRANCH   4  11
ENDBRANCH   1   6
BRANCH   1  16
ATOM     16  N   UNL     1       3.187   4.494  19.443  0.00  0.00    +0.000 NA
ATOM     17  H   UNL     1       3.551   4.948  20.280  0.00  0.00    +0.000 HD
BRANCH  16  18
ATOM     18  C   UNL     1       2.673   5.437  18.441  0.00  0.00    +0.000 C 
BRANCH  18  19
ATOM     19  C   UNL     1       2.148   6.703  19.089  0.00  0.00    +0.000 A 
ATOM     20  C   UNL     1       1.783   6.711  20.442  0.00  0.00    +0.000 A 
ATOM     21  C   UNL     1       1.328   7.885  21.048  0.00  0.00    +0.000 A 
ATOM     22  C   UNL     1       1.234   9.074  20.312  0.00  0.00    +0.000 A 
ATOM     23  C   UNL     1       1.619   9.082  18.966  0.00  0.00    +0.000 A 
ATOM     24  C   UNL     1       2.067   7.901  18.360  0.00  0.00    +0.000 A 
BRANCH  22  25
ATOM     25  C   UNL     1       0.765  10.293  21.022  0.00  0.00    +0.000 C 
ATOM     26  O   UNL     1       0.665  10.348  22.237  0.00  0.00    +0.000 OA
BRANCH  25  27
ATOM     27  O   UNL     1       0.413  11.310  20.210  0.00  0.00    +0.000 OA
ATOM     28  H   UNL     1       0.205  11.062  19.292  0.00  0.00    +0.000 HD
ENDBRANCH  25  27
ENDBRANCH  22  25
ENDBRANCH  18  19
ENDBRANCH  16  18
ENDBRANCH   1  16
TORSDOF 8
ENDMDL
MODEL 3
REMARK VINA RESULT:      -7.5      0.698      1.240
REMARK  Name = 
REMARK  10 active torsions:
REMARK  status: ('A' for Active; 'I' for Inactive)
REMARK    1  A    between atoms: C_1  and  C_2
REMARK    2  A    between atoms: C_2  and  N_3
REMARK    3  A    between atoms: C_4  and  C_6
REMARK    4  A    between atoms: C_8  and  S_9
REMARK    5  A    between atoms: S_9  and  N_12
REMARK    6  A    between atoms: N_12  and  C_13
REMARK    7  A    between atoms: C_13  and  C_14
REMARK    8  A    between atoms: C_17  and  C_18
REMARK    9  A    between atoms: C_18  and  O_20
REMARK   10  A    between atoms: C_23  and  C_24
REMARK                            x       y       z     vdW  Elec       q    Type
REMARK                         _______ _______ _______ _____ _____    ______ ____
ROOT
ATOM      1  S   UNL     1       4.366   3.651  18.934  0.00  0.00    +0.000 S 
ATOM      2  O   UNL     1       3.246   3.175  18.157  0.00  0.00    +0.000 OA
ATOM      3  O   UNL     1       5.207   2.777  19.717  0.00  0.00    +0.000 OA
ENDROOT
BRANCH   1   6
ATOM      4  C   UNL     1       6.389   4.721  15.647  0.00  0.00    +0.000 A 
ATOM      5  C   UNL     1       5.404   4.070  16.369  0.00  0.00    +0.000 A 
ATOM      6  C   UNL     1       5.467   4.348  17.773  0.00  0.00    +0.000 A 
ATOM      7  C   UNL     1       6.521   5.188  18.088  0.00  0.00    +0.000 A 
ATOM      8  C   UNL     1       7.024   5.673  19.409  0.00  0.00    +0.000 C 
ATOM      9  S   UNL     1       7.363   5.681  16.676  0.00  0.00    +0.000 S 
BRANCH   4  11
ATOM     10  N   UNL     1       5.913   3.657  13.541  0.00  0.00    +0.000 N 
ATOM     11  C   UNL     1       6.643   4.618  14.212  0.00  0.00    +0.000 C 
ATOM     12  O   UNL     1       7.456   5.331  13.629  0.00  0.00    +0.000 OA
ATOM     13  H   UNL     1       5.360   3.014  14.094  0.00  0.00    +0.000 HD
BRANCH  10  15
ATOM     14  C   UNL     1       6.110   1.983  11.766  0.00  0.00    +0.000 C 
ATOM     15  C   UNL     1       6.028   3.457  12.113  0.00  0.00    +0.000 C 
ENDBRANCH  10  15
ENDBRANCH   4  11
ENDBRANCH   1   6
BRANCH   1  16
ATOM     16  N   UNL     1       3.841   4.898  19.947  0.00  0.00    +0.000 NA
ATOM     17  H   UNL     1       4.428   5.726  19.865  0.00  0.00    +0.000 HD
BRANCH  16  18
ATOM     18  C   UNL     1       2.403   5.192  19.904  0.00  0.00    +0.000 C 
BRANCH  18  19
ATOM     19  C   UNL     1       2.144   6.642  19.546  0.00  0.00    +0.000 A 
ATOM     20  C   UNL     1       2.396   7.110  18.250  0.00  0.00    +0.000 A 
ATOM     21  C   UNL     1       2.129   8.439  17.910  0.00  0.00    +0.000 A 
ATOM     22  C   UNL     1       1.602   9.323  18.862  0.00  0.00    +0.000 A 
ATOM     23  C   UNL     1       1.326   8.859  20.153  0.00  0.00    +0.000 A 
ATOM     24  C   UNL     1       1.602   7.528  20.492  0.00  0.00    +0.000 A 
BRANCH  22  25
ATOM     25  C   UNL     1       1.320  10.717  18.430  0.00  0.00    +0.000 C 
ATOM     26  O   UNL     1       0.280  11.293  18.704  0.00  0.00    +0.000 OA
BRANCH  25  27
ATOM     27  O   UNL     1       2.286  11.271  17.669  0.00  0.00    +0.000 OA
ATOM     28  H   UNL     1       2.005  12.017  17.110  0.00  0.00    +0.000 HD
ENDBRANCH  25  27
ENDBRANCH  22  25
ENDBRANCH  18  19
ENDBRANCH  16  18
ENDBRANCH   1  16
TORSDOF 8
ENDMDL
MODEL 4
REMARK VINA RESULT:      -7.4      1.316      1.813
REMARK  Name = 
REMARK  10 active torsions:
REMARK  status: ('A' for Active; 'I' for Inactive)
REMARK    1  A    between atoms: C_1  and  C_2
REMARK    2  A    between atoms: C_2  and  N_3
REMARK    3  A    between atoms: C_4  and  C_6
REMARK    4  A    between atoms: C_8  and  S_9
REMARK    5  A    between atoms: S_9  and  N_12
REMARK    6  A    between atoms: N_12  and  C_13
REMARK    7  A    between atoms: C_13  and  C_14
REMARK    8  A    between atoms: C_17  and  C_18
REMARK    9  A    between atoms: C_18  and  O_20
REMARK   10  A    between atoms: C_23  and  C_24
REMARK                            x       y       z     vdW  Elec       q    Type
REMARK                         _______ _______ _______ _____ _____    ______ ____
ROOT
ATOM      1  S   UNL     1       3.232   3.778  18.148  0.00  0.00    +0.000 S 
ATOM      2  O   UNL     1       2.301   3.397  17.112  0.00  0.00    +0.000 OA
ATOM      3  O   UNL     1       3.739   2.847  19.127  0.00  0.00    +0.000 OA
ENDROOT
BRANCH   1   6
ATOM      4  C   UNL     1       6.086   4.599  15.461  0.00  0.00    +0.000 A 
ATOM      5  C   UNL     1       4.869   4.108  15.903  0.00  0.00    +0.000 A 
ATOM      6  C   UNL     1       4.664   4.311  17.307  0.00  0.00    +0.000 A 
ATOM      7  C   UNL     1       5.747   4.933  17.904  0.00  0.00    +0.000 A 
ATOM      8  C   UNL     1       6.017   5.264  19.336  0.00  0.00    +0.000 C 
ATOM      9  S   UNL     1       6.953   5.323  16.747  0.00  0.00    +0.000 S 
BRANCH   4  11
ATOM     10  N   UNL     1       6.142   3.482  13.330  0.00  0.00    +0.000 N 
ATOM     11  C   UNL     1       6.632   4.511  14.109  0.00  0.00    +0.000 C 
ATOM     12  O   UNL     1       7.478   5.294  13.683  0.00  0.00    +0.000 OA
ATOM     13  H   UNL     1       5.550   2.794  13.776  0.00  0.00    +0.000 HD
BRANCH  10  15
ATOM     14  C   UNL     1       6.108   1.936  11.431  0.00  0.00    +0.000 C 
ATOM     15  C   UNL     1       6.560   3.285  11.959  0.00  0.00    +0.000 C 
ENDBRANCH  10  15
ENDBRANCH   4  11
ENDBRANCH   1   6
BRANCH   1  16
ATOM     16  N   UNL     1       2.608   5.109  18.983  0.00  0.00    +0.000 NA
ATOM     17  H   UNL     1       3.011   5.193  19.915  0.00  0.00    +0.000 HD
BRANCH  16  18
ATOM     18  C   UNL     1       2.582   6.375  18.239  0.00  0.00    +0.000 C 
BRANCH  18  19
ATOM     19  C   UNL     1       2.044   7.507  19.090  0.00  0.00    +0.000 A 
ATOM     20  C   UNL     1       1.807   8.769  18.528  0.00  0.00    +0.000 A 
ATOM     21  C   UNL     1       1.282   9.805  19.305  0.00  0.00    +0.000 A 
ATOM     22  C   UNL     1       0.982   9.597  20.658  0.00  0.00    +0.000 A 
ATOM     23  C   UNL     1       1.194   8.334  21.223  0.00  0.00    +0.000 A 
ATOM     24  C   UNL     1       1.728   7.300  20.443  0.00  0.00    +0.000 A 
BRANCH  22  25
ATOM     25  C   UNL     1       0.405  10.734  21.422  0.00  0.00    +0.000 C 
ATOM     26  O   UNL     1       0.773  11.886  21.264  0.00  0.00    +0.000 OA
BRANCH  25  27
ATOM     27  O   UNL     1      -0.521  10.378  22.336  0.00  0.00    +0.000 OA
ATOM     28  H   UNL     1      -1.160  11.072  22.578  0.00  0.00    +0.000 HD
ENDBRANCH  25  27
ENDBRANCH  22  25
ENDBRANCH  18  19
ENDBRANCH  16  18
ENDBRANCH   1  16
TORSDOF 8
ENDMDL
MODEL 5
REMARK VINA RESULT:      -7.1      2.345      7.206
REMARK  Name = 
REMARK  10 active torsions:
REMARK  status: ('A' for Active; 'I' for Inactive)
REMARK    1  A    between atoms: C_1  and  C_2
REMARK    2  A    between atoms: C_2  and  N_3
REMARK    3  A    between atoms: C_4  and  C_6
REMARK    4  A    between atoms: C_8  and  S_9
REMARK    5  A    between atoms: S_9  and  N_12
REMARK    6  A    between atoms: N_12  and  C_13
REMARK    7  A    between atoms: C_13  and  C_14
REMARK    8  A    between atoms: C_17  and  C_18
REMARK    9  A    between atoms: C_18  and  O_20
REMARK   10  A    between atoms: C_23  and  C_24
REMARK                            x       y       z     vdW  Elec       q    Type
REMARK                         _______ _______ _______ _____ _____    ______ ____
ROOT
ATOM      1  S   UNL     1       2.564   3.081  18.245  0.00  0.00    +0.000 S 
ATOM      2  O   UNL     1       1.971   2.162  19.188  0.00  0.00    +0.000 OA
ATOM      3  O   UNL     1       2.101   3.216  16.884  0.00  0.00    +0.000 OA
ENDROOT
BRANCH   1   6
ATOM      4  C   UNL     1       2.043   6.999  18.888  0.00  0.00    +0.000 A 
ATOM      5  C   UNL     1       2.233   5.858  18.130  0.00  0.00    +0.000 A 
ATOM      6  C   UNL     1       2.307   4.668  18.925  0.00  0.00    +0.000 A 
ATOM      7  C   UNL     1       2.196   4.940  20.277  0.00  0.00    +0.000 A 
ATOM      8  C   UNL     1       2.301   4.043  21.467  0.00  0.00    +0.000 C 
ATOM      9  S   UNL     1       1.930   6.613  20.552  0.00  0.00    +0.000 S 
BRANCH   4  11
ATOM     10  N   UNL     1       1.343   9.275  19.241  0.00  0.00    +0.000 N 
ATOM     11  C   UNL     1       1.976   8.377  18.405  0.00  0.00    +0.000 C 
ATOM     12  O   UNL     1       2.445   8.724  17.324  0.00  0.00    +0.000 OA
ATOM     13  H   UNL     1       0.862   8.906  20.052  0.00  0.00    +0.000 HD
BRANCH  10  15
ATOM     14  C   UNL     1      -0.195  11.043  18.530  0.00  0.00    +0.000 C 
ATOM     15  C   UNL     1       1.226  10.680  18.918  0.00  0.00    +0.000 C 
ENDBRANCH  10  15
ENDBRANCH   4  11
ENDBRANCH   1   6
BRANCH   1  16
ATOM     16  N   UNL     1       4.232   2.815  18.194  0.00  0.00    +0.000 NA
ATOM     17  H   UNL     1       4.489   2.168  17.450  0.00  0.00    +0.000 HD
BRANCH  16  18
ATOM     18  C   UNL     1       5.073   4.018  18.242  0.00  0.00    +0.000 C 
BRANCH  18  19
ATOM     19  C   UNL     1       5.705   4.307  16.896  0.00  0.00    +0.000 A 
ATOM     20  C   UNL     1       7.063   4.644  16.805  0.00  0.00    +0.000 A 
ATOM     21  C   UNL     1       7.654   4.881  15.561  0.00  0.00    +0.000 A 
ATOM     22  C   UNL     1       6.898   4.783  14.385  0.00  0.00    +0.000 A 
ATOM     23  C   UNL     1       5.547   4.426  14.464  0.00  0.00    +0.000 A 
ATOM     24  C   UNL     1       4.956   4.196  15.713  0.00  0.00    +0.000 A 
BRANCH  22  25
ATOM     25  C   UNL     1       7.593   5.026  13.094  0.00  0.00    +0.000 C 
ATOM     26  O   UNL     1       7.358   4.377  12.088  0.00  0.00    +0.000 OA
BRANCH  25  27
ATOM     27  O   UNL     1       8.539   5.987  13.142  0.00  0.00    +0.000 OA
ATOM     28  H   UNL     1       8.306   6.778  13.658  0.00  0.00    +0.000 HD
ENDBRANCH  25  27
ENDBRANCH  22  25
ENDBRANCH  18  19
ENDBRANCH  16  18
ENDBRANCH   1  16
TORSDOF 8
ENDMDL
MODEL 6
REMARK VINA RESULT:      -7.1      1.631      1.948
REMARK  Name = 
REMARK  10 active torsions:
REMARK  status: ('A' for Active; 'I' for Inactive)
REMARK    1  A    between atoms: C_1  and  C_2
REMARK    2  A    between atoms: C_2  and  N_3
REMARK    3  A    between atoms: C_4  and  C_6
REMARK    4  A    between atoms: C_8  and  S_9
REMARK    5  A    between atoms: S_9  and  N_12
REMARK    6  A    between atoms: N_12  and  C_13
REMARK    7  A    between atoms: C_13  and  C_14
REMARK    8  A    between atoms: C_17  and  C_18
REMARK    9  A    between atoms: C_18  and  O_20
REMARK   10  A    between atoms: C_23  and  C_24
REMARK                            x       y       z     vdW  Elec       q    Type
REMARK                         _______ _______ _______ _____ _____    ______ ____
ROOT
ATOM      1  S   UNL     1       4.686   4.299  18.264  0.00  0.00    +0.000 S 
ATOM      2  O   UNL     1       3.586   3.430  17.918  0.00  0.00    +0.000 OA
ATOM      3  O   UNL     1       5.720   3.921  19.199  0.00  0.00    +0.000 OA
ENDROOT
BRANCH   1   6
ATOM      4  C   UNL     1       6.051   4.253  14.500  0.00  0.00    +0.000 A 
ATOM      5  C   UNL     1       5.211   3.907  15.544  0.00  0.00    +0.000 A 
ATOM      6  C   UNL     1       5.555   4.557  16.773  0.00  0.00    +0.000 A 
ATOM      7  C   UNL     1       6.671   5.365  16.638  0.00  0.00    +0.000 A 
ATOM      8  C   UNL     1       7.434   6.156  17.650  0.00  0.00    +0.000 C 
ATOM      9  S   UNL     1       7.231   5.380  15.016  0.00  0.00    +0.000 S 
BRANCH   4  11
ATOM     10  N   UNL     1       4.765   3.420  12.644  0.00  0.00    +0.000 N 
ATOM     11  C   UNL     1       6.016   3.737  13.133  0.00  0.00    +0.000 C 
ATOM     12  O   UNL     1       7.029   3.584  12.455  0.00  0.00    +0.000 OA
ATOM     13  H   UNL     1       3.987   3.440  13.291  0.00  0.00    +0.000 HD
BRANCH  10  15
ATOM     14  C   UNL     1       3.426   3.658  10.608  0.00  0.00    +0.000 C 
ATOM     15  C   UNL     1       4.563   2.930  11.298  0.00  0.00    +0.000 C 
ENDBRANCH  10  15
ENDBRANCH   4  11
ENDBRANCH   1   6
BRANCH   1  16
ATOM     16  N   UNL     1       4.071   5.793  18.759  0.00  0.00    +0.000 NA
ATOM     17  H   UNL     1       4.813   6.456  18.973  0.00  0.00    +0.000 HD
BRANCH  16  18
ATOM     18  C   UNL     1       3.005   6.355  17.918  0.00  0.00    +0.000 C 
BRANCH  18  19
ATOM     19  C   UNL     1       2.278   7.482  18.623  0.00  0.00    +0.000 A 
ATOM     20  C   UNL     1       2.016   7.408  19.998  0.00  0.00    +0.000 A 
ATOM     21  C   UNL     1       1.373   8.461  20.655  0.00  0.00    +0.000 A 
ATOM     22  C   UNL     1       0.982   9.607  19.949  0.00  0.00    +0.000 A 
ATOM     23  C   UNL     1       1.260   9.699  18.580  0.00  0.00    +0.000 A 
ATOM     24  C   UNL     1       1.898   8.638  17.923  0.00  0.00    +0.000 A 
BRANCH  22  25
ATOM     25  C   UNL     1       0.323  10.699  20.712  0.00  0.00    +0.000 C 
ATOM     26  O   UNL     1      -0.883  10.876  20.697  0.00  0.00    +0.000 OA
BRANCH  25  27
ATOM     27  O   UNL     1       1.175  11.504  21.380  0.00  0.00    +0.000 OA
ATOM     28  H   UNL     1       1.416  11.209  22.275  0.00  0.00    +0.000 HD
ENDBRANCH  25  27
ENDBRANCH  22  25
ENDBRANCH  18  19
ENDBRANCH  16  18
ENDBRANCH   1  16
TORSDOF 8
ENDMDL
MODEL 7
REMARK VINA RESULT:      -7.1      3.308      8.708
REMARK  Name = 
REMARK  10 active torsions:
REMARK  status: ('A' for Active; 'I' for Inactive)
REMARK    1  A    between atoms: C_1  and  C_2
REMARK    2  A    between atoms: C_2  and  N_3
REMARK    3  A    between atoms: C_4  and  C_6
REMARK    4  A    between atoms: C_8  and  S_9
REMARK    5  A    between atoms: S_9  and  N_12
REMARK    6  A    between atoms: N_12  and  C_13
REMARK    7  A    between atoms: C_13  and  C_14
REMARK    8  A    between atoms: C_17  and  C_18
REMARK    9  A    between atoms: C_18  and  O_20
REMARK   10  A    between atoms: C_23  and  C_24
REMARK                            x       y       z     vdW  Elec       q    Type
REMARK                         _______ _______ _______ _____ _____    ______ ____
ROOT
ATOM      1  S   UNL     1       2.373   5.755  19.865  0.00  0.00    +0.000 S 
ATOM      2  O   UNL     1       2.044   5.059  21.087  0.00  0.00    +0.000 OA
ATOM      3  O   UNL     1       1.834   5.379  18.579  0.00  0.00    +0.000 OA
ENDROOT
BRANCH   1   6
ATOM      4  C   UNL     1       0.785   9.161  21.247  0.00  0.00    +0.000 A 
ATOM      5  C   UNL     1       1.178   7.835  21.304  0.00  0.00    +0.000 A 
ATOM      6  C   UNL     1       1.796   7.385  20.092  0.00  0.00    +0.000 A 
ATOM      7  C   UNL     1       1.835   8.380  19.131  0.00  0.00    +0.000 A 
ATOM      8  C   UNL     1       2.299   8.349  17.711  0.00  0.00    +0.000 C 
ATOM      9  S   UNL     1       1.193   9.852  19.736  0.00  0.00    +0.000 S 
BRANCH   4  11
ATOM     10  N   UNL     1      -0.335  11.182  21.920  0.00  0.00    +0.000 N 
ATOM     11  C   UNL     1       0.081   9.916  22.281  0.00  0.00    +0.000 C 
ATOM     12  O   UNL     1      -0.127   9.467  23.406  0.00  0.00    +0.000 OA
ATOM     13  H   UNL     1      -0.020  11.546  21.030  0.00  0.00    +0.000 HD
BRANCH  10  15
ATOM     14  C   UNL     1      -2.468  12.323  22.299  0.00  0.00    +0.000 C 
ATOM     15  C   UNL     1      -1.073  12.039  22.822  0.00  0.00    +0.000 C 
ENDBRANCH  10  15
ENDBRANCH   4  11
ENDBRANCH   1   6
BRANCH   1  16
ATOM     16  N   UNL     1       4.055   5.828  19.712  0.00  0.00    +0.000 NA
ATOM     17  H   UNL     1       4.485   6.319  20.493  0.00  0.00    +0.000 HD
BRANCH  16  18
ATOM     18  C   UNL     1       4.721   4.562  19.375  0.00  0.00    +0.000 C 
BRANCH  18  19
ATOM     19  C   UNL     1       5.315   4.602  17.981  0.00  0.00    +0.000 A 
ATOM     20  C   UNL     1       6.699   4.728  17.802  0.00  0.00    +0.000 A 
ATOM     21  C   UNL     1       7.251   4.735  16.518  0.00  0.00    +0.000 A 
ATOM     22  C   UNL     1       6.428   4.612  15.390  0.00  0.00    +0.000 A 
ATOM     23  C   UNL     1       5.047   4.462  15.560  0.00  0.00    +0.000 A 
ATOM     24  C   UNL     1       4.496   4.465  16.849  0.00  0.00    +0.000 A 
BRANCH  22  25
ATOM     25  C   UNL     1       7.081   4.603  14.055  0.00  0.00    +0.000 C 
ATOM     26  O   UNL     1       7.897   5.443  13.716  0.00  0.00    +0.000 OA
BRANCH  25  27
ATOM     27  O   UNL     1       6.658   3.618  13.235  0.00  0.00    +0.000 OA
ATOM     28  H   UNL     1       7.001   3.654  12.325  0.00  0.00    +0.000 HD
ENDBRANCH  25  27
ENDBRANCH  22  25
ENDBRANCH  18  19
ENDBRANCH  16  18
ENDBRANCH   1  16
TORSDOF 8
ENDMDL
MODEL 8
REMARK VINA RESULT:      -7.1      1.268      1.642
REMARK  Name = 
REMARK  10 active torsions:
REMARK  status: ('A' for Active; 'I' for Inactive)
REMARK    1  A    between atoms: C_1  and  C_2
REMARK    2  A    between atoms: C_2  and  N_3
REMARK    3  A    between atoms: C_4  and  C_6
REMARK    4  A    between atoms: C_8  and  S_9
REMARK    5  A    between atoms: S_9  and  N_12
REMARK    6  A    between atoms: N_12  and  C_13
REMARK    7  A    between atoms: C_13  and  C_14
REMARK    8  A    between atoms: C_17  and  C_18
REMARK    9  A    between atoms: C_18  and  O_20
REMARK   10  A    between atoms: C_23  and  C_24
REMARK                            x       y       z     vdW  Elec       q    Type
REMARK                         _______ _______ _______ _____ _____    ______ ____
ROOT
ATOM      1  S   UNL     1       4.504   3.877  18.200  0.00  0.00    +0.000 S 
ATOM      2  O   UNL     1       3.891   2.593  17.954  0.00  0.00    +0.000 OA
ATOM      3  O   UNL     1       5.408   4.116  19.301  0.00  0.00    +0.000 OA
ENDROOT
BRANCH   1   6
ATOM      4  C   UNL     1       6.051   4.125  14.514  0.00  0.00    +0.000 A 
ATOM      5  C   UNL     1       5.115   3.772  15.471  0.00  0.00    +0.000 A 
ATOM      6  C   UNL     1       5.480   4.199  16.790  0.00  0.00    +0.000 A 
ATOM      7  C   UNL     1       6.703   4.847  16.805  0.00  0.00    +0.000 A 
ATOM      8  C   UNL     1       7.513   5.380  17.942  0.00  0.00    +0.000 C 
ATOM      9  S   UNL     1       7.347   4.992  15.220  0.00  0.00    +0.000 S 
BRANCH   4  11
ATOM     10  N   UNL     1       4.833   3.270  12.623  0.00  0.00    +0.000 N 
ATOM     11  C   UNL     1       6.018   3.803  13.089  0.00  0.00    +0.000 C 
ATOM     12  O   UNL     1       6.979   3.984  12.346  0.00  0.00    +0.000 OA
ATOM     13  H   UNL     1       4.128   3.020  13.304  0.00  0.00    +0.000 HD
BRANCH  10  15
ATOM     14  C   UNL     1       3.463   3.688  10.638  0.00  0.00    +0.000 C 
ATOM     15  C   UNL     1       4.635   2.930  11.231  0.00  0.00    +0.000 C 
ENDBRANCH  10  15
ENDBRANCH   4  11
ENDBRANCH   1   6
BRANCH   1  16
ATOM     16  N   UNL     1       3.298   5.059  18.264  0.00  0.00    +0.000 NA
ATOM     17  H   UNL     1       2.413   4.717  17.894  0.00  0.00    +0.000 HD
BRANCH  16  18
ATOM     18  C   UNL     1       3.165   5.767  19.544  0.00  0.00    +0.000 C 
BRANCH  18  19
ATOM     19  C   UNL     1       2.459   7.097  19.371  0.00  0.00    +0.000 A 
ATOM     20  C   UNL     1       2.427   7.728  18.120  0.00  0.00    +0.000 A 
ATOM     21  C   UNL     1       1.750   8.939  17.953  0.00  0.00    +0.000 A 
ATOM     22  C   UNL     1       1.089   9.539  19.034  0.00  0.00    +0.000 A 
ATOM     23  C   UNL     1       1.096   8.905  20.282  0.00  0.00    +0.000 A 
ATOM     24  C   UNL     1       1.783   7.694  20.447  0.00  0.00    +0.000 A 
BRANCH  22  25
ATOM     25  C   UNL     1       0.369  10.815  18.783  0.00  0.00    +0.000 C 
ATOM     26  O   UNL     1       0.533  11.809  19.470  0.00  0.00    +0.000 OA
BRANCH  25  27
ATOM     27  O   UNL     1      -0.515  10.764  17.765  0.00  0.00    +0.000 OA
ATOM     28  H   UNL     1      -0.493   9.951  17.231  0.00  0.00    +0.000 HD
ENDBRANCH  25  27
ENDBRANCH  22  25
ENDBRANCH  18  19
ENDBRANCH  16  18
ENDBRANCH   1  16
TORSDOF 8
ENDMDL
MODEL 9
REMARK VINA RESULT:      -7.1      2.791      8.146
REMARK  Name = 
REMARK  10 active torsions:
REMARK  status: ('A' for Active; 'I' for Inactive)
REMARK    1  A    between atoms: C_1  and  C_2
REMARK    2  A    between atoms: C_2  and  N_3
REMARK    3  A    between atoms: C_4  and  C_6
REMARK    4  A    between atoms: C_8  and  S_9
REMARK    5  A    between atoms: S_9  and  N_12
REMARK    6  A    between atoms: N_12  and  C_13
REMARK    7  A    between atoms: C_13  and  C_14
REMARK    8  A    between atoms: C_17  and  C_18
REMARK    9  A    between atoms: C_18  and  O_20
REMARK   10  A    between atoms: C_23  and  C_24
REMARK                            x       y       z     vdW  Elec       q    Type
REMARK                         _______ _______ _______ _____ _____    ______ ____
ROOT
ATOM      1  S   UNL     1       2.607   5.451  19.881  0.00  0.00    +0.000 S 
ATOM      2  O   UNL     1       2.110   5.269  21.225  0.00  0.00    +0.000 OA
ATOM      3  O   UNL     1       2.128   4.680  18.757  0.00  0.00    +0.000 OA
ENDROOT
BRANCH   1   6
ATOM      4  C   UNL     1       1.090   9.151  19.670  0.00  0.00    +0.000 A 
ATOM      5  C   UNL     1       1.269   7.887  20.205  0.00  0.00    +0.000 A 
ATOM      6  C   UNL     1       2.198   7.093  19.457  0.00  0.00    +0.000 A 
ATOM      7  C   UNL     1       2.686   7.770  18.352  0.00  0.00    +0.000 A 
ATOM      8  C   UNL     1       3.595   7.321  17.254  0.00  0.00    +0.000 C 
ATOM      9  S   UNL     1       2.070   9.370  18.284  0.00  0.00    +0.000 S 
BRANCH   4  11
ATOM     10  N   UNL     1       0.535  10.795  21.338  0.00  0.00    +0.000 N 
ATOM     11  C   UNL     1       0.180  10.190  20.149  0.00  0.00    +0.000 C 
ATOM     12  O   UNL     1      -0.841  10.507  19.544  0.00  0.00    +0.000 OA
ATOM     13  H   UNL     1       1.310  10.401  21.855  0.00  0.00    +0.000 HD
BRANCH  10  15
ATOM     14  C   UNL     1      -1.208  11.336  22.970  0.00  0.00    +0.000 C 
ATOM     15  C   UNL     1      -0.246  11.863  21.923  0.00  0.00    +0.000 C 
ENDBRANCH  10  15
ENDBRANCH   4  11
ENDBRANCH   1   6
BRANCH   1  16
ATOM     16  N   UNL     1       4.293   5.335  19.899  0.00  0.00    +0.000 NA
ATOM     17  H   UNL     1       4.681   5.594  20.804  0.00  0.00    +0.000 HD
BRANCH  16  18
ATOM     18  C   UNL     1       4.852   4.091  19.354  0.00  0.00    +0.000 C 
BRANCH  18  19
ATOM     19  C   UNL     1       5.413   4.298  17.962  0.00  0.00    +0.000 A 
ATOM     20  C   UNL     1       6.618   4.990  17.776  0.00  0.00    +0.000 A 
ATOM     21  C   UNL     1       7.151   5.155  16.495  0.00  0.00    +0.000 A 
ATOM     22  C   UNL     1       6.491   4.628  15.376  0.00  0.00    +0.000 A 
ATOM     23  C   UNL     1       5.299   3.916  15.554  0.00  0.00    +0.000 A 
ATOM     24  C   UNL     1       4.763   3.759  16.839  0.00  0.00    +0.000 A 
BRANCH  22  25
ATOM     25  C   UNL     1       7.124   4.820  14.045  0.00  0.00    +0.000 C 
ATOM     26  O   UNL     1       8.001   5.643  13.847  0.00  0.00    +0.000 OA
BRANCH  25  27
ATOM     27  O   UNL     1       6.612   4.043  13.068  0.00  0.00    +0.000 OA
ATOM     28  H   UNL     1       5.773   4.351  12.683  0.00  0.00    +0.000 HD
ENDBRANCH  25  27
ENDBRANCH  22  25
ENDBRANCH  18  19
ENDBRANCH  16  18
ENDBRANCH   1  16
TORSDOF 8
ENDMDL
