MODEL 1
REMARK VINA RESULT:      -9.6      0.000      0.000
REMARK  Name = 
REMARK  7 active torsions:
REMARK  status: ('A' for Active; 'I' for Inactive)
REMARK    1  A    between atoms: C_1  and  O_2
REMARK    2  A    between atoms: O_2  and  C_3
REMARK    3  A    between atoms: C_8  and  C_9
REMARK    4  A    between atoms: N_12  and  C_13
REMARK    5  A    between atoms: C_15  and  C_16
REMARK    6  A    between atoms: C_23  and  N_24
REMARK    7  A    between atoms: C_27  and  O_28
REMARK                            x       y       z     vdW  Elec       q    Type
REMARK                         _______ _______ _______ _____ _____    ______ ____
ROOT
ATOM      1  C   UNL     1       3.127   6.592  19.087  0.00  0.00    +0.000 A 
ATOM      2  N   UNL     1       2.720   5.790  20.101  0.00  0.00    +0.000 NA
ATOM      3  C   UNL     1       3.055   4.529  20.115  0.00  0.00    +0.000 A 
ATOM      4  N   UNL     1       4.223   4.225  19.674  0.00  0.00    +0.000 NA
ATOM      5  C   UNL     1       4.401   4.652  18.468  0.00  0.00    +0.000 A 
ATOM      6  C   UNL     1       4.850   3.572  17.747  0.00  0.00    +0.000 A 
ATOM      7  C   UNL     1       5.221   3.599  16.428  0.00  0.00    +0.000 A 
ATOM      8  C   UNL     1       5.307   4.799  15.755  0.00  0.00    +0.000 A 
ATOM      9  C   UNL     1       4.725   5.954  16.497  0.00  0.00    +0.000 A 
ATOM     10  C   UNL     1       4.018   5.919  17.961  0.00  0.00    +0.000 A 
ENDROOT
BRANCH   1  14
ATOM     11  C   UNL     1       0.496  10.288  18.860  0.00  0.00    +0.000 C 
ATOM     12  C   UNL     1       1.572   9.948  17.841  0.00  0.00    +0.000 C 
ATOM     13  C   UNL     1       2.209   8.553  17.926  0.00  0.00    +0.000 C 
ATOM     14  N   UNL     1       2.403   7.816  19.268  0.00  0.00    +0.000 N 
ATOM     15  C   UNL     1       1.398   8.165  20.266  0.00  0.00    +0.000 C 
ATOM     16  C   UNL     1       0.950   9.671  20.211  0.00  0.00    +0.000 C 
BRANCH  11  22
ATOM     17  C   UNL     1      -1.947  11.228  18.916  0.00  0.00    +0.000 A 
ATOM     18  C   UNL     1      -3.143  11.509  18.221  0.00  0.00    +0.000 A 
ATOM     19  C   UNL     1      -3.477  10.832  17.052  0.00  0.00    +0.000 A 
ATOM     20  C   UNL     1      -2.595   9.874  16.563  0.00  0.00    +0.000 A 
ATOM     21  C   UNL     1      -1.354   9.666  17.199  0.00  0.00    +0.000 A 
ATOM     22  C   UNL     1      -0.975  10.363  18.375  0.00  0.00    +0.000 A 
BRANCH  17  24
ATOM     23  C   UNL     1      -2.717  12.783  20.450  0.00  0.00    +0.000 C 
ATOM     24  O   UNL     1      -1.707  11.821  20.127  0.00  0.00    +0.000 OA
ENDBRANCH  17  24
ENDBRANCH  11  22
ENDBRANCH   1  14
BRANCH   8  25
ATOM     25  N   UNL     1       5.838   4.745  14.456  0.00  0.00    +0.000 N 
ATOM     26  C   UNL     1       7.260   4.886  14.120  0.00  0.00    +0.000 C 
ATOM     27  C   UNL     1       7.293   4.779  12.578  0.00  0.00    +0.000 C 
ATOM     28  C   UNL     1       6.230   3.752  12.236  0.00  0.00    +0.000 C 
ATOM     29  C   UNL     1       5.200   3.903  13.376  0.00  0.00    +0.000 C 
BRANCH  28  30
ATOM     30  O   UNL     1       6.790   2.439  12.133  0.00  0.00    +0.000 OA
ATOM     31  H   UNL     1       6.647   2.094  11.237  0.00  0.00    +0.000 HD
ENDBRANCH  28  30
ENDBRANCH   8  25
BRANCH   3  32
ATOM     32  C   UNL     1       1.969   3.537  19.795  0.00  0.00    +0.000 C 
ATOM     33  C   UNL     1       1.349   2.749  20.923  0.00  0.00    +0.000 C 
ATOM     34  C   UNL     1       0.533   3.740  20.142  0.00  0.00    +0.000 C 
ENDBRANCH   3  32
TORSDOF 6
ENDMDL
MODEL 2
REMARK VINA RESULT:      -8.8      1.649      2.601
REMARK  Name = 
REMARK  7 active torsions:
REMARK  status: ('A' for Active; 'I' for Inactive)
REMARK    1  A    between atoms: C_1  and  O_2
REMARK    2  A    between atoms: O_2  and  C_3
REMARK    3  A    between atoms: C_8  and  C_9
REMARK    4  A    between atoms: N_12  and  C_13
REMARK    5  A    between atoms: C_15  and  C_16
REMARK    6  A    between atoms: C_23  and  N_24
REMARK    7  A    between atoms: C_27  and  O_28
REMARK                            x       y       z     vdW  Elec       q    Type
REMARK                         _______ _______ _______ _____ _____    ______ ____
ROOT
ATOM      1  C   UNL     1       2.850   6.846  18.804  0.00  0.00    +0.000 A 
ATOM      2  N   UNL     1       2.600   6.138  19.933  0.00  0.00    +0.000 NA
ATOM      3  C   UNL     1       3.182   4.987  20.128  0.00  0.00    +0.000 A 
ATOM      4  N   UNL     1       4.393   4.862  19.717  0.00  0.00    +0.000 NA
ATOM      5  C   UNL     1       4.497   5.132  18.458  0.00  0.00    +0.000 A 
ATOM      6  C   UNL     1       5.164   4.069  17.897  0.00  0.00    +0.000 A 
ATOM      7  C   UNL     1       5.538   3.974  16.582  0.00  0.00    +0.000 A 
ATOM      8  C   UNL     1       5.389   5.053  15.737  0.00  0.00    +0.000 A 
ATOM      9  C   UNL     1       4.577   6.164  16.310  0.00  0.00    +0.000 A 
ATOM     10  C   UNL     1       3.873   6.206  17.775  0.00  0.00    +0.000 A 
ENDROOT
BRANCH   1  14
ATOM     11  C   UNL     1       0.252  10.495  19.560  0.00  0.00    +0.000 C 
ATOM     12  C   UNL     1       0.460   9.377  20.568  0.00  0.00    +0.000 C 
ATOM     13  C   UNL     1       1.547   8.338  20.258  0.00  0.00    +0.000 C 
ATOM     14  N   UNL     1       1.891   7.912  18.815  0.00  0.00    +0.000 N 
ATOM     15  C   UNL     1       1.658   8.966  17.833  0.00  0.00    +0.000 C 
ATOM     16  C   UNL     1       0.404   9.859  18.152  0.00  0.00    +0.000 C 
BRANCH  11  22
ATOM     17  C   UNL     1       0.140  12.714  20.945  0.00  0.00    +0.000 A 
ATOM     18  C   UNL     1       0.816  13.830  21.484  0.00  0.00    +0.000 A 
ATOM     19  C   UNL     1       2.016  14.280  20.942  0.00  0.00    +0.000 A 
ATOM     20  C   UNL     1       2.556  13.595  19.859  0.00  0.00    +0.000 A 
ATOM     21  C   UNL     1       1.935  12.420  19.386  0.00  0.00    +0.000 A 
ATOM     22  C   UNL     1       0.727  11.922  19.938  0.00  0.00    +0.000 A 
BRANCH  17  24
ATOM     23  C   UNL     1      -1.033  11.908  22.772  0.00  0.00    +0.000 C 
ATOM     24  O   UNL     1      -1.099  12.373  21.420  0.00  0.00    +0.000 OA
ENDBRANCH  17  24
ENDBRANCH  11  22
ENDBRANCH   1  14
BRANCH   8  25
ATOM     25  N   UNL     1       5.937   4.915  14.452  0.00  0.00    +0.000 N 
ATOM     26  C   UNL     1       7.372   4.918  14.142  0.00  0.00    +0.000 C 
ATOM     27  C   UNL     1       7.423   4.765  12.604  0.00  0.00    +0.000 C 
ATOM     28  C   UNL     1       6.279   3.828  12.268  0.00  0.00    +0.000 C 
ATOM     29  C   UNL     1       5.246   4.102  13.381  0.00  0.00    +0.000 C 
BRANCH  28  30
ATOM     30  O   UNL     1       6.721   2.468  12.212  0.00  0.00    +0.000 OA
ATOM     31  H   UNL     1       6.859   2.134  13.113  0.00  0.00    +0.000 HD
ENDBRANCH  28  30
ENDBRANCH   8  25
BRANCH   3  32
ATOM     32  C   UNL     1       2.323   3.760  19.978  0.00  0.00    +0.000 C 
ATOM     33  C   UNL     1       1.748   3.119  21.217  0.00  0.00    +0.000 C 
ATOM     34  C   UNL     1       0.848   3.751  20.194  0.00  0.00    +0.000 C 
ENDBRANCH   3  32
TORSDOF 6
ENDMDL
MODEL 3
REMARK VINA RESULT:      -8.6      1.055      1.373
REMARK  Name = 
REMARK  7 active torsions:
REMARK  status: ('A' for Active; 'I' for Inactive)
REMARK    1  A    between atoms: C_1  and  O_2
REMARK    2  A    between atoms: O_2  and  C_3
REMARK    3  A    between atoms: C_8  and  C_9
REMARK    4  A    between atoms: N_12  and  C_13
REMARK    5  A    between atoms: C_15  and  C_16
REMARK    6  A    between atoms: C_23  and  N_24
REMARK    7  A    between atoms: C_27  and  O_28
REMARK                            x       y       z     vdW  Elec       q    Type
REMARK                         _______ _______ _______ _____ _____    ______ ____
ROOT
ATOM      1  C   UNL     1       2.540   6.581  19.717  0.00  0.00    +0.000 A 
ATOM      2  N   UNL     1       1.912   5.901  20.707  0.00  0.00    +0.000 NA
ATOM      3  C   UNL     1       2.098   4.617  20.842  0.00  0.00    +0.000 A 
ATOM      4  N   UNL     1       3.274   4.163  20.591  0.00  0.00    +0.000 NA
ATOM      5  C   UNL     1       3.661   4.481  19.400  0.00  0.00    +0.000 A 
ATOM      6  C   UNL     1       4.080   3.310  18.814  0.00  0.00    +0.000 A 
ATOM      7  C   UNL     1       4.627   3.203  17.562  0.00  0.00    +0.000 A 
ATOM      8  C   UNL     1       4.937   4.336  16.840  0.00  0.00    +0.000 A 
ATOM      9  C   UNL     1       4.393   5.595  17.423  0.00  0.00    +0.000 A 
ATOM     10  C   UNL     1       3.495   5.740  18.770  0.00  0.00    +0.000 A 
ENDROOT
BRANCH   1  14
ATOM     11  C   UNL     1       0.266  10.442  18.971  0.00  0.00    +0.000 C 
ATOM     12  C   UNL     1       1.280   9.853  18.003  0.00  0.00    +0.000 C 
ATOM     13  C   UNL     1       1.784   8.431  18.288  0.00  0.00    +0.000 C 
ATOM     14  N   UNL     1       1.940   7.883  19.722  0.00  0.00    +0.000 N 
ATOM     15  C   UNL     1       0.997   8.471  20.667  0.00  0.00    +0.000 C 
ATOM     16  C   UNL     1       0.693   9.989  20.394  0.00  0.00    +0.000 C 
BRANCH  11  22
ATOM     17  C   UNL     1      -2.116  11.527  19.013  0.00  0.00    +0.000 A 
ATOM     18  C   UNL     1      -3.300  11.855  18.318  0.00  0.00    +0.000 A 
ATOM     19  C   UNL     1      -3.684  11.160  17.176  0.00  0.00    +0.000 A 
ATOM     20  C   UNL     1      -2.866  10.135  16.714  0.00  0.00    +0.000 A 
ATOM     21  C   UNL     1      -1.633   9.875  17.347  0.00  0.00    +0.000 A 
ATOM     22  C   UNL     1      -1.202  10.588  18.496  0.00  0.00    +0.000 A 
BRANCH  17  24
ATOM     23  C   UNL     1      -2.949  12.894  20.687  0.00  0.00    +0.000 C 
ATOM     24  O   UNL     1      -1.830  12.146  20.201  0.00  0.00    +0.000 OA
ENDBRANCH  17  24
ENDBRANCH  11  22
ENDBRANCH   1  14
BRANCH   8  25
ATOM     25  N   UNL     1       5.631   4.133  15.635  0.00  0.00    +0.000 N 
ATOM     26  C   UNL     1       5.080   4.367  14.295  0.00  0.00    +0.000 C 
ATOM     27  C   UNL     1       6.230   3.967  13.343  0.00  0.00    +0.000 C 
ATOM     28  C   UNL     1       7.495   4.415  14.050  0.00  0.00    +0.000 C 
ATOM     29  C   UNL     1       7.128   4.316  15.546  0.00  0.00    +0.000 C 
BRANCH  28  30
ATOM     30  O   UNL     1       7.884   5.729  13.637  0.00  0.00    +0.000 OA
ATOM     31  H   UNL     1       8.848   5.764  13.529  0.00  0.00    +0.000 HD
ENDBRANCH  28  30
ENDBRANCH   8  25
BRANCH   3  32
ATOM     32  C   UNL     1       0.962   3.721  20.428  0.00  0.00    +0.000 C 
ATOM     33  C   UNL     1       0.792   3.392  18.964  0.00  0.00    +0.000 C 
ATOM     34  C   UNL     1       1.144   2.319  19.955  0.00  0.00    +0.000 C 
ENDBRANCH   3  32
TORSDOF 6
ENDMDL
MODEL 4
REMARK VINA RESULT:      -8.4      1.769      2.867
REMARK  Name = 
REMARK  7 active torsions:
REMARK  status: ('A' for Active; 'I' for Inactive)
REMARK    1  A    between atoms: C_1  and  O_2
REMARK    2  A    between atoms: O_2  and  C_3
REMARK    3  A    between atoms: C_8  and  C_9
REMARK    4  A    between atoms: N_12  and  C_13
REMARK    5  A    between atoms: C_15  and  C_16
REMARK    6  A    between atoms: C_23  and  N_24
REMARK    7  A    between atoms: C_27  and  O_28
REMARK                            x       y       z     vdW  Elec       q    Type
REMARK                         _______ _______ _______ _____ _____    ______ ____
ROOT
ATOM      1  C   UNL     1       2.892   6.856  18.831  0.00  0.00    +0.000 A 
ATOM      2  N   UNL     1       2.644   6.147  19.959  0.00  0.00    +0.000 NA
ATOM      3  C   UNL     1       3.214   4.989  20.145  0.00  0.00    +0.000 A 
ATOM      4  N   UNL     1       4.420   4.852  19.723  0.00  0.00    +0.000 NA
ATOM      5  C   UNL     1       4.516   5.126  18.464  0.00  0.00    +0.000 A 
ATOM      6  C   UNL     1       5.166   4.058  17.893  0.00  0.00    +0.000 A 
ATOM      7  C   UNL     1       5.529   3.964  16.575  0.00  0.00    +0.000 A 
ATOM      8  C   UNL     1       5.384   5.047  15.736  0.00  0.00    +0.000 A 
ATOM      9  C   UNL     1       4.590   6.165  16.320  0.00  0.00    +0.000 A 
ATOM     10  C   UNL     1       3.899   6.209  17.790  0.00  0.00    +0.000 A 
ENDROOT
BRANCH   1  14
ATOM     11  C   UNL     1       0.230  10.432  19.708  0.00  0.00    +0.000 C 
ATOM     12  C   UNL     1       0.293   9.186  20.577  0.00  0.00    +0.000 C 
ATOM     13  C   UNL     1       1.408   8.173  20.280  0.00  0.00    +0.000 C 
ATOM     14  N   UNL     1       1.945   7.933  18.854  0.00  0.00    +0.000 N 
ATOM     15  C   UNL     1       1.854   9.112  18.000  0.00  0.00    +0.000 C 
ATOM     16  C   UNL     1       0.572   9.983  18.261  0.00  0.00    +0.000 C 
BRANCH  11  22
ATOM     17  C   UNL     1       1.562  12.685  19.743  0.00  0.00    +0.000 A 
ATOM     18  C   UNL     1       1.639  14.030  20.166  0.00  0.00    +0.000 A 
ATOM     19  C   UNL     1       0.935  14.479  21.279  0.00  0.00    +0.000 A 
ATOM     20  C   UNL     1       0.130  13.577  21.966  0.00  0.00    +0.000 A 
ATOM     21  C   UNL     1      -0.028  12.262  21.483  0.00  0.00    +0.000 A 
ATOM     22  C   UNL     1       0.655  11.785  20.335  0.00  0.00    +0.000 A 
BRANCH  17  24
ATOM     23  C   UNL     1       2.823  13.331  17.911  0.00  0.00    +0.000 C 
ATOM     24  O   UNL     1       2.362  12.246  18.722  0.00  0.00    +0.000 OA
ENDBRANCH  17  24
ENDBRANCH  11  22
ENDBRANCH   1  14
BRANCH   8  25
ATOM     25  N   UNL     1       5.920   4.908  14.445  0.00  0.00    +0.000 N 
ATOM     26  C   UNL     1       7.351   4.935  14.118  0.00  0.00    +0.000 C 
ATOM     27  C   UNL     1       7.386   4.769  12.581  0.00  0.00    +0.000 C 
ATOM     28  C   UNL     1       6.256   3.808  12.266  0.00  0.00    +0.000 C 
ATOM     29  C   UNL     1       5.231   4.074  13.390  0.00  0.00    +0.000 C 
BRANCH  28  30
ATOM     30  O   UNL     1       6.722   2.456  12.217  0.00  0.00    +0.000 OA
ATOM     31  H   UNL     1       7.525   2.369  12.756  0.00  0.00    +0.000 HD
ENDBRANCH  28  30
ENDBRANCH   8  25
BRANCH   3  32
ATOM     32  C   UNL     1       2.340   3.772  19.997  0.00  0.00    +0.000 C 
ATOM     33  C   UNL     1       1.810   3.102  21.241  0.00  0.00    +0.000 C 
ATOM     34  C   UNL     1       0.874   3.767  20.272  0.00  0.00    +0.000 C 
ENDBRANCH   3  32
TORSDOF 6
ENDMDL
MODEL 5
REMARK VINA RESULT:      -8.1      3.199     10.767
REMARK  Name = 
REMARK  7 active torsions:
REMARK  status: ('A' for Active; 'I' for Inactive)
REMARK    1  A    between atoms: C_1  and  O_2
REMARK    2  A    between atoms: O_2  and  C_3
REMARK    3  A    between atoms: C_8  and  C_9
REMARK    4  A    between atoms: N_12  and  C_13
REMARK    5  A    between atoms: C_15  and  C_16
REMARK    6  A    between atoms: C_23  and  N_24
REMARK    7  A    between atoms: C_27  and  O_28
REMARK                            x       y       z     vdW  Elec       q    Type
REMARK                         _______ _______ _______ _____ _____    ______ ____
ROOT
ATOM      1  C   UNL     1       0.172  10.423  19.078  0.00  0.00    +0.000 A 
ATOM      2  N   UNL     1      -0.477  10.255  17.900  0.00  0.00    +0.000 NA
ATOM      3  C   UNL     1      -1.539  10.961  17.629  0.00  0.00    +0.000 A 
ATOM      4  N   UNL     1      -1.557  12.178  18.041  0.00  0.00    +0.000 NA
ATOM      5  C   UNL     1      -1.368  12.251  19.316  0.00  0.00    +0.000 A 
ATOM      6  C   UNL     1      -2.387  13.032  19.806  0.00  0.00    +0.000 A 
ATOM      7  C   UNL     1      -2.533  13.413  21.114  0.00  0.00    +0.000 A 
ATOM      8  C   UNL     1      -1.541  13.144  22.032  0.00  0.00    +0.000 A 
ATOM      9  C   UNL     1      -0.489  12.214  21.532  0.00  0.00    +0.000 A 
ATOM     10  C   UNL     1      -0.421  11.510  20.068  0.00  0.00    +0.000 A 
ENDROOT
BRANCH   1  14
ATOM     11  C   UNL     1       2.534   6.588  19.670  0.00  0.00    +0.000 C 
ATOM     12  C   UNL     1       1.918   7.389  20.805  0.00  0.00    +0.000 C 
ATOM     13  C   UNL     1       0.955   8.524  20.427  0.00  0.00    +0.000 C 
ATOM     14  N   UNL     1       1.123   9.352  19.135  0.00  0.00    +0.000 N 
ATOM     15  C   UNL     1       1.750   8.603  18.051  0.00  0.00    +0.000 C 
ATOM     16  C   UNL     1       2.857   7.598  18.535  0.00  0.00    +0.000 C 
BRANCH  11  22
ATOM     17  C   UNL     1       2.501   4.288  18.418  0.00  0.00    +0.000 A 
ATOM     18  C   UNL     1       2.289   2.894  18.472  0.00  0.00    +0.000 A 
ATOM     19  C   UNL     1       1.487   2.321  19.454  0.00  0.00    +0.000 A 
ATOM     20  C   UNL     1       0.905   3.151  20.406  0.00  0.00    +0.000 A 
ATOM     21  C   UNL     1       1.200   4.530  20.415  0.00  0.00    +0.000 A 
ATOM     22  C   UNL     1       2.037   5.137  19.443  0.00  0.00    +0.000 A 
BRANCH  17  24
ATOM     23  C   UNL     1       4.397   4.109  17.100  0.00  0.00    +0.000 C 
ATOM     24  O   UNL     1       3.191   4.833  17.368  0.00  0.00    +0.000 OA
ENDBRANCH  17  24
ENDBRANCH  11  22
ENDBRANCH   1  14
BRANCH   8  25
ATOM     25  N   UNL     1      -1.708  13.704  23.310  0.00  0.00    +0.000 N 
ATOM     26  C   UNL     1      -1.090  14.952  23.771  0.00  0.00    +0.000 C 
ATOM     27  C   UNL     1      -1.572  15.090  25.234  0.00  0.00    +0.000 C 
ATOM     28  C   UNL     1      -2.995  14.564  25.226  0.00  0.00    +0.000 C 
ATOM     29  C   UNL     1      -2.988  13.518  24.091  0.00  0.00    +0.000 C 
BRANCH  28  30
ATOM     30  O   UNL     1      -3.939  15.622  25.032  0.00  0.00    +0.000 OA
ATOM     31  H   UNL     1      -4.785  15.381  25.441  0.00  0.00    +0.000 HD
ENDBRANCH  28  30
ENDBRANCH   8  25
BRANCH   3  32
ATOM     32  C   UNL     1      -2.861  10.244  17.685  0.00  0.00    +0.000 C 
ATOM     33  C   UNL     1      -4.068  10.896  17.055  0.00  0.00    +0.000 C 
ATOM     34  C   UNL     1      -3.512   9.615  16.500  0.00  0.00    +0.000 C 
ENDBRANCH   3  32
TORSDOF 6
ENDMDL
MODEL 6
REMARK VINA RESULT:      -8.0      1.769      2.786
REMARK  Name = 
REMARK  7 active torsions:
REMARK  status: ('A' for Active; 'I' for Inactive)
REMARK    1  A    between atoms: C_1  and  O_2
REMARK    2  A    between atoms: O_2  and  C_3
REMARK    3  A    between atoms: C_8  and  C_9
REMARK    4  A    between atoms: N_12  and  C_13
REMARK    5  A    between atoms: C_15  and  C_16
REMARK    6  A    between atoms: C_23  and  N_24
REMARK    7  A    between atoms: C_27  and  O_28
REMARK                            x       y       z     vdW  Elec       q    Type
REMARK                         _______ _______ _______ _____ _____    ______ ____
ROOT
ATOM      1  C   UNL     1       2.919   6.632  18.805  0.00  0.00    +0.000 A 
ATOM      2  N   UNL     1       2.541   5.981  19.931  0.00  0.00    +0.000 NA
ATOM      3  C   UNL     1       3.023   4.799  20.200  0.00  0.00    +0.000 A 
ATOM      4  N   UNL     1       4.248   4.577  19.881  0.00  0.00    +0.000 NA
ATOM      5  C   UNL     1       4.459   4.798  18.626  0.00  0.00    +0.000 A 
ATOM      6  C   UNL     1       5.086   3.673  18.145  0.00  0.00    +0.000 A 
ATOM      7  C   UNL     1       5.544   3.509  16.864  0.00  0.00    +0.000 A 
ATOM      8  C   UNL     1       5.533   4.568  15.981  0.00  0.00    +0.000 A 
ATOM      9  C   UNL     1       4.764   5.751  16.462  0.00  0.00    +0.000 A 
ATOM     10  C   UNL     1       3.964   5.889  17.870  0.00  0.00    +0.000 A 
ENDROOT
BRANCH   1  14
ATOM     11  C   UNL     1       0.591  10.510  19.227  0.00  0.00    +0.000 C 
ATOM     12  C   UNL     1       0.709   9.466  20.326  0.00  0.00    +0.000 C 
ATOM     13  C   UNL     1       1.720   8.330  20.114  0.00  0.00    +0.000 C 
ATOM     14  N   UNL     1       2.041   7.762  18.716  0.00  0.00    +0.000 N 
ATOM     15  C   UNL     1       1.892   8.746  17.649  0.00  0.00    +0.000 C 
ATOM     16  C   UNL     1       0.705   9.750  17.877  0.00  0.00    +0.000 C 
BRANCH  11  22
ATOM     17  C   UNL     1       0.919  12.676  20.659  0.00  0.00    +0.000 A 
ATOM     18  C   UNL     1       1.733  13.776  21.006  0.00  0.00    +0.000 A 
ATOM     19  C   UNL     1       2.713  14.252  20.141  0.00  0.00    +0.000 A 
ATOM     20  C   UNL     1       2.892  13.610  18.920  0.00  0.00    +0.000 A 
ATOM     21  C   UNL     1       2.151  12.449  18.618  0.00  0.00    +0.000 A 
ATOM     22  C   UNL     1       1.166  11.924  19.494  0.00  0.00    +0.000 A 
BRANCH  17  24
ATOM     23  C   UNL     1      -1.229  13.204  21.348  0.00  0.00    +0.000 C 
ATOM     24  O   UNL     1      -0.118  12.311  21.477  0.00  0.00    +0.000 OA
ENDBRANCH  17  24
ENDBRANCH  11  22
ENDBRANCH   1  14
BRANCH   8  25
ATOM     25  N   UNL     1       6.159   4.350  14.742  0.00  0.00    +0.000 N 
ATOM     26  C   UNL     1       5.460   4.172  13.464  0.00  0.00    +0.000 C 
ATOM     27  C   UNL     1       6.599   3.942  12.444  0.00  0.00    +0.000 C 
ATOM     28  C   UNL     1       7.726   4.845  12.907  0.00  0.00    +0.000 C 
ATOM     29  C   UNL     1       7.523   4.923  14.436  0.00  0.00    +0.000 C 
BRANCH  28  30
ATOM     30  O   UNL     1       7.675   6.117  12.252  0.00  0.00    +0.000 OA
ATOM     31  H   UNL     1       6.898   6.610  12.561  0.00  0.00    +0.000 HD
ENDBRANCH  28  30
ENDBRANCH   8  25
BRANCH   3  32
ATOM     32  C   UNL     1       2.091   3.631  20.022  0.00  0.00    +0.000 C 
ATOM     33  C   UNL     1       1.494   2.984  21.248  0.00  0.00    +0.000 C 
ATOM     34  C   UNL     1       0.620   3.701  20.257  0.00  0.00    +0.000 C 
ENDBRANCH   3  32
TORSDOF 6
ENDMDL
MODEL 7
REMARK VINA RESULT:      -8.0      3.155     10.758
REMARK  Name = 
REMARK  7 active torsions:
REMARK  status: ('A' for Active; 'I' for Inactive)
REMARK    1  A    between atoms: C_1  and  O_2
REMARK    2  A    between atoms: O_2  and  C_3
REMARK    3  A    between atoms: C_8  and  C_9
REMARK    4  A    between atoms: N_12  and  C_13
REMARK    5  A    between atoms: C_15  and  C_16
REMARK    6  A    between atoms: C_23  and  N_24
REMARK    7  A    between atoms: C_27  and  O_28
REMARK                            x       y       z     vdW  Elec       q    Type
REMARK                         _______ _______ _______ _____ _____    ______ ____
ROOT
ATOM      1  C   UNL     1      -0.007  10.294  18.841  0.00  0.00    +0.000 A 
ATOM      2  N   UNL     1      -0.432  10.229  17.555  0.00  0.00    +0.000 NA
ATOM      3  C   UNL     1      -1.483  10.902  17.176  0.00  0.00    +0.000 A 
ATOM      4  N   UNL     1      -1.663  12.059  17.705  0.00  0.00    +0.000 NA
ATOM      5  C   UNL     1      -1.699  11.991  18.994  0.00  0.00    +0.000 A 
ATOM      6  C   UNL     1      -2.843  12.651  19.376  0.00  0.00    +0.000 A 
ATOM      7  C   UNL     1      -3.238  12.867  20.670  0.00  0.00    +0.000 A 
ATOM      8  C   UNL     1      -2.399  12.547  21.716  0.00  0.00    +0.000 A 
ATOM      9  C   UNL     1      -1.210  11.742  21.315  0.00  0.00    +0.000 A 
ATOM     10  C   UNL     1      -0.841  11.222  19.820  0.00  0.00    +0.000 A 
ENDROOT
BRANCH   1  14
ATOM     11  C   UNL     1       2.552   6.623  19.626  0.00  0.00    +0.000 C 
ATOM     12  C   UNL     1       1.894   7.450  20.719  0.00  0.00    +0.000 C 
ATOM     13  C   UNL     1       0.873   8.511  20.285  0.00  0.00    +0.000 C 
ATOM     14  N   UNL     1       0.998   9.278  18.951  0.00  0.00    +0.000 N 
ATOM     15  C   UNL     1       1.664   8.508  17.906  0.00  0.00    +0.000 C 
ATOM     16  C   UNL     1       2.822   7.588  18.440  0.00  0.00    +0.000 C 
BRANCH  11  22
ATOM     17  C   UNL     1       2.701   4.241  18.552  0.00  0.00    +0.000 A 
ATOM     18  C   UNL     1       2.542   2.845  18.695  0.00  0.00    +0.000 A 
ATOM     19  C   UNL     1       1.698   2.309  19.662  0.00  0.00    +0.000 A 
ATOM     20  C   UNL     1       1.017   3.178  20.508  0.00  0.00    +0.000 A 
ATOM     21  C   UNL     1       1.254   4.566  20.433  0.00  0.00    +0.000 A 
ATOM     22  C   UNL     1       2.132   5.138  19.477  0.00  0.00    +0.000 A 
BRANCH  17  24
ATOM     23  C   UNL     1       4.249   3.724  16.908  0.00  0.00    +0.000 C 
ATOM     24  O   UNL     1       3.440   4.739  17.512  0.00  0.00    +0.000 OA
ENDBRANCH  17  24
ENDBRANCH  11  22
ENDBRANCH   1  14
BRANCH   8  25
ATOM     25  N   UNL     1      -2.823  12.941  22.995  0.00  0.00    +0.000 N 
ATOM     26  C   UNL     1      -3.235  14.301  23.365  0.00  0.00    +0.000 C 
ATOM     27  C   UNL     1      -3.571  14.193  24.871  0.00  0.00    +0.000 C 
ATOM     28  C   UNL     1      -4.205  12.824  25.031  0.00  0.00    +0.000 C 
ATOM     29  C   UNL     1      -3.542  11.985  23.919  0.00  0.00    +0.000 C 
BRANCH  28  30
ATOM     30  O   UNL     1      -5.631  12.897  24.928  0.00  0.00    +0.000 OA
ATOM     31  H   UNL     1      -5.897  13.810  24.733  0.00  0.00    +0.000 HD
ENDBRANCH  28  30
ENDBRANCH   8  25
BRANCH   3  32
ATOM     32  C   UNL     1      -2.737  10.111  16.920  0.00  0.00    +0.000 C 
ATOM     33  C   UNL     1      -3.899  10.791  16.237  0.00  0.00    +0.000 C 
ATOM     34  C   UNL     1      -3.170   9.662  15.565  0.00  0.00    +0.000 C 
ENDBRANCH   3  32
TORSDOF 6
ENDMDL
MODEL 8
REMARK VINA RESULT:      -7.7      2.144      3.152
REMARK  Name = 
REMARK  7 active torsions:
REMARK  status: ('A' for Active; 'I' for Inactive)
REMARK    1  A    between atoms: C_1  and  O_2
REMARK    2  A    between atoms: O_2  and  C_3
REMARK    3  A    between atoms: C_8  and  C_9
REMARK    4  A    between atoms: N_12  and  C_13
REMARK    5  A    between atoms: C_15  and  C_16
REMARK    6  A    between atoms: C_23  and  N_24
REMARK    7  A    between atoms: C_27  and  O_28
REMARK                            x       y       z     vdW  Elec       q    Type
REMARK                         _______ _______ _______ _____ _____    ______ ____
ROOT
ATOM      1  C   UNL     1       2.347   6.903  19.347  0.00  0.00    +0.000 A 
ATOM      2  N   UNL     1       1.781   6.305  20.424  0.00  0.00    +0.000 NA
ATOM      3  C   UNL     1       2.073   5.069  20.717  0.00  0.00    +0.000 A 
ATOM      4  N   UNL     1       3.282   4.685  20.509  0.00  0.00    +0.000 NA
ATOM      5  C   UNL     1       3.637   4.878  19.282  0.00  0.00    +0.000 A 
ATOM      6  C   UNL     1       4.149   3.681  18.843  0.00  0.00    +0.000 A 
ATOM      7  C   UNL     1       4.698   3.460  17.607  0.00  0.00    +0.000 A 
ATOM      8  C   UNL     1       4.910   4.513  16.743  0.00  0.00    +0.000 A 
ATOM      9  C   UNL     1       4.266   5.788  17.170  0.00  0.00    +0.000 A 
ATOM     10  C   UNL     1       3.364   6.029  18.501  0.00  0.00    +0.000 A 
ENDROOT
BRANCH   1  14
ATOM     11  C   UNL     1       0.646  11.112  19.514  0.00  0.00    +0.000 C 
ATOM     12  C   UNL     1       0.684  10.164  20.701  0.00  0.00    +0.000 C 
ATOM     13  C   UNL     1       1.500   8.872  20.548  0.00  0.00    +0.000 C 
ATOM     14  N   UNL     1       1.640   8.142  19.196  0.00  0.00    +0.000 N 
ATOM     15  C   UNL     1       1.566   9.039  18.048  0.00  0.00    +0.000 C 
ATOM     16  C   UNL     1       0.558  10.229  18.240  0.00  0.00    +0.000 C 
BRANCH  11  22
ATOM     17  C   UNL     1       1.534  13.227  20.777  0.00  0.00    +0.000 A 
ATOM     18  C   UNL     1       2.535  14.212  20.916  0.00  0.00    +0.000 A 
ATOM     19  C   UNL     1       3.370  14.549  19.855  0.00  0.00    +0.000 A 
ATOM     20  C   UNL     1       3.214  13.880  18.646  0.00  0.00    +0.000 A 
ATOM     21  C   UNL     1       2.284  12.825  18.538  0.00  0.00    +0.000 A 
ATOM     22  C   UNL     1       1.440  12.441  19.612  0.00  0.00    +0.000 A 
BRANCH  17  24
ATOM     23  C   UNL     1      -0.437  13.940  21.763  0.00  0.00    +0.000 C 
ATOM     24  O   UNL     1       0.648  13.007  21.798  0.00  0.00    +0.000 OA
ENDBRANCH  17  24
ENDBRANCH  11  22
ENDBRANCH   1  14
BRANCH   8  25
ATOM     25  N   UNL     1       5.613   4.216  15.564  0.00  0.00    +0.000 N 
ATOM     26  C   UNL     1       5.042   4.242  14.212  0.00  0.00    +0.000 C 
ATOM     27  C   UNL     1       6.217   3.815  13.302  0.00  0.00    +0.000 C 
ATOM     28  C   UNL     1       7.446   4.440  13.933  0.00  0.00    +0.000 C 
ATOM     29  C   UNL     1       7.093   4.498  15.435  0.00  0.00    +0.000 C 
BRANCH  28  30
ATOM     30  O   UNL     1       7.734   5.718  13.357  0.00  0.00    +0.000 OA
ATOM     31  H   UNL     1       8.452   6.144  13.852  0.00  0.00    +0.000 HD
ENDBRANCH  28  30
ENDBRANCH   8  25
BRANCH   3  32
ATOM     32  C   UNL     1       1.014   4.038  20.437  0.00  0.00    +0.000 C 
ATOM     33  C   UNL     1       1.004   3.353  19.091  0.00  0.00    +0.000 C 
ATOM     34  C   UNL     1       1.287   2.574  20.345  0.00  0.00    +0.000 C 
ENDBRANCH   3  32
TORSDOF 6
ENDMDL
MODEL 9
REMARK VINA RESULT:      -7.7      3.870      9.438
REMARK  Name = 
REMARK  7 active torsions:
REMARK  status: ('A' for Active; 'I' for Inactive)
REMARK    1  A    between atoms: C_1  and  O_2
REMARK    2  A    between atoms: O_2  and  C_3
REMARK    3  A    between atoms: C_8  and  C_9
REMARK    4  A    between atoms: N_12  and  C_13
REMARK    5  A    between atoms: C_15  and  C_16
REMARK    6  A    between atoms: C_23  and  N_24
REMARK    7  A    between atoms: C_27  and  O_28
REMARK                            x       y       z     vdW  Elec       q    Type
REMARK                         _______ _______ _______ _____ _____    ______ ____
ROOT
ATOM      1  C   UNL     1       0.965  10.055  19.314  0.00  0.00    +0.000 A 
ATOM      2  N   UNL     1       0.078   9.600  20.232  0.00  0.00    +0.000 NA
ATOM      3  C   UNL     1      -0.703  10.435  20.860  0.00  0.00    +0.000 A 
ATOM      4  N   UNL     1      -1.144  11.442  20.195  0.00  0.00    +0.000 NA
ATOM      5  C   UNL     1      -0.179  12.134  19.686  0.00  0.00    +0.000 A 
ATOM      6  C   UNL     1      -0.412  13.437  20.055  0.00  0.00    +0.000 A 
ATOM      7  C   UNL     1       0.344  14.515  19.675  0.00  0.00    +0.000 A 
ATOM      8  C   UNL     1       1.345  14.367  18.739  0.00  0.00    +0.000 A 
ATOM      9  C   UNL     1       1.668  12.948  18.417  0.00  0.00    +0.000 A 
ATOM     10  C   UNL     1       0.981  11.620  19.054  0.00  0.00    +0.000 A 
ENDROOT
BRANCH   1  14
ATOM     11  C   UNL     1       3.017   6.029  18.848  0.00  0.00    +0.000 C 
ATOM     12  C   UNL     1       2.771   6.707  20.186  0.00  0.00    +0.000 C 
ATOM     13  C   UNL     1       1.860   7.943  20.195  0.00  0.00    +0.000 C 
ATOM     14  N   UNL     1       1.794   8.926  19.007  0.00  0.00    +0.000 N 
ATOM     15  C   UNL     1       2.067   8.292  17.721  0.00  0.00    +0.000 C 
ATOM     16  C   UNL     1       3.155   7.160  17.794  0.00  0.00    +0.000 C 
BRANCH  11  22
ATOM     17  C   UNL     1       2.797   3.714  17.644  0.00  0.00    +0.000 A 
ATOM     18  C   UNL     1       2.376   2.368  17.695  0.00  0.00    +0.000 A 
ATOM     19  C   UNL     1       1.384   1.954  18.578  0.00  0.00    +0.000 A 
ATOM     20  C   UNL     1       0.819   2.894  19.433  0.00  0.00    +0.000 A 
ATOM     21  C   UNL     1       1.311   4.215  19.455  0.00  0.00    +0.000 A 
ATOM     22  C   UNL     1       2.342   4.658  18.587  0.00  0.00    +0.000 A 
BRANCH  17  24
ATOM     23  C   UNL     1       5.035   3.824  17.056  0.00  0.00    +0.000 C 
ATOM     24  O   UNL     1       3.685   4.115  16.681  0.00  0.00    +0.000 OA
ENDBRANCH  17  24
ENDBRANCH  11  22
ENDBRANCH   1  14
BRANCH   8  25
ATOM     25  N   UNL     1       1.965  15.549  18.300  0.00  0.00    +0.000 N 
ATOM     26  C   UNL     1       3.011  15.621  17.274  0.00  0.00    +0.000 C 
ATOM     27  C   UNL     1       3.355  17.126  17.196  0.00  0.00    +0.000 C 
ATOM     28  C   UNL     1       2.032  17.839  17.397  0.00  0.00    +0.000 C 
ATOM     29  C   UNL     1       1.229  16.869  18.289  0.00  0.00    +0.000 C 
BRANCH  28  30
ATOM     30  O   UNL     1       1.402  18.129  16.145  0.00  0.00    +0.000 OA
ATOM     31  H   UNL     1       0.561  17.649  16.086  0.00  0.00    +0.000 HD
ENDBRANCH  28  30
ENDBRANCH   8  25
BRANCH   3  32
ATOM     32  C   UNL     1      -0.380  10.710  22.303  0.00  0.00    +0.000 C 
ATOM     33  C   UNL     1      -1.502  10.706  23.313  0.00  0.00    +0.000 C 
ATOM     34  C   UNL     1      -0.414   9.671  23.372  0.00  0.00    +0.000 C 
ENDBRANCH   3  32
TORSDOF 6
ENDMDL
