MODEL 1
REMARK VINA RESULT:      -8.2      0.000      0.000
REMARK  Name = 
REMARK  7 active torsions:
REMARK  status: ('A' for Active; 'I' for Inactive)
REMARK    1  A    between atoms: C_1  and  C_2
REMARK    2  A    between atoms: C_2  and  N_3
REMARK    3  A    between atoms: N_3  and  C_4
REMARK    4  A    between atoms: C_4  and  C_5
REMARK    5  A    between atoms: C_9  and  S_10
REMARK    6  A    between atoms: S_10  and  C_13
REMARK    7  A    between atoms: C_24  and  C_25
REMARK                            x       y       z     vdW  Elec       q    Type
REMARK                         _______ _______ _______ _____ _____    ______ ____
ROOT
ATOM      1  N   UNL     1       2.071   4.238  19.904  0.00  0.00    +0.000 N 
ATOM      2  C   UNL     1       2.334   5.424  19.229  0.00  0.00    +0.000 A 
ATOM      3  N   UNL     1       1.799   6.551  19.640  0.00  0.00    +0.000 NA
ATOM      4  C   UNL     1       2.103   7.688  18.958  0.00  0.00    +0.000 A 
ATOM      5  C   UNL     1       1.702   9.008  19.045  0.00  0.00    +0.000 A 
ATOM      6  N   UNL     1       2.378   9.768  18.121  0.00  0.00    +0.000 NA
ATOM      7  N   UNL     1       3.184   8.961  17.436  0.00  0.00    +0.000 NA
ATOM      8  N   UNL     1       3.008   7.716  17.913  0.00  0.00    +0.000 N 
ATOM      9  C   UNL     1       3.650   6.566  17.437  0.00  0.00    +0.000 A 
ATOM     10  C   UNL     1       4.590   6.586  16.403  0.00  0.00    +0.000 A 
ATOM     11  C   UNL     1       5.188   5.383  16.001  0.00  0.00    +0.000 A 
ATOM     12  C   UNL     1       6.231   5.336  14.926  0.00  0.00    +0.000 C 
ATOM     13  C   UNL     1       4.828   4.183  16.638  0.00  0.00    +0.000 A 
ATOM     14  C   UNL     1       3.898   4.179  17.677  0.00  0.00    +0.000 A 
ATOM     15  C   UNL     1       3.300   5.376  18.078  0.00  0.00    +0.000 A 
ENDROOT
BRANCH   5  16
ATOM     16  S   UNL     1       0.561   9.656  20.155  0.00  0.00    +0.000 S 
ATOM     17  O   UNL     1       0.038   8.519  20.891  0.00  0.00    +0.000 OA
ATOM     18  O   UNL     1       1.235  10.747  20.833  0.00  0.00    +0.000 OA
BRANCH  16  19
ATOM     19  C   UNL     1      -0.744  10.312  19.151  0.00  0.00    +0.000 A 
ATOM     20  C   UNL     1      -1.495  11.395  19.620  0.00  0.00    +0.000 A 
ATOM     21  C   UNL     1      -2.545  11.889  18.844  0.00  0.00    +0.000 A 
ATOM     22  C   UNL     1      -2.828  11.314  17.604  0.00  0.00    +0.000 A 
ATOM     23  C   UNL     1      -2.051  10.260  17.124  0.00  0.00    +0.000 A 
ATOM     24  C   UNL     1      -0.998   9.761  17.892  0.00  0.00    +0.000 A 
ENDBRANCH  16  19
ENDBRANCH   5  16
BRANCH   1  26
ATOM     25  C   UNL     1       1.948   2.820  21.908  0.00  0.00    +0.000 C 
ATOM     26  C   UNL     1       2.178   4.229  21.367  0.00  0.00    +0.000 C 
ENDBRANCH   1  26
BRANCH   1  27
ATOM     27  C   UNL     1       1.098   3.310  19.310  0.00  0.00    +0.000 C 
ATOM     28  C   UNL     1       1.745   2.109  18.642  0.00  0.00    +0.000 C 
ENDBRANCH   1  27
TORSDOF 4
ENDMDL
MODEL 2
REMARK VINA RESULT:      -8.0      3.649      7.302
REMARK  Name = 
REMARK  7 active torsions:
REMARK  status: ('A' for Active; 'I' for Inactive)
REMARK    1  A    between atoms: C_1  and  C_2
REMARK    2  A    between atoms: C_2  and  N_3
REMARK    3  A    between atoms: N_3  and  C_4
REMARK    4  A    between atoms: C_4  and  C_5
REMARK    5  A    between atoms: C_9  and  S_10
REMARK    6  A    between atoms: S_10  and  C_13
REMARK    7  A    between atoms: C_24  and  C_25
REMARK                            x       y       z     vdW  Elec       q    Type
REMARK                         _______ _______ _______ _____ _____    ______ ____
ROOT
ATOM      1  N   UNL     1       2.403   3.955  19.839  0.00  0.00    +0.000 N 
ATOM      2  C   UNL     1       3.015   4.892  19.014  0.00  0.00    +0.000 A 
ATOM      3  N   UNL     1       3.954   4.520  18.175  0.00  0.00    +0.000 NA
ATOM      4  C   UNL     1       4.507   5.472  17.374  0.00  0.00    +0.000 A 
ATOM      5  C   UNL     1       5.528   5.481  16.442  0.00  0.00    +0.000 A 
ATOM      6  N   UNL     1       5.640   6.729  15.878  0.00  0.00    +0.000 NA
ATOM      7  N   UNL     1       4.730   7.518  16.444  0.00  0.00    +0.000 NA
ATOM      8  N   UNL     1       4.067   6.782  17.353  0.00  0.00    +0.000 N 
ATOM      9  C   UNL     1       3.047   7.252  18.190  0.00  0.00    +0.000 A 
ATOM     10  C   UNL     1       2.572   8.565  18.156  0.00  0.00    +0.000 A 
ATOM     11  C   UNL     1       1.538   8.940  19.027  0.00  0.00    +0.000 A 
ATOM     12  C   UNL     1       0.954  10.320  19.018  0.00  0.00    +0.000 C 
ATOM     13  C   UNL     1       1.006   7.993  19.919  0.00  0.00    +0.000 A 
ATOM     14  C   UNL     1       1.481   6.683  19.935  0.00  0.00    +0.000 A 
ATOM     15  C   UNL     1       2.511   6.307  19.069  0.00  0.00    +0.000 A 
ENDROOT
BRANCH   5  16
ATOM     16  S   UNL     1       6.509   4.144  15.992  0.00  0.00    +0.000 S 
ATOM     17  O   UNL     1       7.785   4.352  16.653  0.00  0.00    +0.000 OA
ATOM     18  O   UNL     1       5.714   2.958  16.243  0.00  0.00    +0.000 OA
BRANCH  16  19
ATOM     19  C   UNL     1       6.759   4.318  14.245  0.00  0.00    +0.000 A 
ATOM     20  C   UNL     1       6.000   3.544  13.361  0.00  0.00    +0.000 A 
ATOM     21  C   UNL     1       6.221   3.656  11.988  0.00  0.00    +0.000 A 
ATOM     22  C   UNL     1       7.181   4.545  11.505  0.00  0.00    +0.000 A 
ATOM     23  C   UNL     1       7.908   5.343  12.389  0.00  0.00    +0.000 A 
ATOM     24  C   UNL     1       7.692   5.240  13.763  0.00  0.00    +0.000 A 
ENDBRANCH  16  19
ENDBRANCH   5  16
BRANCH   1  26
ATOM     25  C   UNL     1       0.481   2.817  18.813  0.00  0.00    +0.000 C 
ATOM     26  C   UNL     1       1.941   2.697  19.242  0.00  0.00    +0.000 C 
ENDBRANCH   1  26
BRANCH   1  27
ATOM     27  C   UNL     1       2.822   3.901  21.247  0.00  0.00    +0.000 C 
ATOM     28  C   UNL     1       2.243   2.715  21.999  0.00  0.00    +0.000 C 
ENDBRANCH   1  27
TORSDOF 4
ENDMDL
MODEL 3
REMARK VINA RESULT:      -7.9      1.150      1.476
REMARK  Name = 
REMARK  7 active torsions:
REMARK  status: ('A' for Active; 'I' for Inactive)
REMARK    1  A    between atoms: C_1  and  C_2
REMARK    2  A    between atoms: C_2  and  N_3
REMARK    3  A    between atoms: N_3  and  C_4
REMARK    4  A    between atoms: C_4  and  C_5
REMARK    5  A    between atoms: C_9  and  S_10
REMARK    6  A    between atoms: S_10  and  C_13
REMARK    7  A    between atoms: C_24  and  C_25
REMARK                            x       y       z     vdW  Elec       q    Type
REMARK                         _______ _______ _______ _____ _____    ______ ____
ROOT
ATOM      1  N   UNL     1       2.658   3.192  19.906  0.00  0.00    +0.000 N 
ATOM      2  C   UNL     1       2.778   4.458  19.345  0.00  0.00    +0.000 A 
ATOM      3  N   UNL     1       2.221   5.495  19.926  0.00  0.00    +0.000 NA
ATOM      4  C   UNL     1       2.385   6.715  19.348  0.00  0.00    +0.000 A 
ATOM      5  C   UNL     1       1.915   7.987  19.618  0.00  0.00    +0.000 A 
ATOM      6  N   UNL     1       2.447   8.885  18.723  0.00  0.00    +0.000 NA
ATOM      7  N   UNL     1       3.225   8.212  17.879  0.00  0.00    +0.000 NA
ATOM      8  N   UNL     1       3.175   6.916  18.231  0.00  0.00    +0.000 N 
ATOM      9  C   UNL     1       3.833   5.870  17.572  0.00  0.00    +0.000 A 
ATOM     10  C   UNL     1       4.660   6.063  16.463  0.00  0.00    +0.000 A 
ATOM     11  C   UNL     1       5.286   4.953  15.875  0.00  0.00    +0.000 A 
ATOM     12  C   UNL     1       6.214   5.092  14.707  0.00  0.00    +0.000 C 
ATOM     13  C   UNL     1       5.066   3.672  16.408  0.00  0.00    +0.000 A 
ATOM     14  C   UNL     1       4.248   3.494  17.524  0.00  0.00    +0.000 A 
ATOM     15  C   UNL     1       3.624   4.597  18.109  0.00  0.00    +0.000 A 
ENDROOT
BRANCH   5  16
ATOM     16  S   UNL     1       0.857   8.434  20.895  0.00  0.00    +0.000 S 
ATOM     17  O   UNL     1      -0.186   7.424  20.914  0.00  0.00    +0.000 OA
ATOM     18  O   UNL     1       1.699   8.668  22.052  0.00  0.00    +0.000 OA
BRANCH  16  19
ATOM     19  C   UNL     1       0.131   9.968  20.383  0.00  0.00    +0.000 A 
ATOM     20  C   UNL     1       0.565  11.163  20.966  0.00  0.00    +0.000 A 
ATOM     21  C   UNL     1      -0.031  12.367  20.588  0.00  0.00    +0.000 A 
ATOM     22  C   UNL     1      -1.040  12.375  19.624  0.00  0.00    +0.000 A 
ATOM     23  C   UNL     1      -1.442  11.184  19.017  0.00  0.00    +0.000 A 
ATOM     24  C   UNL     1      -0.851   9.976  19.388  0.00  0.00    +0.000 A 
ENDBRANCH  16  19
ENDBRANCH   5  16
BRANCH   1  26
ATOM     25  C   UNL     1       1.638   2.619  22.068  0.00  0.00    +0.000 C 
ATOM     26  C   UNL     1       2.914   3.039  21.343  0.00  0.00    +0.000 C 
ENDBRANCH   1  26
BRANCH   1  27
ATOM     27  C   UNL     1       1.687   2.264  19.309  0.00  0.00    +0.000 C 
ATOM     28  C   UNL     1       0.474   2.963  18.720  0.00  0.00    +0.000 C 
ENDBRANCH   1  27
TORSDOF 4
ENDMDL
MODEL 4
REMARK VINA RESULT:      -7.6      1.284      1.714
REMARK  Name = 
REMARK  7 active torsions:
REMARK  status: ('A' for Active; 'I' for Inactive)
REMARK    1  A    between atoms: C_1  and  C_2
REMARK    2  A    between atoms: C_2  and  N_3
REMARK    3  A    between atoms: N_3  and  C_4
REMARK    4  A    between atoms: C_4  and  C_5
REMARK    5  A    between atoms: C_9  and  S_10
REMARK    6  A    between atoms: S_10  and  C_13
REMARK    7  A    between atoms: C_24  and  C_25
REMARK                            x       y       z     vdW  Elec       q    Type
REMARK                         _______ _______ _______ _____ _____    ______ ____
ROOT
ATOM      1  N   UNL     1       2.090   4.159  19.929  0.00  0.00    +0.000 N 
ATOM      2  C   UNL     1       2.358   5.344  19.255  0.00  0.00    +0.000 A 
ATOM      3  N   UNL     1       1.839   6.475  19.674  0.00  0.00    +0.000 NA
ATOM      4  C   UNL     1       2.149   7.611  18.991  0.00  0.00    +0.000 A 
ATOM      5  C   UNL     1       1.763   8.935  19.086  0.00  0.00    +0.000 A 
ATOM      6  N   UNL     1       2.438   9.689  18.156  0.00  0.00    +0.000 NA
ATOM      7  N   UNL     1       3.228   8.875  17.461  0.00  0.00    +0.000 NA
ATOM      8  N   UNL     1       3.044   7.631  17.937  0.00  0.00    +0.000 N 
ATOM      9  C   UNL     1       3.668   6.475  17.452  0.00  0.00    +0.000 A 
ATOM     10  C   UNL     1       4.597   6.487  16.408  0.00  0.00    +0.000 A 
ATOM     11  C   UNL     1       5.178   5.278  15.997  0.00  0.00    +0.000 A 
ATOM     12  C   UNL     1       6.209   5.222  14.912  0.00  0.00    +0.000 C 
ATOM     13  C   UNL     1       4.812   4.081  16.636  0.00  0.00    +0.000 A 
ATOM     14  C   UNL     1       3.892   4.085  17.684  0.00  0.00    +0.000 A 
ATOM     15  C   UNL     1       3.312   5.287  18.094  0.00  0.00    +0.000 A 
ENDROOT
BRANCH   5  16
ATOM     16  S   UNL     1       0.641   9.592  20.208  0.00  0.00    +0.000 S 
ATOM     17  O   UNL     1      -0.631   8.958  19.911  0.00  0.00    +0.000 OA
ATOM     18  O   UNL     1       1.259   9.467  21.514  0.00  0.00    +0.000 OA
BRANCH  16  19
ATOM     19  C   UNL     1       0.513  11.309  19.787  0.00  0.00    +0.000 A 
ATOM     20  C   UNL     1      -0.444  11.720  18.854  0.00  0.00    +0.000 A 
ATOM     21  C   UNL     1      -0.521  13.066  18.497  0.00  0.00    +0.000 A 
ATOM     22  C   UNL     1       0.341  13.995  19.082  0.00  0.00    +0.000 A 
ATOM     23  C   UNL     1       1.268  13.586  20.042  0.00  0.00    +0.000 A 
ATOM     24  C   UNL     1       1.351  12.242  20.406  0.00  0.00    +0.000 A 
ENDBRANCH  16  19
ENDBRANCH   5  16
BRANCH   1  26
ATOM     25  C   UNL     1       1.804   2.782  21.946  0.00  0.00    +0.000 C 
ATOM     26  C   UNL     1       2.211   4.145  21.392  0.00  0.00    +0.000 C 
ENDBRANCH   1  26
BRANCH   1  27
ATOM     27  C   UNL     1       1.100   3.243  19.344  0.00  0.00    +0.000 C 
ATOM     28  C   UNL     1       1.724   2.006  18.720  0.00  0.00    +0.000 C 
ENDBRANCH   1  27
TORSDOF 4
ENDMDL
MODEL 5
REMARK VINA RESULT:      -7.4      1.509      4.185
REMARK  Name = 
REMARK  7 active torsions:
REMARK  status: ('A' for Active; 'I' for Inactive)
REMARK    1  A    between atoms: C_1  and  C_2
REMARK    2  A    between atoms: C_2  and  N_3
REMARK    3  A    between atoms: N_3  and  C_4
REMARK    4  A    between atoms: C_4  and  C_5
REMARK    5  A    between atoms: C_9  and  S_10
REMARK    6  A    between atoms: S_10  and  C_13
REMARK    7  A    between atoms: C_24  and  C_25
REMARK                            x       y       z     vdW  Elec       q    Type
REMARK                         _______ _______ _______ _____ _____    ______ ____
ROOT
ATOM      1  N   UNL     1       5.034   6.202  17.429  0.00  0.00    +0.000 N 
ATOM      2  C   UNL     1       3.999   6.425  18.329  0.00  0.00    +0.000 A 
ATOM      3  N   UNL     1       3.332   7.556  18.304  0.00  0.00    +0.000 NA
ATOM      4  C   UNL     1       2.314   7.716  19.192  0.00  0.00    +0.000 A 
ATOM      5  C   UNL     1       1.453   8.752  19.504  0.00  0.00    +0.000 A 
ATOM      6  N   UNL     1       0.563   8.350  20.470  0.00  0.00    +0.000 NA
ATOM      7  N   UNL     1       0.849   7.092  20.796  0.00  0.00    +0.000 NA
ATOM      8  N   UNL     1       1.907   6.716  20.055  0.00  0.00    +0.000 N 
ATOM      9  C   UNL     1       2.540   5.468  20.120  0.00  0.00    +0.000 A 
ATOM     10  C   UNL     1       2.118   4.438  20.964  0.00  0.00    +0.000 A 
ATOM     11  C   UNL     1       2.811   3.218  20.953  0.00  0.00    +0.000 A 
ATOM     12  C   UNL     1       2.391   2.058  21.803  0.00  0.00    +0.000 C 
ATOM     13  C   UNL     1       3.917   3.058  20.099  0.00  0.00    +0.000 A 
ATOM     14  C   UNL     1       4.320   4.090  19.253  0.00  0.00    +0.000 A 
ATOM     15  C   UNL     1       3.632   5.305  19.264  0.00  0.00    +0.000 A 
ENDROOT
BRANCH   5  16
ATOM     16  S   UNL     1       1.435  10.313  18.786  0.00  0.00    +0.000 S 
ATOM     17  O   UNL     1       1.891  11.227  19.818  0.00  0.00    +0.000 OA
ATOM     18  O   UNL     1       2.142  10.185  17.527  0.00  0.00    +0.000 OA
BRANCH  16  19
ATOM     19  C   UNL     1      -0.274  10.656  18.461  0.00  0.00    +0.000 A 
ATOM     20  C   UNL     1      -0.967   9.878  17.528  0.00  0.00    +0.000 A 
ATOM     21  C   UNL     1      -2.302  10.171  17.248  0.00  0.00    +0.000 A 
ATOM     22  C   UNL     1      -2.941  11.221  17.908  0.00  0.00    +0.000 A 
ATOM     23  C   UNL     1      -2.257  11.969  18.866  0.00  0.00    +0.000 A 
ATOM     24  C   UNL     1      -0.922  11.683  19.155  0.00  0.00    +0.000 A 
ENDBRANCH  16  19
ENDBRANCH   5  16
BRANCH   1  26
ATOM     25  C   UNL     1       5.373   5.397  15.131  0.00  0.00    +0.000 C 
ATOM     26  C   UNL     1       4.804   6.506  16.012  0.00  0.00    +0.000 C 
ENDBRANCH   1  26
BRANCH   1  27
ATOM     27  C   UNL     1       6.413   6.346  17.917  0.00  0.00    +0.000 C 
ATOM     28  C   UNL     1       7.109   7.589  17.388  0.00  0.00    +0.000 C 
ENDBRANCH   1  27
TORSDOF 4
ENDMDL
MODEL 6
REMARK VINA RESULT:      -7.3      5.750      8.663
REMARK  Name = 
REMARK  7 active torsions:
REMARK  status: ('A' for Active; 'I' for Inactive)
REMARK    1  A    between atoms: C_1  and  C_2
REMARK    2  A    between atoms: C_2  and  N_3
REMARK    3  A    between atoms: N_3  and  C_4
REMARK    4  A    between atoms: C_4  and  C_5
REMARK    5  A    between atoms: C_9  and  S_10
REMARK    6  A    between atoms: S_10  and  C_13
REMARK    7  A    between atoms: C_24  and  C_25
REMARK                            x       y       z     vdW  Elec       q    Type
REMARK                         _______ _______ _______ _____ _____    ______ ____
ROOT
ATOM      1  N   UNL     1      -1.872  13.632  21.760  0.00  0.00    +0.000 N 
ATOM      2  C   UNL     1      -2.390  12.897  20.702  0.00  0.00    +0.000 A 
ATOM      3  N   UNL     1      -3.613  13.119  20.278  0.00  0.00    +0.000 NA
ATOM      4  C   UNL     1      -4.067  12.387  19.224  0.00  0.00    +0.000 A 
ATOM      5  C   UNL     1      -5.274  12.293  18.557  0.00  0.00    +0.000 A 
ATOM      6  N   UNL     1      -5.165  11.411  17.509  0.00  0.00    +0.000 NA
ATOM      7  N   UNL     1      -3.925  10.927  17.506  0.00  0.00    +0.000 NA
ATOM      8  N   UNL     1      -3.272  11.487  18.539  0.00  0.00    +0.000 N 
ATOM      9  C   UNL     1      -1.947  11.217  18.904  0.00  0.00    +0.000 A 
ATOM     10  C   UNL     1      -1.124  10.334  18.200  0.00  0.00    +0.000 A 
ATOM     11  C   UNL     1       0.195  10.136  18.636  0.00  0.00    +0.000 A 
ATOM     12  C   UNL     1       1.144   9.234  17.908  0.00  0.00    +0.000 C 
ATOM     13  C   UNL     1       0.661  10.823  19.771  0.00  0.00    +0.000 A 
ATOM     14  C   UNL     1      -0.167  11.710  20.457  0.00  0.00    +0.000 A 
ATOM     15  C   UNL     1      -1.481  11.908  20.025  0.00  0.00    +0.000 A 
ENDROOT
BRANCH   5  16
ATOM     16  S   UNL     1      -6.711  13.160  18.923  0.00  0.00    +0.000 S 
ATOM     17  O   UNL     1      -6.359  14.565  18.828  0.00  0.00    +0.000 OA
ATOM     18  O   UNL     1      -7.750  12.585  18.089  0.00  0.00    +0.000 OA
BRANCH  16  19
ATOM     19  C   UNL     1      -7.058  12.791  20.622  0.00  0.00    +0.000 A 
ATOM     20  C   UNL     1      -6.727  13.723  21.610  0.00  0.00    +0.000 A 
ATOM     21  C   UNL     1      -6.968  13.418  22.950  0.00  0.00    +0.000 A 
ATOM     22  C   UNL     1      -7.551  12.198  23.295  0.00  0.00    +0.000 A 
ATOM     23  C   UNL     1      -7.916  11.287  22.302  0.00  0.00    +0.000 A 
ATOM     24  C   UNL     1      -7.680  11.585  20.959  0.00  0.00    +0.000 A 
ENDBRANCH  16  19
ENDBRANCH   5  16
BRANCH   1  26
ATOM     25  C   UNL     1      -1.567  15.693  23.066  0.00  0.00    +0.000 C 
ATOM     26  C   UNL     1      -2.037  15.090  21.745  0.00  0.00    +0.000 C 
ENDBRANCH   1  26
BRANCH   1  27
ATOM     27  C   UNL     1      -1.818  12.991  23.082  0.00  0.00    +0.000 C 
ATOM     28  C   UNL     1      -3.122  12.318  23.475  0.00  0.00    +0.000 C 
ENDBRANCH   1  27
TORSDOF 4
ENDMDL
MODEL 7
REMARK VINA RESULT:      -7.3      5.896      8.884
REMARK  Name = 
REMARK  7 active torsions:
REMARK  status: ('A' for Active; 'I' for Inactive)
REMARK    1  A    between atoms: C_1  and  C_2
REMARK    2  A    between atoms: C_2  and  N_3
REMARK    3  A    between atoms: N_3  and  C_4
REMARK    4  A    between atoms: C_4  and  C_5
REMARK    5  A    between atoms: C_9  and  S_10
REMARK    6  A    between atoms: S_10  and  C_13
REMARK    7  A    between atoms: C_24  and  C_25
REMARK                            x       y       z     vdW  Elec       q    Type
REMARK                         _______ _______ _______ _____ _____    ______ ____
ROOT
ATOM      1  N   UNL     1      -5.430  11.764  18.424  0.00  0.00    +0.000 N 
ATOM      2  C   UNL     1      -4.303  12.192  19.114  0.00  0.00    +0.000 A 
ATOM      3  N   UNL     1      -4.412  13.083  20.072  0.00  0.00    +0.000 NA
ATOM      4  C   UNL     1      -3.281  13.453  20.731  0.00  0.00    +0.000 A 
ATOM      5  C   UNL     1      -2.993  14.375  21.720  0.00  0.00    +0.000 A 
ATOM      6  N   UNL     1      -1.664  14.299  22.062  0.00  0.00    +0.000 NA
ATOM      7  N   UNL     1      -1.096  13.367  21.301  0.00  0.00    +0.000 NA
ATOM      8  N   UNL     1      -2.049  12.875  20.490  0.00  0.00    +0.000 N 
ATOM      9  C   UNL     1      -1.853  11.893  19.510  0.00  0.00    +0.000 A 
ATOM     10  C   UNL     1      -0.620  11.278  19.278  0.00  0.00    +0.000 A 
ATOM     11  C   UNL     1      -0.523  10.296  18.281  0.00  0.00    +0.000 A 
ATOM     12  C   UNL     1       0.758   9.569  18.005  0.00  0.00    +0.000 C 
ATOM     13  C   UNL     1      -1.663   9.954  17.532  0.00  0.00    +0.000 A 
ATOM     14  C   UNL     1      -2.890  10.567  17.782  0.00  0.00    +0.000 A 
ATOM     15  C   UNL     1      -2.988  11.545  18.774  0.00  0.00    +0.000 A 
ENDROOT
BRANCH   5  16
ATOM     16  S   UNL     1      -4.106  15.449  22.469  0.00  0.00    +0.000 S 
ATOM     17  O   UNL     1      -3.433  15.950  23.654  0.00  0.00    +0.000 OA
ATOM     18  O   UNL     1      -4.562  16.347  21.426  0.00  0.00    +0.000 OA
BRANCH  16  19
ATOM     19  C   UNL     1      -5.457  14.428  22.991  0.00  0.00    +0.000 A 
ATOM     20  C   UNL     1      -6.748  14.705  22.528  0.00  0.00    +0.000 A 
ATOM     21  C   UNL     1      -7.816  13.922  22.966  0.00  0.00    +0.000 A 
ATOM     22  C   UNL     1      -7.592  12.863  23.847  0.00  0.00    +0.000 A 
ATOM     23  C   UNL     1      -6.298  12.567  24.275  0.00  0.00    +0.000 A 
ATOM     24  C   UNL     1      -5.223  13.343  23.841  0.00  0.00    +0.000 A 
ENDBRANCH  16  19
ENDBRANCH   5  16
BRANCH   1  26
ATOM     25  C   UNL     1      -6.820   9.873  19.157  0.00  0.00    +0.000 C 
ATOM     26  C   UNL     1      -6.619  11.386  19.196  0.00  0.00    +0.000 C 
ENDBRANCH   1  26
BRANCH   1  27
ATOM     27  C   UNL     1      -5.666  12.316  17.082  0.00  0.00    +0.000 C 
ATOM     28  C   UNL     1      -6.877  13.231  17.015  0.00  0.00    +0.000 C 
ENDBRANCH   1  27
TORSDOF 4
ENDMDL
MODEL 8
REMARK VINA RESULT:      -7.3      6.530      8.658
REMARK  Name = 
REMARK  7 active torsions:
REMARK  status: ('A' for Active; 'I' for Inactive)
REMARK    1  A    between atoms: C_1  and  C_2
REMARK    2  A    between atoms: C_2  and  N_3
REMARK    3  A    between atoms: N_3  and  C_4
REMARK    4  A    between atoms: C_4  and  C_5
REMARK    5  A    between atoms: C_9  and  S_10
REMARK    6  A    between atoms: S_10  and  C_13
REMARK    7  A    between atoms: C_24  and  C_25
REMARK                            x       y       z     vdW  Elec       q    Type
REMARK                         _______ _______ _______ _____ _____    ______ ____
ROOT
ATOM      1  N   UNL     1      -5.709  12.683  19.721  0.00  0.00    +0.000 N 
ATOM      2  C   UNL     1      -4.382  12.331  19.510  0.00  0.00    +0.000 A 
ATOM      3  N   UNL     1      -3.515  12.400  20.494  0.00  0.00    +0.000 NA
ATOM      4  C   UNL     1      -2.232  12.023  20.242  0.00  0.00    +0.000 A 
ATOM      5  C   UNL     1      -1.061  12.015  20.977  0.00  0.00    +0.000 A 
ATOM      6  N   UNL     1      -0.042  11.471  20.233  0.00  0.00    +0.000 NA
ATOM      7  N   UNL     1      -0.530  11.152  19.037  0.00  0.00    +0.000 NA
ATOM      8  N   UNL     1      -1.829  11.499  19.027  0.00  0.00    +0.000 N 
ATOM      9  C   UNL     1      -2.699  11.359  17.938  0.00  0.00    +0.000 A 
ATOM     10  C   UNL     1      -2.312  10.802  16.717  0.00  0.00    +0.000 A 
ATOM     11  C   UNL     1      -3.258  10.693  15.686  0.00  0.00    +0.000 A 
ATOM     12  C   UNL     1      -2.923  10.071  14.364  0.00  0.00    +0.000 C 
ATOM     13  C   UNL     1      -4.570  11.149  15.899  0.00  0.00    +0.000 A 
ATOM     14  C   UNL     1      -4.946  11.692  17.127  0.00  0.00    +0.000 A 
ATOM     15  C   UNL     1      -4.006  11.802  18.154  0.00  0.00    +0.000 A 
ENDROOT
BRANCH   5  16
ATOM     16  S   UNL     1      -0.870  12.557  22.596  0.00  0.00    +0.000 S 
ATOM     17  O   UNL     1      -0.613  11.364  23.383  0.00  0.00    +0.000 OA
ATOM     18  O   UNL     1       0.086  13.646  22.545  0.00  0.00    +0.000 OA
BRANCH  16  19
ATOM     19  C   UNL     1      -2.456  13.196  23.063  0.00  0.00    +0.000 A 
ATOM     20  C   UNL     1      -3.360  12.368  23.737  0.00  0.00    +0.000 A 
ATOM     21  C   UNL     1      -4.621  12.861  24.074  0.00  0.00    +0.000 A 
ATOM     22  C   UNL     1      -4.967  14.175  23.754  0.00  0.00    +0.000 A 
ATOM     23  C   UNL     1      -4.047  15.008  23.117  0.00  0.00    +0.000 A 
ATOM     24  C   UNL     1      -2.783  14.524  22.778  0.00  0.00    +0.000 A 
ENDBRANCH  16  19
ENDBRANCH   5  16
BRANCH   1  26
ATOM     25  C   UNL     1      -7.163  10.880  20.546  0.00  0.00    +0.000 C 
ATOM     26  C   UNL     1      -6.393  12.150  20.905  0.00  0.00    +0.000 C 
ENDBRANCH   1  26
BRANCH   1  27
ATOM     27  C   UNL     1      -6.156  13.999  19.241  0.00  0.00    +0.000 C 
ATOM     28  C   UNL     1      -7.651  14.216  19.391  0.00  0.00    +0.000 C 
ENDBRANCH   1  27
TORSDOF 4
ENDMDL
MODEL 9
REMARK VINA RESULT:      -7.2      6.034      8.286
REMARK  Name = 
REMARK  7 active torsions:
REMARK  status: ('A' for Active; 'I' for Inactive)
REMARK    1  A    between atoms: C_1  and  C_2
REMARK    2  A    between atoms: C_2  and  N_3
REMARK    3  A    between atoms: N_3  and  C_4
REMARK    4  A    between atoms: C_4  and  C_5
REMARK    5  A    between atoms: C_9  and  S_10
REMARK    6  A    between atoms: S_10  and  C_13
REMARK    7  A    between atoms: C_24  and  C_25
REMARK                            x       y       z     vdW  Elec       q    Type
REMARK                         _______ _______ _______ _____ _____    ______ ____
ROOT
ATOM      1  N   UNL     1      -0.537  11.235  20.424  0.00  0.00    +0.000 N 
ATOM      2  C   UNL     1      -1.838  11.554  20.056  0.00  0.00    +0.000 A 
ATOM      3  N   UNL     1      -2.599  12.262  20.859  0.00  0.00    +0.000 NA
ATOM      4  C   UNL     1      -3.858  12.565  20.443  0.00  0.00    +0.000 A 
ATOM      5  C   UNL     1      -4.938  13.213  21.013  0.00  0.00    +0.000 A 
ATOM      6  N   UNL     1      -5.973  13.287  20.111  0.00  0.00    +0.000 NA
ATOM      7  N   UNL     1      -5.585  12.684  18.990  0.00  0.00    +0.000 NA
ATOM      8  N   UNL     1      -4.334  12.231  19.189  0.00  0.00    +0.000 N 
ATOM      9  C   UNL     1      -3.576  11.509  18.259  0.00  0.00    +0.000 A 
ATOM     10  C   UNL     1      -4.034  11.193  16.977  0.00  0.00    +0.000 A 
ATOM     11  C   UNL     1      -3.197  10.473  16.111  0.00  0.00    +0.000 A 
ATOM     12  C   UNL     1      -3.608  10.134  14.710  0.00  0.00    +0.000 C 
ATOM     13  C   UNL     1      -1.920  10.080  16.549  0.00  0.00    +0.000 A 
ATOM     14  C   UNL     1      -1.471  10.413  17.826  0.00  0.00    +0.000 A 
ATOM     15  C   UNL     1      -2.303  11.128  18.690  0.00  0.00    +0.000 A 
ENDROOT
BRANCH   5  16
ATOM     16  S   UNL     1      -5.008  13.880  22.595  0.00  0.00    +0.000 S 
ATOM     17  O   UNL     1      -5.971  14.964  22.523  0.00  0.00    +0.000 OA
ATOM     18  O   UNL     1      -5.201  12.759  23.495  0.00  0.00    +0.000 OA
BRANCH  16  19
ATOM     19  C   UNL     1      -3.405  14.583  22.875  0.00  0.00    +0.000 A 
ATOM     20  C   UNL     1      -2.994  15.683  22.115  0.00  0.00    +0.000 A 
ATOM     21  C   UNL     1      -1.719  16.214  22.312  0.00  0.00    +0.000 A 
ATOM     22  C   UNL     1      -0.871  15.660  23.272  0.00  0.00    +0.000 A 
ATOM     23  C   UNL     1      -1.301  14.588  24.055  0.00  0.00    +0.000 A 
ATOM     24  C   UNL     1      -2.575  14.051  23.866  0.00  0.00    +0.000 A 
ENDBRANCH  16  19
ENDBRANCH   5  16
BRANCH   1  26
ATOM     25  C   UNL     1       0.698  13.283  19.851  0.00  0.00    +0.000 C 
ATOM     26  C   UNL     1       0.318  12.302  20.958  0.00  0.00    +0.000 C 
ENDBRANCH   1  26
BRANCH   1  27
ATOM     27  C   UNL     1      -0.275   9.874  20.915  0.00  0.00    +0.000 C 
ATOM     28  C   UNL     1      -0.397   9.747  22.423  0.00  0.00    +0.000 C 
ENDBRANCH   1  27
TORSDOF 4
ENDMDL
