MODEL 1
REMARK VINA RESULT:      -7.8      0.000      0.000
REMARK  Name = 
REMARK  3 active torsions:
REMARK  status: ('A' for Active; 'I' for Inactive)
REMARK    1  A    between atoms: C_2  and  O_9
REMARK    2  A    between atoms: N_3  and  C_4
REMARK    3  A    between atoms: O_9  and  C_10
REMARK                            x       y       z     vdW  Elec       q    Type
REMARK                         _______ _______ _______ _____ _____    ______ ____
ROOT
ATOM      1  C   UNL     1       1.922   4.868  20.553  0.00  0.00    +0.000 C 
ATOM      2  C   UNL     1       0.816   3.807  20.414  0.00  0.00    +0.000 C 
ATOM      3  O   UNL     1       0.677   3.322  19.082  0.00  0.00    +0.000 OA
ATOM      4  C   UNL     1       1.469   2.194  18.712  0.00  0.00    +0.000 C 
ATOM      5  C   UNL     1       2.911   2.139  19.226  0.00  0.00    +0.000 C 
ATOM      6  N   UNL     1       3.549   3.438  19.300  0.00  0.00    +0.000 N 
ATOM      7  C   UNL     1       4.377   3.894  18.339  0.00  0.00    +0.000 A 
ATOM      8  N   UNL     1       5.024   5.039  18.314  0.00  0.00    +0.000 NA
ATOM      9  C   UNL     1       5.665   5.031  17.109  0.00  0.00    +0.000 A 
ATOM     10  C   UNL     1       6.516   5.973  16.519  0.00  0.00    +0.000 A 
ATOM     11  C   UNL     1       6.994   5.714  15.227  0.00  0.00    +0.000 A 
ATOM     12  C   UNL     1       6.622   4.550  14.541  0.00  0.00    +0.000 A 
ATOM     13  C   UNL     1       5.793   3.586  15.132  0.00  0.00    +0.000 A 
ATOM     14  C   UNL     1       5.361   3.870  16.421  0.00  0.00    +0.000 A 
ATOM     15  O   UNL     1       4.572   3.106  17.232  0.00  0.00    +0.000 OA
ATOM     16  C   UNL     1       3.336   4.238  20.500  0.00  0.00    +0.000 C 
ENDROOT
BRANCH   1  17
ATOM     17  O   UNL     1       1.787   5.886  19.494  0.00  0.00    +0.000 OA
BRANCH  17  19
ATOM     18  O   UNL     1       2.617   7.982  19.078  0.00  0.00    +0.000 OA
ATOM     19  C   UNL     1       2.017   7.211  19.789  0.00  0.00    +0.000 C 
ATOM     20  N   UNL     1       1.434   7.574  20.992  0.00  0.00    +0.000 N 
ATOM     21  H   UNL     1       1.100   6.864  21.627  0.00  0.00    +0.000 HD
BRANCH  20  22
ATOM     22  C   UNL     1       1.122   8.958  21.298  0.00  0.00    +0.000 C 
ATOM     23  C   UNL     1       0.054   9.520  20.358  0.00  0.00    +0.000 C 
ATOM     24  C   UNL     1      -0.459  10.754  21.087  0.00  0.00    +0.000 C 
ATOM     25  C   UNL     1      -0.291  10.455  22.577  0.00  0.00    +0.000 C 
ATOM     26  C   UNL     1       0.472   9.134  22.669  0.00  0.00    +0.000 C 
ENDBRANCH  20  22
ENDBRANCH  17  19
ENDBRANCH   1  17
TORSDOF 3
ENDMDL
MODEL 2
REMARK VINA RESULT:      -7.3      1.782      7.172
REMARK  Name = 
REMARK  3 active torsions:
REMARK  status: ('A' for Active; 'I' for Inactive)
REMARK    1  A    between atoms: C_2  and  O_9
REMARK    2  A    between atoms: N_3  and  C_4
REMARK    3  A    between atoms: O_9  and  C_10
REMARK                            x       y       z     vdW  Elec       q    Type
REMARK                         _______ _______ _______ _____ _____    ______ ____
ROOT
ATOM      1  C   UNL     1       4.105   2.939  17.839  0.00  0.00    +0.000 C 
ATOM      2  C   UNL     1       4.325   1.941  18.989  0.00  0.00    +0.000 C 
ATOM      3  O   UNL     1       4.361   2.568  20.267  0.00  0.00    +0.000 OA
ATOM      4  C   UNL     1       3.120   2.715  20.957  0.00  0.00    +0.000 C 
ATOM      5  C   UNL     1       1.889   3.101  20.130  0.00  0.00    +0.000 C 
ATOM      6  N   UNL     1       2.187   4.006  19.039  0.00  0.00    +0.000 N 
ATOM      7  C   UNL     1       1.995   5.338  19.130  0.00  0.00    +0.000 A 
ATOM      8  N   UNL     1       2.207   6.244  18.201  0.00  0.00    +0.000 NA
ATOM      9  C   UNL     1       1.915   7.427  18.819  0.00  0.00    +0.000 A 
ATOM     10  C   UNL     1       1.941   8.741  18.338  0.00  0.00    +0.000 A 
ATOM     11  C   UNL     1       1.634   9.777  19.231  0.00  0.00    +0.000 A 
ATOM     12  C   UNL     1       1.321   9.506  20.570  0.00  0.00    +0.000 A 
ATOM     13  C   UNL     1       1.263   8.192  21.056  0.00  0.00    +0.000 A 
ATOM     14  C   UNL     1       1.550   7.194  20.133  0.00  0.00    +0.000 A 
ATOM     15  O   UNL     1       1.549   5.842  20.327  0.00  0.00    +0.000 OA
ATOM     16  C   UNL     1       2.638   3.434  17.777  0.00  0.00    +0.000 C 
ENDROOT
BRANCH   1  17
ATOM     17  O   UNL     1       5.017   4.089  17.980  0.00  0.00    +0.000 OA
BRANCH  17  19
ATOM     18  O   UNL     1       7.200   4.382  17.344  0.00  0.00    +0.000 OA
ATOM     19  C   UNL     1       6.029   4.274  17.066  0.00  0.00    +0.000 C 
ATOM     20  N   UNL     1       5.547   4.278  15.766  0.00  0.00    +0.000 N 
ATOM     21  H   UNL     1       4.556   4.362  15.595  0.00  0.00    +0.000 HD
BRANCH  20  22
ATOM     22  C   UNL     1       6.409   3.985  14.636  0.00  0.00    +0.000 C 
ATOM     23  C   UNL     1       5.602   3.651  13.380  0.00  0.00    +0.000 C 
ATOM     24  C   UNL     1       6.604   3.830  12.247  0.00  0.00    +0.000 C 
ATOM     25  C   UNL     1       7.584   4.902  12.726  0.00  0.00    +0.000 C 
ATOM     26  C   UNL     1       7.229   5.191  14.184  0.00  0.00    +0.000 C 
ENDBRANCH  20  22
ENDBRANCH  17  19
ENDBRANCH   1  17
TORSDOF 3
ENDMDL
MODEL 3
REMARK VINA RESULT:      -7.2      3.423      6.881
REMARK  Name = 
REMARK  3 active torsions:
REMARK  status: ('A' for Active; 'I' for Inactive)
REMARK    1  A    between atoms: C_2  and  O_9
REMARK    2  A    between atoms: N_3  and  C_4
REMARK    3  A    between atoms: O_9  and  C_10
REMARK                            x       y       z     vdW  Elec       q    Type
REMARK                         _______ _______ _______ _____ _____    ______ ____
ROOT
ATOM      1  C   UNL     1       5.832   5.861  16.904  0.00  0.00    +0.000 C 
ATOM      2  C   UNL     1       6.511   4.756  17.732  0.00  0.00    +0.000 C 
ATOM      3  O   UNL     1       6.313   4.913  19.134  0.00  0.00    +0.000 OA
ATOM      4  C   UNL     1       5.160   4.293  19.703  0.00  0.00    +0.000 C 
ATOM      5  C   UNL     1       3.856   4.345  18.900  0.00  0.00    +0.000 C 
ATOM      6  N   UNL     1       3.684   5.576  18.155  0.00  0.00    +0.000 N 
ATOM      7  C   UNL     1       2.929   6.597  18.608  0.00  0.00    +0.000 A 
ATOM      8  N   UNL     1       2.686   7.742  18.009  0.00  0.00    +0.000 NA
ATOM      9  C   UNL     1       1.925   8.432  18.908  0.00  0.00    +0.000 A 
ATOM     10  C   UNL     1       1.352   9.707  18.835  0.00  0.00    +0.000 A 
ATOM     11  C   UNL     1       0.652  10.182  19.953  0.00  0.00    +0.000 A 
ATOM     12  C   UNL     1       0.538   9.408  21.115  0.00  0.00    +0.000 A 
ATOM     13  C   UNL     1       1.084   8.118  21.191  0.00  0.00    +0.000 A 
ATOM     14  C   UNL     1       1.748   7.676  20.053  0.00  0.00    +0.000 A 
ATOM     15  O   UNL     1       2.349   6.468  19.846  0.00  0.00    +0.000 OA
ATOM     16  C   UNL     1       4.296   5.669  16.835  0.00  0.00    +0.000 C 
ENDROOT
BRANCH   1  17
ATOM     17  O   UNL     1       6.148   7.187  17.467  0.00  0.00    +0.000 OA
BRANCH  17  19
ATOM     18  O   UNL     1       8.241   7.332  16.543  0.00  0.00    +0.000 OA
ATOM     19  C   UNL     1       7.427   7.685  17.363  0.00  0.00    +0.000 C 
ATOM     20  N   UNL     1       7.661   8.685  18.294  0.00  0.00    +0.000 N 
ATOM     21  H   UNL     1       7.021   8.820  19.063  0.00  0.00    +0.000 HD
BRANCH  20  22
ATOM     22  C   UNL     1       8.709   9.670  18.103  0.00  0.00    +0.000 C 
ATOM     23  C   UNL     1       8.150  11.004  17.606  0.00  0.00    +0.000 C 
ATOM     24  C   UNL     1       9.265  11.998  17.902  0.00  0.00    +0.000 C 
ATOM     25  C   UNL     1       9.993  11.450  19.130  0.00  0.00    +0.000 C 
ATOM     26  C   UNL     1       9.395  10.071  19.407  0.00  0.00    +0.000 C 
ENDBRANCH  20  22
ENDBRANCH  17  19
ENDBRANCH   1  17
TORSDOF 3
ENDMDL
MODEL 4
REMARK VINA RESULT:      -7.2      1.779      7.020
REMARK  Name = 
REMARK  3 active torsions:
REMARK  status: ('A' for Active; 'I' for Inactive)
REMARK    1  A    between atoms: C_2  and  O_9
REMARK    2  A    between atoms: N_3  and  C_4
REMARK    3  A    between atoms: O_9  and  C_10
REMARK                            x       y       z     vdW  Elec       q    Type
REMARK                         _______ _______ _______ _____ _____    ______ ____
ROOT
ATOM      1  C   UNL     1       3.894   2.800  17.942  0.00  0.00    +0.000 C 
ATOM      2  C   UNL     1       4.166   1.829  19.103  0.00  0.00    +0.000 C 
ATOM      3  O   UNL     1       4.285   2.486  20.361  0.00  0.00    +0.000 OA
ATOM      4  C   UNL     1       3.089   2.670  21.117  0.00  0.00    +0.000 C 
ATOM      5  C   UNL     1       1.818   3.055  20.353  0.00  0.00    +0.000 C 
ATOM      6  N   UNL     1       2.064   3.928  19.223  0.00  0.00    +0.000 N 
ATOM      7  C   UNL     1       1.897   5.265  19.290  0.00  0.00    +0.000 A 
ATOM      8  N   UNL     1       2.068   6.144  18.327  0.00  0.00    +0.000 NA
ATOM      9  C   UNL     1       1.829   7.346  18.929  0.00  0.00    +0.000 A 
ATOM     10  C   UNL     1       1.846   8.647  18.414  0.00  0.00    +0.000 A 
ATOM     11  C   UNL     1       1.607   9.710  19.296  0.00  0.00    +0.000 A 
ATOM     12  C   UNL     1       1.367   9.477  20.657  0.00  0.00    +0.000 A 
ATOM     13  C   UNL     1       1.320   8.177  21.180  0.00  0.00    +0.000 A 
ATOM     14  C   UNL     1       1.538   7.152  20.268  0.00  0.00    +0.000 A 
ATOM     15  O   UNL     1       1.528   5.806  20.497  0.00  0.00    +0.000 OA
ATOM     16  C   UNL     1       2.433   3.316  17.952  0.00  0.00    +0.000 C 
ENDROOT
BRANCH   1  17
ATOM     17  O   UNL     1       4.829   3.939  18.001  0.00  0.00    +0.000 OA
BRANCH  17  19
ATOM     18  O   UNL     1       5.049   5.969  16.959  0.00  0.00    +0.000 OA
ATOM     19  C   UNL     1       4.968   4.765  16.908  0.00  0.00    +0.000 C 
ATOM     20  N   UNL     1       5.050   4.040  15.730  0.00  0.00    +0.000 N 
ATOM     21  H   UNL     1       4.803   3.062  15.719  0.00  0.00    +0.000 HD
BRANCH  20  22
ATOM     22  C   UNL     1       5.655   4.600  14.535  0.00  0.00    +0.000 C 
ATOM     23  C   UNL     1       7.148   4.873  14.729  0.00  0.00    +0.000 C 
ATOM     24  C   UNL     1       7.681   5.001  13.309  0.00  0.00    +0.000 C 
ATOM     25  C   UNL     1       6.784   4.111  12.448  0.00  0.00    +0.000 C 
ATOM     26  C   UNL     1       5.654   3.629  13.356  0.00  0.00    +0.000 C 
ENDBRANCH  20  22
ENDBRANCH  17  19
ENDBRANCH   1  17
TORSDOF 3
ENDMDL
MODEL 5
REMARK VINA RESULT:      -7.1      1.259      1.556
REMARK  Name = 
REMARK  3 active torsions:
REMARK  status: ('A' for Active; 'I' for Inactive)
REMARK    1  A    between atoms: C_2  and  O_9
REMARK    2  A    between atoms: N_3  and  C_4
REMARK    3  A    between atoms: O_9  and  C_10
REMARK                            x       y       z     vdW  Elec       q    Type
REMARK                         _______ _______ _______ _____ _____    ______ ____
ROOT
ATOM      1  C   UNL     1       2.302   4.838  20.675  0.00  0.00    +0.000 C 
ATOM      2  C   UNL     1       1.010   4.040  20.431  0.00  0.00    +0.000 C 
ATOM      3  O   UNL     1       0.752   3.811  19.049  0.00  0.00    +0.000 OA
ATOM      4  C   UNL     1       1.303   2.628  18.470  0.00  0.00    +0.000 C 
ATOM      5  C   UNL     1       2.717   2.221  18.895  0.00  0.00    +0.000 C 
ATOM      6  N   UNL     1       3.596   3.348  19.136  0.00  0.00    +0.000 N 
ATOM      7  C   UNL     1       4.476   3.790  18.215  0.00  0.00    +0.000 A 
ATOM      8  N   UNL     1       5.332   4.782  18.335  0.00  0.00    +0.000 NA
ATOM      9  C   UNL     1       5.935   4.848  17.111  0.00  0.00    +0.000 A 
ATOM     10  C   UNL     1       6.939   5.696  16.631  0.00  0.00    +0.000 A 
ATOM     11  C   UNL     1       7.332   5.564  15.292  0.00  0.00    +0.000 A 
ATOM     12  C   UNL     1       6.728   4.616  14.454  0.00  0.00    +0.000 A 
ATOM     13  C   UNL     1       5.740   3.742  14.931  0.00  0.00    +0.000 A 
ATOM     14  C   UNL     1       5.398   3.891  16.269  0.00  0.00    +0.000 A 
ATOM     15  O   UNL     1       4.492   3.168  16.991  0.00  0.00    +0.000 OA
ATOM     16  C   UNL     1       3.567   3.970  20.454  0.00  0.00    +0.000 C 
ENDROOT
BRANCH   1  17
ATOM     17  O   UNL     1       2.345   6.020  19.795  0.00  0.00    +0.000 OA
BRANCH  17  19
ATOM     18  O   UNL     1       1.375   7.427  21.324  0.00  0.00    +0.000 OA
ATOM     19  C   UNL     1       1.745   7.192  20.197  0.00  0.00    +0.000 C 
ATOM     20  N   UNL     1       1.655   8.102  19.156  0.00  0.00    +0.000 N 
ATOM     21  H   UNL     1       1.812   7.800  18.206  0.00  0.00    +0.000 HD
BRANCH  20  22
ATOM     22  C   UNL     1       1.513   9.525  19.401  0.00  0.00    +0.000 C 
ATOM     23  C   UNL     1       1.978  10.356  18.203  0.00  0.00    +0.000 C 
ATOM     24  C   UNL     1       1.348  11.721  18.442  0.00  0.00    +0.000 C 
ATOM     25  C   UNL     1       0.056  11.452  19.214  0.00  0.00    +0.000 C 
ATOM     26  C   UNL     1       0.058   9.962  19.552  0.00  0.00    +0.000 C 
ENDBRANCH  20  22
ENDBRANCH  17  19
ENDBRANCH   1  17
TORSDOF 3
ENDMDL
MODEL 6
REMARK VINA RESULT:      -6.9      2.039      2.764
REMARK  Name = 
REMARK  3 active torsions:
REMARK  status: ('A' for Active; 'I' for Inactive)
REMARK    1  A    between atoms: C_2  and  O_9
REMARK    2  A    between atoms: N_3  and  C_4
REMARK    3  A    between atoms: O_9  and  C_10
REMARK                            x       y       z     vdW  Elec       q    Type
REMARK                         _______ _______ _______ _____ _____    ______ ____
ROOT
ATOM      1  C   UNL     1       2.739   2.742  21.043  0.00  0.00    +0.000 C 
ATOM      2  C   UNL     1       1.548   2.299  20.176  0.00  0.00    +0.000 C 
ATOM      3  O   UNL     1       1.398   3.083  18.996  0.00  0.00    +0.000 OA
ATOM      4  C   UNL     1       2.096   2.647  17.830  0.00  0.00    +0.000 C 
ATOM      5  C   UNL     1       3.515   2.099  18.014  0.00  0.00    +0.000 C 
ATOM      6  N   UNL     1       4.263   2.770  19.058  0.00  0.00    +0.000 N 
ATOM      7  C   UNL     1       5.151   3.751  18.797  0.00  0.00    +0.000 A 
ATOM      8  N   UNL     1       5.897   4.408  19.658  0.00  0.00    +0.000 NA
ATOM      9  C   UNL     1       6.563   5.320  18.891  0.00  0.00    +0.000 A 
ATOM     10  C   UNL     1       7.508   6.292  19.239  0.00  0.00    +0.000 A 
ATOM     11  C   UNL     1       7.992   7.134  18.229  0.00  0.00    +0.000 A 
ATOM     12  C   UNL     1       7.536   7.014  16.910  0.00  0.00    +0.000 A 
ATOM     13  C   UNL     1       6.611   6.026  16.543  0.00  0.00    +0.000 A 
ATOM     14  C   UNL     1       6.175   5.197  17.569  0.00  0.00    +0.000 A 
ATOM     15  O   UNL     1       5.302   4.150  17.492  0.00  0.00    +0.000 OA
ATOM     16  C   UNL     1       4.093   2.305  20.430  0.00  0.00    +0.000 C 
ENDROOT
BRANCH   1  17
ATOM     17  O   UNL     1       2.720   4.206  21.225  0.00  0.00    +0.000 OA
BRANCH  17  19
ATOM     18  O   UNL     1       0.634   5.002  20.703  0.00  0.00    +0.000 OA
ATOM     19  C   UNL     1       1.827   4.971  20.510  0.00  0.00    +0.000 C 
ATOM     20  N   UNL     1       2.469   5.746  19.557  0.00  0.00    +0.000 N 
ATOM     21  H   UNL     1       3.430   5.556  19.315  0.00  0.00    +0.000 HD
BRANCH  20  22
ATOM     22  C   UNL     1       1.857   6.945  19.016  0.00  0.00    +0.000 C 
ATOM     23  C   UNL     1       1.761   8.055  20.063  0.00  0.00    +0.000 C 
ATOM     24  C   UNL     1       1.546   9.316  19.237  0.00  0.00    +0.000 C 
ATOM     25  C   UNL     1       2.247   9.062  17.903  0.00  0.00    +0.000 C 
ATOM     26  C   UNL     1       2.699   7.602  17.924  0.00  0.00    +0.000 C 
ENDBRANCH  20  22
ENDBRANCH  17  19
ENDBRANCH   1  17
TORSDOF 3
ENDMDL
MODEL 7
REMARK VINA RESULT:      -6.8      0.989      1.261
REMARK  Name = 
REMARK  3 active torsions:
REMARK  status: ('A' for Active; 'I' for Inactive)
REMARK    1  A    between atoms: C_2  and  O_9
REMARK    2  A    between atoms: N_3  and  C_4
REMARK    3  A    between atoms: O_9  and  C_10
REMARK                            x       y       z     vdW  Elec       q    Type
REMARK                         _______ _______ _______ _____ _____    ______ ____
ROOT
ATOM      1  C   UNL     1       2.962   5.643  20.025  0.00  0.00    +0.000 C 
ATOM      2  C   UNL     1       1.650   4.840  20.058  0.00  0.00    +0.000 C 
ATOM      3  O   UNL     1       1.251   4.376  18.773  0.00  0.00    +0.000 OA
ATOM      4  C   UNL     1       1.736   3.099  18.360  0.00  0.00    +0.000 C 
ATOM      5  C   UNL     1       3.186   2.745  18.705  0.00  0.00    +0.000 C 
ATOM      6  N   UNL     1       4.087   3.879  18.652  0.00  0.00    +0.000 N 
ATOM      7  C   UNL     1       4.869   4.133  17.582  0.00  0.00    +0.000 A 
ATOM      8  N   UNL     1       5.734   5.112  17.436  0.00  0.00    +0.000 NA
ATOM      9  C   UNL     1       6.207   4.950  16.166  0.00  0.00    +0.000 A 
ATOM     10  C   UNL     1       7.159   5.679  15.443  0.00  0.00    +0.000 A 
ATOM     11  C   UNL     1       7.410   5.304  14.116  0.00  0.00    +0.000 A 
ATOM     12  C   UNL     1       6.721   4.237  13.526  0.00  0.00    +0.000 A 
ATOM     13  C   UNL     1       5.786   3.480  14.248  0.00  0.00    +0.000 A 
ATOM     14  C   UNL     1       5.584   3.870  15.566  0.00  0.00    +0.000 A 
ATOM     15  O   UNL     1       4.757   3.305  16.493  0.00  0.00    +0.000 OA
ATOM     16  C   UNL     1       4.196   4.724  19.834  0.00  0.00    +0.000 C 
ENDROOT
BRANCH   1  17
ATOM     17  O   UNL     1       2.916   6.650  18.949  0.00  0.00    +0.000 OA
BRANCH  17  19
ATOM     18  O   UNL     1       1.665   8.409  18.179  0.00  0.00    +0.000 OA
ATOM     19  C   UNL     1       2.124   7.766  19.093  0.00  0.00    +0.000 C 
ATOM     20  N   UNL     1       1.873   8.044  20.427  0.00  0.00    +0.000 N 
ATOM     21  H   UNL     1       2.415   7.592  21.148  0.00  0.00    +0.000 HD
BRANCH  20  22
ATOM     22  C   UNL     1       0.728   8.838  20.835  0.00  0.00    +0.000 C 
ATOM     23  C   UNL     1       0.392   8.630  22.313  0.00  0.00    +0.000 C 
ATOM     24  C   UNL     1      -0.480   9.829  22.658  0.00  0.00    +0.000 C 
ATOM     25  C   UNL     1      -0.014  10.959  21.741  0.00  0.00    +0.000 C 
ATOM     26  C   UNL     1       0.992  10.340  20.771  0.00  0.00    +0.000 C 
ENDBRANCH  20  22
ENDBRANCH  17  19
ENDBRANCH   1  17
TORSDOF 3
ENDMDL
MODEL 8
REMARK VINA RESULT:      -6.8      3.446      6.659
REMARK  Name = 
REMARK  3 active torsions:
REMARK  status: ('A' for Active; 'I' for Inactive)
REMARK    1  A    between atoms: C_2  and  O_9
REMARK    2  A    between atoms: N_3  and  C_4
REMARK    3  A    between atoms: O_9  and  C_10
REMARK                            x       y       z     vdW  Elec       q    Type
REMARK                         _______ _______ _______ _____ _____    ______ ____
ROOT
ATOM      1  C   UNL     1       6.394   6.835  16.357  0.00  0.00    +0.000 C 
ATOM      2  C   UNL     1       7.337   5.927  15.549  0.00  0.00    +0.000 C 
ATOM      3  O   UNL     1       7.427   4.608  16.078  0.00  0.00    +0.000 OA
ATOM      4  C   UNL     1       6.486   3.647  15.599  0.00  0.00    +0.000 C 
ATOM      5  C   UNL     1       5.043   4.113  15.382  0.00  0.00    +0.000 C 
ATOM      6  N   UNL     1       4.599   5.092  16.353  0.00  0.00    +0.000 N 
ATOM      7  C   UNL     1       3.861   4.759  17.432  0.00  0.00    +0.000 A 
ATOM      8  N   UNL     1       3.387   5.563  18.358  0.00  0.00    +0.000 NA
ATOM      9  C   UNL     1       2.772   4.724  19.242  0.00  0.00    +0.000 A 
ATOM     10  C   UNL     1       2.076   4.993  20.426  0.00  0.00    +0.000 A 
ATOM     11  C   UNL     1       1.587   3.907  21.166  0.00  0.00    +0.000 A 
ATOM     12  C   UNL     1       1.798   2.590  20.738  0.00  0.00    +0.000 A 
ATOM     13  C   UNL     1       2.469   2.308  19.539  0.00  0.00    +0.000 A 
ATOM     14  C   UNL     1       2.916   3.413  18.825  0.00  0.00    +0.000 A 
ATOM     15  O   UNL     1       3.573   3.431  17.628  0.00  0.00    +0.000 OA
ATOM     16  C   UNL     1       4.904   6.495  16.100  0.00  0.00    +0.000 C 
ENDROOT
BRANCH   1  17
ATOM     17  O   UNL     1       6.692   6.725  17.797  0.00  0.00    +0.000 OA
BRANCH  17  19
ATOM     18  O   UNL     1       8.633   7.020  18.981  0.00  0.00    +0.000 OA
ATOM     19  C   UNL     1       7.713   7.471  18.341  0.00  0.00    +0.000 C 
ATOM     20  N   UNL     1       7.584   8.815  18.028  0.00  0.00    +0.000 N 
ATOM     21  H   UNL     1       6.716   9.165  17.649  0.00  0.00    +0.000 HD
BRANCH  20  22
ATOM     22  C   UNL     1       8.721   9.716  18.062  0.00  0.00    +0.000 C 
ATOM     23  C   UNL     1       8.351  11.117  17.572  0.00  0.00    +0.000 C 
ATOM     24  C   UNL     1       9.478  11.995  18.097  0.00  0.00    +0.000 C 
ATOM     25  C   UNL     1       9.961  11.325  19.384  0.00  0.00    +0.000 C 
ATOM     26  C   UNL     1       9.222   9.990  19.478  0.00  0.00    +0.000 C 
ENDBRANCH  20  22
ENDBRANCH  17  19
ENDBRANCH   1  17
TORSDOF 3
ENDMDL
MODEL 9
REMARK VINA RESULT:      -6.8      1.945      6.217
REMARK  Name = 
REMARK  3 active torsions:
REMARK  status: ('A' for Active; 'I' for Inactive)
REMARK    1  A    between atoms: C_2  and  O_9
REMARK    2  A    between atoms: N_3  and  C_4
REMARK    3  A    between atoms: O_9  and  C_10
REMARK                            x       y       z     vdW  Elec       q    Type
REMARK                         _______ _______ _______ _____ _____    ______ ____
ROOT
ATOM      1  C   UNL     1       5.495   3.493  16.594  0.00  0.00    +0.000 C 
ATOM      2  C   UNL     1       5.905   3.961  15.187  0.00  0.00    +0.000 C 
ATOM      3  O   UNL     1       5.055   4.981  14.672  0.00  0.00    +0.000 OA
ATOM      4  C   UNL     1       5.410   6.333  14.960  0.00  0.00    +0.000 C 
ATOM      5  C   UNL     1       5.944   6.644  16.362  0.00  0.00    +0.000 C 
ATOM      6  N   UNL     1       5.324   5.853  17.406  0.00  0.00    +0.000 N 
ATOM      7  C   UNL     1       4.315   6.323  18.168  0.00  0.00    +0.000 A 
ATOM      8  N   UNL     1       3.699   5.705  19.152  0.00  0.00    +0.000 NA
ATOM      9  C   UNL     1       2.732   6.587  19.542  0.00  0.00    +0.000 A 
ATOM     10  C   UNL     1       1.767   6.498  20.552  0.00  0.00    +0.000 A 
ATOM     11  C   UNL     1       0.858   7.556  20.692  0.00  0.00    +0.000 A 
ATOM     12  C   UNL     1       0.908   8.667  19.839  0.00  0.00    +0.000 A 
ATOM     13  C   UNL     1       1.887   8.780  18.841  0.00  0.00    +0.000 A 
ATOM     14  C   UNL     1       2.782   7.721  18.752  0.00  0.00    +0.000 A 
ATOM     15  O   UNL     1       3.837   7.581  17.896  0.00  0.00    +0.000 OA
ATOM     16  C   UNL     1       5.872   4.531  17.681  0.00  0.00    +0.000 C 
ENDROOT
BRANCH   1  17
ATOM     17  O   UNL     1       4.045   3.224  16.639  0.00  0.00    +0.000 OA
BRANCH  17  19
ATOM     18  O   UNL     1       3.984   1.243  17.791  0.00  0.00    +0.000 OA
ATOM     19  C   UNL     1       3.543   2.347  17.573  0.00  0.00    +0.000 C 
ATOM     20  N   UNL     1       2.486   2.902  18.277  0.00  0.00    +0.000 N 
ATOM     21  H   UNL     1       2.045   3.746  17.944  0.00  0.00    +0.000 HD
BRANCH  20  22
ATOM     22  C   UNL     1       2.100   2.405  19.585  0.00  0.00    +0.000 C 
ATOM     23  C   UNL     1       3.180   2.673  20.635  0.00  0.00    +0.000 C 
ATOM     24  C   UNL     1       2.444   2.522  21.959  0.00  0.00    +0.000 C 
ATOM     25  C   UNL     1       0.997   2.929  21.678  0.00  0.00    +0.000 C 
ATOM     26  C   UNL     1       0.893   3.136  20.168  0.00  0.00    +0.000 C 
ENDBRANCH  20  22
ENDBRANCH  17  19
ENDBRANCH   1  17
TORSDOF 3
ENDMDL
