MODEL 1
REMARK VINA RESULT:      -6.7      0.000      0.000
REMARK  Name = 
REMARK  11 active torsions:
REMARK  status: ('A' for Active; 'I' for Inactive)
REMARK    1  A    between atoms: C_1  and  C_2
REMARK    2  A    between atoms: C_2  and  C_3
REMARK    3  A    between atoms: C_3  and  C_4
REMARK    4  A    between atoms: C_4  and  O_5
REMARK    5  A    between atoms: O_5  and  C_6
REMARK    6  A    between atoms: C_6  and  C_7
REMARK    7  A    between atoms: C_7  and  O_8
REMARK    8  A    between atoms: O_8  and  C_9
REMARK    9  A    between atoms: C_9  and  C_11
REMARK   10  A    between atoms: C_11  and  C_12
REMARK   11  A    between atoms: C_11  and  N_18
REMARK                            x       y       z     vdW  Elec       q    Type
REMARK                         _______ _______ _______ _____ _____    ______ ____
ROOT
ATOM      1  C   UNL     1       3.451   5.836  19.268  0.00  0.00    +0.000 C 
ENDROOT
BRANCH   1   2
ATOM      2  C   UNL     1       2.520   7.062  19.198  0.00  0.00    +0.000 A 
ATOM      3  C   UNL     1       2.322   7.741  17.983  0.00  0.00    +0.000 A 
ATOM      4  C   UNL     1       1.677   8.981  17.945  0.00  0.00    +0.000 A 
ATOM      5  C   UNL     1       1.110   9.513  19.099  0.00  0.00    +0.000 A 
ATOM      6  C   UNL     1       1.180   8.796  20.289  0.00  0.00    +0.000 A 
ATOM      7  C   UNL     1       1.898   7.592  20.348  0.00  0.00    +0.000 A 
ENDBRANCH   1   2
BRANCH   1   8
ATOM      8  N   UNL     1       2.769   4.553  19.675  0.00  0.00    +0.000 NA
ATOM      9  C   UNL     1       2.844   4.358  21.137  0.00  0.00    +0.000 C 
ATOM     10  C   UNL     1       2.325   2.977  21.543  0.00  0.00    +0.000 C 
ATOM     11  C   UNL     1       0.901   2.748  21.057  0.00  0.00    +0.000 C 
ATOM     12  C   UNL     1       0.817   3.014  19.562  0.00  0.00    +0.000 C 
ATOM     13  C   UNL     1       1.387   4.392  19.212  0.00  0.00    +0.000 C 
ENDBRANCH   1   8
BRANCH   1  14
ATOM     14  C   UNL     1       4.129   5.585  17.856  0.00  0.00    +0.000 C 
ATOM     15  O   UNL     1       3.673   4.891  16.969  0.00  0.00    +0.000 OA
BRANCH  14  16
ATOM     16  O   UNL     1       5.349   6.230  17.757  0.00  0.00    +0.000 OA
BRANCH  16  17
ATOM     17  C   UNL     1       6.357   5.651  18.615  0.00  0.00    +0.000 C 
BRANCH  17  18
ATOM     18  C   UNL     1       7.697   5.592  17.889  0.00  0.00    +0.000 C 
BRANCH  18  19
ATOM     19  O   UNL     1       7.762   4.439  17.047  0.00  0.00    +0.000 OA
BRANCH  19  20
ATOM     20  C   UNL     1       7.328   4.757  15.722  0.00  0.00    +0.000 C 
BRANCH  20  21
ATOM     21  C   UNL     1       6.232   3.787  15.293  0.00  0.00    +0.000 C 
BRANCH  21  23
ATOM     22  C   UNL     1       6.211   3.600  12.771  0.00  0.00    +0.000 C 
ATOM     23  C   UNL     1       5.575   4.246  13.991  0.00  0.00    +0.000 C 
ENDBRANCH  21  23
ENDBRANCH  20  21
ENDBRANCH  19  20
ENDBRANCH  18  19
ENDBRANCH  17  18
ENDBRANCH  16  17
ENDBRANCH  14  16
ENDBRANCH   1  14
TORSDOF 10
ENDMDL
MODEL 2
REMARK VINA RESULT:      -6.7      2.417      4.571
REMARK  Name = 
REMARK  11 active torsions:
REMARK  status: ('A' for Active; 'I' for Inactive)
REMARK    1  A    between atoms: C_1  and  C_2
REMARK    2  A    between atoms: C_2  and  C_3
REMARK    3  A    between atoms: C_3  and  C_4
REMARK    4  A    between atoms: C_4  and  O_5
REMARK    5  A    between atoms: O_5  and  C_6
REMARK    6  A    between atoms: C_6  and  C_7
REMARK    7  A    between atoms: C_7  and  O_8
REMARK    8  A    between atoms: O_8  and  C_9
REMARK    9  A    between atoms: C_9  and  C_11
REMARK   10  A    between atoms: C_11  and  C_12
REMARK   11  A    between atoms: C_11  and  N_18
REMARK                            x       y       z     vdW  Elec       q    Type
REMARK                         _______ _______ _______ _____ _____    ______ ____
ROOT
ATOM      1  C   UNL     1       4.027   5.272  17.512  0.00  0.00    +0.000 C 
ENDROOT
BRANCH   1   2
ATOM      2  C   UNL     1       3.070   4.742  18.598  0.00  0.00    +0.000 A 
ATOM      3  C   UNL     1       1.982   3.921  18.252  0.00  0.00    +0.000 A 
ATOM      4  C   UNL     1       0.977   3.627  19.178  0.00  0.00    +0.000 A 
ATOM      5  C   UNL     1       1.097   4.043  20.500  0.00  0.00    +0.000 A 
ATOM      6  C   UNL     1       2.230   4.746  20.897  0.00  0.00    +0.000 A 
ATOM      7  C   UNL     1       3.199   5.115  19.952  0.00  0.00    +0.000 A 
ENDBRANCH   1   2
BRANCH   1   8
ATOM      8  N   UNL     1       5.238   5.998  18.043  0.00  0.00    +0.000 NA
ATOM      9  C   UNL     1       6.223   5.046  18.594  0.00  0.00    +0.000 C 
ATOM     10  C   UNL     1       7.367   5.775  19.303  0.00  0.00    +0.000 C 
ATOM     11  C   UNL     1       8.059   6.765  18.377  0.00  0.00    +0.000 C 
ATOM     12  C   UNL     1       7.031   7.701  17.762  0.00  0.00    +0.000 C 
ATOM     13  C   UNL     1       5.891   6.916  17.104  0.00  0.00    +0.000 C 
ENDBRANCH   1   8
BRANCH   1  14
ATOM     14  C   UNL     1       4.550   4.073  16.614  0.00  0.00    +0.000 C 
ATOM     15  O   UNL     1       4.638   2.914  16.968  0.00  0.00    +0.000 OA
BRANCH  14  16
ATOM     16  O   UNL     1       4.943   4.511  15.362  0.00  0.00    +0.000 OA
BRANCH  16  17
ATOM     17  C   UNL     1       6.125   3.836  14.880  0.00  0.00    +0.000 C 
BRANCH  17  18
ATOM     18  C   UNL     1       6.880   4.728  13.899  0.00  0.00    +0.000 C 
BRANCH  18  19
ATOM     19  O   UNL     1       6.827   4.183  12.579  0.00  0.00    +0.000 OA
BRANCH  19  20
ATOM     20  C   UNL     1       6.165   2.916  12.583  0.00  0.00    +0.000 C 
BRANCH  20  21
ATOM     21  C   UNL     1       5.341   2.761  11.309  0.00  0.00    +0.000 C 
BRANCH  21  23
ATOM     22  C   UNL     1       3.288   3.660  10.137  0.00  0.00    +0.000 C 
ATOM     23  C   UNL     1       3.956   3.387  11.475  0.00  0.00    +0.000 C 
ENDBRANCH  21  23
ENDBRANCH  20  21
ENDBRANCH  19  20
ENDBRANCH  18  19
ENDBRANCH  17  18
ENDBRANCH  16  17
ENDBRANCH  14  16
ENDBRANCH   1  14
TORSDOF 10
ENDMDL
MODEL 3
REMARK VINA RESULT:      -6.6      0.882      1.682
REMARK  Name = 
REMARK  11 active torsions:
REMARK  status: ('A' for Active; 'I' for Inactive)
REMARK    1  A    between atoms: C_1  and  C_2
REMARK    2  A    between atoms: C_2  and  C_3
REMARK    3  A    between atoms: C_3  and  C_4
REMARK    4  A    between atoms: C_4  and  O_5
REMARK    5  A    between atoms: O_5  and  C_6
REMARK    6  A    between atoms: C_6  and  C_7
REMARK    7  A    between atoms: C_7  and  O_8
REMARK    8  A    between atoms: O_8  and  C_9
REMARK    9  A    between atoms: C_9  and  C_11
REMARK   10  A    between atoms: C_11  and  C_12
REMARK   11  A    between atoms: C_11  and  N_18
REMARK                            x       y       z     vdW  Elec       q    Type
REMARK                         _______ _______ _______ _____ _____    ______ ____
ROOT
ATOM      1  C   UNL     1       2.926   6.231  19.773  0.00  0.00    +0.000 C 
ENDROOT
BRANCH   1   2
ATOM      2  C   UNL     1       2.230   7.559  19.415  0.00  0.00    +0.000 A 
ATOM      3  C   UNL     1       1.524   8.282  20.392  0.00  0.00    +0.000 A 
ATOM      4  C   UNL     1       0.697   9.353  20.041  0.00  0.00    +0.000 A 
ATOM      5  C   UNL     1       0.651   9.802  18.725  0.00  0.00    +0.000 A 
ATOM      6  C   UNL     1       1.442   9.184  17.763  0.00  0.00    +0.000 A 
ATOM      7  C   UNL     1       2.209   8.057  18.096  0.00  0.00    +0.000 A 
ENDBRANCH   1   2
BRANCH   1   8
ATOM      8  N   UNL     1       2.018   5.027  19.777  0.00  0.00    +0.000 NA
ATOM      9  C   UNL     1       2.111   4.294  18.499  0.00  0.00    +0.000 C 
ATOM     10  C   UNL     1       1.062   3.183  18.415  0.00  0.00    +0.000 C 
ATOM     11  C   UNL     1       1.178   2.214  19.583  0.00  0.00    +0.000 C 
ATOM     12  C   UNL     1       1.147   2.981  20.895  0.00  0.00    +0.000 C 
ATOM     13  C   UNL     1       2.189   4.105  20.904  0.00  0.00    +0.000 C 
ENDBRANCH   1   8
BRANCH   1  14
ATOM     14  C   UNL     1       4.100   5.937  18.747  0.00  0.00    +0.000 C 
ATOM     15  O   UNL     1       4.051   6.128  17.547  0.00  0.00    +0.000 OA
BRANCH  14  16
ATOM     16  O   UNL     1       5.201   5.387  19.378  0.00  0.00    +0.000 OA
BRANCH  16  17
ATOM     17  C   UNL     1       6.121   4.765  18.455  0.00  0.00    +0.000 C 
BRANCH  17  18
ATOM     18  C   UNL     1       7.293   5.699  18.169  0.00  0.00    +0.000 C 
BRANCH  18  19
ATOM     19  O   UNL     1       7.580   5.732  16.769  0.00  0.00    +0.000 OA
BRANCH  19  20
ATOM     20  C   UNL     1       7.056   4.571  16.119  0.00  0.00    +0.000 C 
BRANCH  20  21
ATOM     21  C   UNL     1       6.956   4.822  14.618  0.00  0.00    +0.000 C 
BRANCH  21  23
ATOM     22  C   UNL     1       6.059   3.461  12.685  0.00  0.00    +0.000 C 
ATOM     23  C   UNL     1       5.742   4.106  14.024  0.00  0.00    +0.000 C 
ENDBRANCH  21  23
ENDBRANCH  20  21
ENDBRANCH  19  20
ENDBRANCH  18  19
ENDBRANCH  17  18
ENDBRANCH  16  17
ENDBRANCH  14  16
ENDBRANCH   1  14
TORSDOF 10
ENDMDL
MODEL 4
REMARK VINA RESULT:      -6.6      0.810      1.276
REMARK  Name = 
REMARK  11 active torsions:
REMARK  status: ('A' for Active; 'I' for Inactive)
REMARK    1  A    between atoms: C_1  and  C_2
REMARK    2  A    between atoms: C_2  and  C_3
REMARK    3  A    between atoms: C_3  and  C_4
REMARK    4  A    between atoms: C_4  and  O_5
REMARK    5  A    between atoms: O_5  and  C_6
REMARK    6  A    between atoms: C_6  and  C_7
REMARK    7  A    between atoms: C_7  and  O_8
REMARK    8  A    between atoms: O_8  and  C_9
REMARK    9  A    between atoms: C_9  and  C_11
REMARK   10  A    between atoms: C_11  and  C_12
REMARK   11  A    between atoms: C_11  and  N_18
REMARK                            x       y       z     vdW  Elec       q    Type
REMARK                         _______ _______ _______ _____ _____    ______ ____
ROOT
ATOM      1  C   UNL     1       3.493   6.022  19.372  0.00  0.00    +0.000 C 
ENDROOT
BRANCH   1   2
ATOM      2  C   UNL     1       2.588   7.250  19.150  0.00  0.00    +0.000 A 
ATOM      3  C   UNL     1       2.548   7.891  17.899  0.00  0.00    +0.000 A 
ATOM      4  C   UNL     1       1.923   9.132  17.743  0.00  0.00    +0.000 A 
ATOM      5  C   UNL     1       1.222   9.702  18.801  0.00  0.00    +0.000 A 
ATOM      6  C   UNL     1       1.138   9.024  20.012  0.00  0.00    +0.000 A 
ATOM      7  C   UNL     1       1.834   7.819  20.197  0.00  0.00    +0.000 A 
ENDBRANCH   1   2
BRANCH   1   8
ATOM      8  N   UNL     1       2.802   4.839  20.003  0.00  0.00    +0.000 NA
ATOM      9  C   UNL     1       1.577   4.486  19.257  0.00  0.00    +0.000 C 
ATOM     10  C   UNL     1       0.769   3.412  19.988  0.00  0.00    +0.000 C 
ATOM     11  C   UNL     1       1.600   2.164  20.249  0.00  0.00    +0.000 C 
ATOM     12  C   UNL     1       2.890   2.543  20.959  0.00  0.00    +0.000 C 
ATOM     13  C   UNL     1       3.634   3.649  20.203  0.00  0.00    +0.000 C 
ENDBRANCH   1   8
BRANCH   1  14
ATOM     14  C   UNL     1       4.100   5.535  17.990  0.00  0.00    +0.000 C 
ATOM     15  O   UNL     1       3.509   4.883  17.152  0.00  0.00    +0.000 OA
BRANCH  14  16
ATOM     16  O   UNL     1       5.425   5.910  17.857  0.00  0.00    +0.000 OA
BRANCH  16  17
ATOM     17  C   UNL     1       6.340   4.815  18.078  0.00  0.00    +0.000 C 
BRANCH  17  18
ATOM     18  C   UNL     1       7.288   4.671  16.892  0.00  0.00    +0.000 C 
BRANCH  18  19
ATOM     19  O   UNL     1       6.934   5.586  15.852  0.00  0.00    +0.000 OA
BRANCH  19  20
ATOM     20  C   UNL     1       7.035   4.957  14.572  0.00  0.00    +0.000 C 
BRANCH  20  21
ATOM     21  C   UNL     1       5.864   4.000  14.374  0.00  0.00    +0.000 C 
BRANCH  21  23
ATOM     22  C   UNL     1       6.994   3.911  12.113  0.00  0.00    +0.000 C 
ATOM     23  C   UNL     1       5.740   3.584  12.908  0.00  0.00    +0.000 C 
ENDBRANCH  21  23
ENDBRANCH  20  21
ENDBRANCH  19  20
ENDBRANCH  18  19
ENDBRANCH  17  18
ENDBRANCH  16  17
ENDBRANCH  14  16
ENDBRANCH   1  14
TORSDOF 10
ENDMDL
MODEL 5
REMARK VINA RESULT:      -6.5      1.079      1.783
REMARK  Name = 
REMARK  11 active torsions:
REMARK  status: ('A' for Active; 'I' for Inactive)
REMARK    1  A    between atoms: C_1  and  C_2
REMARK    2  A    between atoms: C_2  and  C_3
REMARK    3  A    between atoms: C_3  and  C_4
REMARK    4  A    between atoms: C_4  and  O_5
REMARK    5  A    between atoms: O_5  and  C_6
REMARK    6  A    between atoms: C_6  and  C_7
REMARK    7  A    between atoms: C_7  and  O_8
REMARK    8  A    between atoms: O_8  and  C_9
REMARK    9  A    between atoms: C_9  and  C_11
REMARK   10  A    between atoms: C_11  and  C_12
REMARK   11  A    between atoms: C_11  and  N_18
REMARK                            x       y       z     vdW  Elec       q    Type
REMARK                         _______ _______ _______ _____ _____    ______ ____
ROOT
ATOM      1  C   UNL     1       3.292   6.047  19.021  0.00  0.00    +0.000 C 
ENDROOT
BRANCH   1   2
ATOM      2  C   UNL     1       2.484   7.357  19.103  0.00  0.00    +0.000 A 
ATOM      3  C   UNL     1       1.906   7.765  20.318  0.00  0.00    +0.000 A 
ATOM      4  C   UNL     1       0.982   8.814  20.361  0.00  0.00    +0.000 A 
ATOM      5  C   UNL     1       0.706   9.554  19.216  0.00  0.00    +0.000 A 
ATOM      6  C   UNL     1       1.365   9.251  18.030  0.00  0.00    +0.000 A 
ATOM      7  C   UNL     1       2.229   8.147  17.963  0.00  0.00    +0.000 A 
ENDBRANCH   1   2
BRANCH   1   8
ATOM      8  N   UNL     1       2.481   4.830  18.653  0.00  0.00    +0.000 NA
ATOM      9  C   UNL     1       3.351   3.755  18.136  0.00  0.00    +0.000 C 
ATOM     10  C   UNL     1       2.528   2.588  17.585  0.00  0.00    +0.000 C 
ATOM     11  C   UNL     1       1.575   2.031  18.632  0.00  0.00    +0.000 C 
ATOM     12  C   UNL     1       0.727   3.154  19.208  0.00  0.00    +0.000 C 
ATOM     13  C   UNL     1       1.603   4.309  19.705  0.00  0.00    +0.000 C 
ENDBRANCH   1   8
BRANCH   1  14
ATOM     14  C   UNL     1       4.451   6.188  17.946  0.00  0.00    +0.000 C 
ATOM     15  O   UNL     1       4.293   6.464  16.773  0.00  0.00    +0.000 OA
BRANCH  14  16
ATOM     16  O   UNL     1       5.690   5.915  18.497  0.00  0.00    +0.000 OA
BRANCH  16  17
ATOM     17  C   UNL     1       6.768   6.062  17.546  0.00  0.00    +0.000 C 
BRANCH  17  18
ATOM     18  C   UNL     1       7.260   4.692  17.091  0.00  0.00    +0.000 C 
BRANCH  18  19
ATOM     19  O   UNL     1       7.427   4.663  15.672  0.00  0.00    +0.000 OA
BRANCH  19  20
ATOM     20  C   UNL     1       6.520   3.732  15.076  0.00  0.00    +0.000 C 
BRANCH  20  21
ATOM     21  C   UNL     1       5.435   4.485  14.313  0.00  0.00    +0.000 C 
BRANCH  21  23
ATOM     22  C   UNL     1       6.473   3.398  12.280  0.00  0.00    +0.000 C 
ATOM     23  C   UNL     1       5.183   3.846  12.948  0.00  0.00    +0.000 C 
ENDBRANCH  21  23
ENDBRANCH  20  21
ENDBRANCH  19  20
ENDBRANCH  18  19
ENDBRANCH  17  18
ENDBRANCH  16  17
ENDBRANCH  14  16
ENDBRANCH   1  14
TORSDOF 10
ENDMDL
MODEL 6
REMARK VINA RESULT:      -6.5      1.197      3.929
REMARK  Name = 
REMARK  11 active torsions:
REMARK  status: ('A' for Active; 'I' for Inactive)
REMARK    1  A    between atoms: C_1  and  C_2
REMARK    2  A    between atoms: C_2  and  C_3
REMARK    3  A    between atoms: C_3  and  C_4
REMARK    4  A    between atoms: C_4  and  O_5
REMARK    5  A    between atoms: O_5  and  C_6
REMARK    6  A    between atoms: C_6  and  C_7
REMARK    7  A    between atoms: C_7  and  O_8
REMARK    8  A    between atoms: O_8  and  C_9
REMARK    9  A    between atoms: C_9  and  C_11
REMARK   10  A    between atoms: C_11  and  C_12
REMARK   11  A    between atoms: C_11  and  N_18
REMARK                            x       y       z     vdW  Elec       q    Type
REMARK                         _______ _______ _______ _____ _____    ______ ____
ROOT
ATOM      1  C   UNL     1       3.525   5.509  18.344  0.00  0.00    +0.000 C 
ENDROOT
BRANCH   1   2
ATOM      2  C   UNL     1       2.733   4.336  18.953  0.00  0.00    +0.000 A 
ATOM      3  C   UNL     1       1.911   3.532  18.144  0.00  0.00    +0.000 A 
ATOM      4  C   UNL     1       1.011   2.622  18.708  0.00  0.00    +0.000 A 
ATOM      5  C   UNL     1       0.998   2.408  20.083  0.00  0.00    +0.000 A 
ATOM      6  C   UNL     1       1.894   3.098  20.891  0.00  0.00    +0.000 A 
ATOM      7  C   UNL     1       2.740   4.073  20.339  0.00  0.00    +0.000 A 
ENDBRANCH   1   2
BRANCH   1   8
ATOM      8  N   UNL     1       3.059   6.875  18.781  0.00  0.00    +0.000 NA
ATOM      9  C   UNL     1       2.566   7.657  17.629  0.00  0.00    +0.000 C 
ATOM     10  C   UNL     1       2.267   9.105  18.024  0.00  0.00    +0.000 C 
ATOM     11  C   UNL     1       1.268   9.178  19.171  0.00  0.00    +0.000 C 
ATOM     12  C   UNL     1       1.749   8.318  20.329  0.00  0.00    +0.000 C 
ATOM     13  C   UNL     1       2.072   6.894  19.865  0.00  0.00    +0.000 C 
ENDBRANCH   1   8
BRANCH   1  14
ATOM     14  C   UNL     1       5.060   5.387  18.725  0.00  0.00    +0.000 C 
ATOM     15  O   UNL     1       5.518   4.647  19.573  0.00  0.00    +0.000 OA
BRANCH  14  16
ATOM     16  O   UNL     1       5.836   6.268  17.994  0.00  0.00    +0.000 OA
BRANCH  16  17
ATOM     17  C   UNL     1       7.193   5.805  17.820  0.00  0.00    +0.000 C 
BRANCH  17  18
ATOM     18  C   UNL     1       7.255   4.754  16.717  0.00  0.00    +0.000 C 
BRANCH  18  19
ATOM     19  O   UNL     1       7.375   5.376  15.436  0.00  0.00    +0.000 OA
BRANCH  19  20
ATOM     20  C   UNL     1       6.184   5.184  14.669  0.00  0.00    +0.000 C 
BRANCH  20  21
ATOM     21  C   UNL     1       6.117   3.744  14.172  0.00  0.00    +0.000 C 
BRANCH  21  23
ATOM     22  C   UNL     1       5.086   3.214  11.924  0.00  0.00    +0.000 C 
ATOM     23  C   UNL     1       6.333   3.676  12.660  0.00  0.00    +0.000 C 
ENDBRANCH  21  23
ENDBRANCH  20  21
ENDBRANCH  19  20
ENDBRANCH  18  19
ENDBRANCH  17  18
ENDBRANCH  16  17
ENDBRANCH  14  16
ENDBRANCH   1  14
TORSDOF 10
ENDMDL
MODEL 7
REMARK VINA RESULT:      -6.5      1.720      2.626
REMARK  Name = 
REMARK  11 active torsions:
REMARK  status: ('A' for Active; 'I' for Inactive)
REMARK    1  A    between atoms: C_1  and  C_2
REMARK    2  A    between atoms: C_2  and  C_3
REMARK    3  A    between atoms: C_3  and  C_4
REMARK    4  A    between atoms: C_4  and  O_5
REMARK    5  A    between atoms: O_5  and  C_6
REMARK    6  A    between atoms: C_6  and  C_7
REMARK    7  A    between atoms: C_7  and  O_8
REMARK    8  A    between atoms: O_8  and  C_9
REMARK    9  A    between atoms: C_9  and  C_11
REMARK   10  A    between atoms: C_11  and  C_12
REMARK   11  A    between atoms: C_11  and  N_18
REMARK                            x       y       z     vdW  Elec       q    Type
REMARK                         _______ _______ _______ _____ _____    ______ ____
ROOT
ATOM      1  C   UNL     1       3.886   5.565  18.886  0.00  0.00    +0.000 C 
ENDROOT
BRANCH   1   2
ATOM      2  C   UNL     1       3.058   6.863  18.955  0.00  0.00    +0.000 A 
ATOM      3  C   UNL     1       2.354   7.200  20.125  0.00  0.00    +0.000 A 
ATOM      4  C   UNL     1       1.418   8.239  20.130  0.00  0.00    +0.000 A 
ATOM      5  C   UNL     1       1.252   9.040  19.005  0.00  0.00    +0.000 A 
ATOM      6  C   UNL     1       2.033   8.807  17.878  0.00  0.00    +0.000 A 
ATOM      7  C   UNL     1       2.912   7.715  17.840  0.00  0.00    +0.000 A 
ENDBRANCH   1   2
BRANCH   1   8
ATOM      8  N   UNL     1       3.088   4.328  18.560  0.00  0.00    +0.000 NA
ATOM      9  C   UNL     1       3.725   3.125  19.133  0.00  0.00    +0.000 C 
ATOM     10  C   UNL     1       3.032   1.847  18.655  0.00  0.00    +0.000 C 
ATOM     11  C   UNL     1       1.546   1.858  18.983  0.00  0.00    +0.000 C 
ATOM     12  C   UNL     1       0.910   3.130  18.447  0.00  0.00    +0.000 C 
ATOM     13  C   UNL     1       1.668   4.373  18.924  0.00  0.00    +0.000 C 
ENDBRANCH   1   8
BRANCH   1  14
ATOM     14  C   UNL     1       5.021   5.701  17.785  0.00  0.00    +0.000 C 
ATOM     15  O   UNL     1       6.073   6.294  17.927  0.00  0.00    +0.000 OA
BRANCH  14  16
ATOM     16  O   UNL     1       4.656   5.086  16.601  0.00  0.00    +0.000 OA
BRANCH  16  17
ATOM     17  C   UNL     1       5.423   5.554  15.470  0.00  0.00    +0.000 C 
BRANCH  17  18
ATOM     18  C   UNL     1       6.097   4.380  14.767  0.00  0.00    +0.000 C 
BRANCH  18  19
ATOM     19  O   UNL     1       5.392   4.038  13.571  0.00  0.00    +0.000 OA
BRANCH  19  20
ATOM     20  C   UNL     1       6.214   3.245  12.711  0.00  0.00    +0.000 C 
BRANCH  20  21
ATOM     21  C   UNL     1       5.397   2.770  11.513  0.00  0.00    +0.000 C 
BRANCH  21  23
ATOM     22  C   UNL     1       3.177   2.993  10.324  0.00  0.00    +0.000 C 
ATOM     23  C   UNL     1       4.103   3.573  11.380  0.00  0.00    +0.000 C 
ENDBRANCH  21  23
ENDBRANCH  20  21
ENDBRANCH  19  20
ENDBRANCH  18  19
ENDBRANCH  17  18
ENDBRANCH  16  17
ENDBRANCH  14  16
ENDBRANCH   1  14
TORSDOF 10
ENDMDL
MODEL 8
REMARK VINA RESULT:      -6.5      1.062      1.365
REMARK  Name = 
REMARK  11 active torsions:
REMARK  status: ('A' for Active; 'I' for Inactive)
REMARK    1  A    between atoms: C_1  and  C_2
REMARK    2  A    between atoms: C_2  and  C_3
REMARK    3  A    between atoms: C_3  and  C_4
REMARK    4  A    between atoms: C_4  and  O_5
REMARK    5  A    between atoms: O_5  and  C_6
REMARK    6  A    between atoms: C_6  and  C_7
REMARK    7  A    between atoms: C_7  and  O_8
REMARK    8  A    between atoms: O_8  and  C_9
REMARK    9  A    between atoms: C_9  and  C_11
REMARK   10  A    between atoms: C_11  and  C_12
REMARK   11  A    between atoms: C_11  and  N_18
REMARK                            x       y       z     vdW  Elec       q    Type
REMARK                         _______ _______ _______ _____ _____    ______ ____
ROOT
ATOM      1  C   UNL     1       3.459   6.009  19.426  0.00  0.00    +0.000 C 
ENDROOT
BRANCH   1   2
ATOM      2  C   UNL     1       2.507   7.207  19.244  0.00  0.00    +0.000 A 
ATOM      3  C   UNL     1       2.295   7.765  17.971  0.00  0.00    +0.000 A 
ATOM      4  C   UNL     1       1.630   8.985  17.818  0.00  0.00    +0.000 A 
ATOM      5  C   UNL     1       1.056   9.614  18.919  0.00  0.00    +0.000 A 
ATOM      6  C   UNL     1       1.141   9.015  20.171  0.00  0.00    +0.000 A 
ATOM      7  C   UNL     1       1.879   7.834  20.341  0.00  0.00    +0.000 A 
ENDBRANCH   1   2
BRANCH   1   8
ATOM      8  N   UNL     1       2.782   4.661  19.400  0.00  0.00    +0.000 NA
ATOM      9  C   UNL     1       2.014   4.433  20.640  0.00  0.00    +0.000 C 
ATOM     10  C   UNL     1       1.478   3.001  20.709  0.00  0.00    +0.000 C 
ATOM     11  C   UNL     1       0.624   2.663  19.496  0.00  0.00    +0.000 C 
ATOM     12  C   UNL     1       1.397   2.961  18.222  0.00  0.00    +0.000 C 
ATOM     13  C   UNL     1       1.943   4.393  18.227  0.00  0.00    +0.000 C 
ENDBRANCH   1   8
BRANCH   1  14
ATOM     14  C   UNL     1       4.560   6.009  18.285  0.00  0.00    +0.000 C 
ATOM     15  O   UNL     1       4.702   6.874  17.443  0.00  0.00    +0.000 OA
BRANCH  14  16
ATOM     16  O   UNL     1       5.338   4.866  18.329  0.00  0.00    +0.000 OA
BRANCH  16  17
ATOM     17  C   UNL     1       5.746   4.417  17.018  0.00  0.00    +0.000 C 
BRANCH  17  18
ATOM     18  C   UNL     1       7.225   4.717  16.794  0.00  0.00    +0.000 C 
BRANCH  18  19
ATOM     19  O   UNL     1       7.407   5.483  15.602  0.00  0.00    +0.000 OA
BRANCH  19  20
ATOM     20  C   UNL     1       6.851   4.802  14.474  0.00  0.00    +0.000 C 
BRANCH  20  21
ATOM     21  C   UNL     1       7.765   4.975  13.265  0.00  0.00    +0.000 C 
BRANCH  21  23
ATOM     22  C   UNL     1       6.133   3.322  12.266  0.00  0.00    +0.000 C 
ATOM     23  C   UNL     1       7.086   4.474  11.990  0.00  0.00    +0.000 C 
ENDBRANCH  21  23
ENDBRANCH  20  21
ENDBRANCH  19  20
ENDBRANCH  18  19
ENDBRANCH  17  18
ENDBRANCH  16  17
ENDBRANCH  14  16
ENDBRANCH   1  14
TORSDOF 10
ENDMDL
MODEL 9
REMARK VINA RESULT:      -6.4      1.560      4.211
REMARK  Name = 
REMARK  11 active torsions:
REMARK  status: ('A' for Active; 'I' for Inactive)
REMARK    1  A    between atoms: C_1  and  C_2
REMARK    2  A    between atoms: C_2  and  C_3
REMARK    3  A    between atoms: C_3  and  C_4
REMARK    4  A    between atoms: C_4  and  O_5
REMARK    5  A    between atoms: O_5  and  C_6
REMARK    6  A    between atoms: C_6  and  C_7
REMARK    7  A    between atoms: C_7  and  O_8
REMARK    8  A    between atoms: O_8  and  C_9
REMARK    9  A    between atoms: C_9  and  C_11
REMARK   10  A    between atoms: C_11  and  C_12
REMARK   11  A    between atoms: C_11  and  N_18
REMARK                            x       y       z     vdW  Elec       q    Type
REMARK                         _______ _______ _______ _____ _____    ______ ____
ROOT
ATOM      1  C   UNL     1       2.998   5.753  17.904  0.00  0.00    +0.000 C 
ENDROOT
BRANCH   1   2
ATOM      2  C   UNL     1       2.377   4.368  18.173  0.00  0.00    +0.000 A 
ATOM      3  C   UNL     1       1.365   4.213  19.136  0.00  0.00    +0.000 A 
ATOM      4  C   UNL     1       0.958   2.944  19.558  0.00  0.00    +0.000 A 
ATOM      5  C   UNL     1       1.466   1.804  18.943  0.00  0.00    +0.000 A 
ATOM      6  C   UNL     1       2.373   1.936  17.898  0.00  0.00    +0.000 A 
ATOM      7  C   UNL     1       2.846   3.204  17.528  0.00  0.00    +0.000 A 
ENDBRANCH   1   2
BRANCH   1   8
ATOM      8  N   UNL     1       2.172   6.916  18.393  0.00  0.00    +0.000 NA
ATOM      9  C   UNL     1       2.393   7.150  19.834  0.00  0.00    +0.000 C 
ATOM     10  C   UNL     1       1.427   8.201  20.384  0.00  0.00    +0.000 C 
ATOM     11  C   UNL     1       1.532   9.513  19.620  0.00  0.00    +0.000 C 
ATOM     12  C   UNL     1       1.369   9.257  18.130  0.00  0.00    +0.000 C 
ATOM     13  C   UNL     1       2.332   8.168  17.647  0.00  0.00    +0.000 C 
ENDBRANCH   1   8
BRANCH   1  14
ATOM     14  C   UNL     1       4.421   5.857  18.599  0.00  0.00    +0.000 C 
ATOM     15  O   UNL     1       4.655   5.605  19.765  0.00  0.00    +0.000 OA
BRANCH  14  16
ATOM     16  O   UNL     1       5.384   6.314  17.718  0.00  0.00    +0.000 OA
BRANCH  16  17
ATOM     17  C   UNL     1       5.989   5.251  16.951  0.00  0.00    +0.000 C 
BRANCH  17  18
ATOM     18  C   UNL     1       5.620   5.386  15.477  0.00  0.00    +0.000 C 
BRANCH  18  19
ATOM     19  O   UNL     1       6.767   5.739  14.702  0.00  0.00    +0.000 OA
BRANCH  19  20
ATOM     20  C   UNL     1       7.082   4.705  13.767  0.00  0.00    +0.000 C 
BRANCH  20  21
ATOM     21  C   UNL     1       5.876   3.788  13.587  0.00  0.00    +0.000 C 
BRANCH  21  23
ATOM     22  C   UNL     1       4.430   3.286  11.574  0.00  0.00    +0.000 C 
ATOM     23  C   UNL     1       5.828   3.221  12.167  0.00  0.00    +0.000 C 
ENDBRANCH  21  23
ENDBRANCH  20  21
ENDBRANCH  19  20
ENDBRANCH  18  19
ENDBRANCH  17  18
ENDBRANCH  16  17
ENDBRANCH  14  16
ENDBRANCH   1  14
TORSDOF 10
ENDMDL
