MODEL 1
REMARK VINA RESULT:      -8.2      0.000      0.000
REMARK  Name = 
REMARK  7 active torsions:
REMARK  status: ('A' for Active; 'I' for Inactive)
REMARK    1  A    between atoms: C_1  and  O_2
REMARK    2  A    between atoms: O_2  and  C_3
REMARK    3  A    between atoms: C_6  and  C_7
REMARK    4  A    between atoms: C_7  and  C_8
REMARK    5  A    between atoms: C_11  and  O_12
REMARK    6  A    between atoms: O_12  and  C_13
REMARK    7  A    between atoms: N_19  and  C_20
REMARK                            x       y       z     vdW  Elec       q    Type
REMARK                         _______ _______ _______ _____ _____    ______ ____
ROOT
ATOM      1  C   UNL     1       5.813   5.138  17.416  0.00  0.00    +0.000 C 
ATOM      2  N   UNL     1       6.207   4.042  18.310  0.00  0.00    +0.000 N 
ATOM      3  C   UNL     1       5.148   3.556  18.994  0.00  0.00    +0.000 C 
ATOM      4  N   UNL     1       5.172   2.512  19.721  0.00  0.00    +0.000 NA
ATOM      5  N   UNL     1       4.046   4.302  18.793  0.00  0.00    +0.000 N 
ATOM      6  C   UNL     1       4.286   5.232  17.805  0.00  0.00    +0.000 C 
ATOM      7  O   UNL     1       3.437   5.970  17.312  0.00  0.00    +0.000 OA
ATOM      8  H   UNL     1       6.970   3.435  18.080  0.00  0.00    +0.000 HD
ATOM      9  H   UNL     1       6.111   2.111  19.729  0.00  0.00    +0.000 HD
ENDROOT
BRANCH   1  13
ATOM     10  C   UNL     1       6.472   4.030  13.231  0.00  0.00    +0.000 A 
ATOM     11  C   UNL     1       5.328   3.593  13.891  0.00  0.00    +0.000 A 
ATOM     12  C   UNL     1       5.108   3.938  15.232  0.00  0.00    +0.000 A 
ATOM     13  C   UNL     1       6.022   4.744  15.941  0.00  0.00    +0.000 A 
ATOM     14  C   UNL     1       7.183   5.140  15.259  0.00  0.00    +0.000 A 
ATOM     15  C   UNL     1       7.404   4.793  13.926  0.00  0.00    +0.000 A 
BRANCH  10  17
ATOM     16  C   UNL     1       5.765   2.547  11.552  0.00  0.00    +0.000 C 
ATOM     17  O   UNL     1       6.605   3.634  11.929  0.00  0.00    +0.000 OA
ENDBRANCH  10  17
ENDBRANCH   1  13
BRANCH   1  18
ATOM     18  C   UNL     1       6.604   6.400  17.796  0.00  0.00    +0.000 A 
ATOM     19  C   UNL     1       6.340   7.646  17.204  0.00  0.00    +0.000 A 
ATOM     20  C   UNL     1       7.176   8.742  17.432  0.00  0.00    +0.000 A 
ATOM     21  C   UNL     1       8.288   8.632  18.263  0.00  0.00    +0.000 A 
ATOM     22  C   UNL     1       8.543   7.421  18.900  0.00  0.00    +0.000 A 
ATOM     23  C   UNL     1       7.700   6.324  18.682  0.00  0.00    +0.000 A 
BRANCH  21  24
ATOM     24  O   UNL     1       9.078   9.744  18.322  0.00  0.00    +0.000 OA
ATOM     25  C   UNL     1       9.222  10.336  19.606  0.00  0.00    +0.000 C 
ENDBRANCH  21  24
ENDBRANCH   1  18
BRANCH   5  26
ATOM     26  C   UNL     1       2.739   4.145  19.430  0.00  0.00    +0.000 C 
ATOM     27  C   UNL     1       2.880   3.870  20.930  0.00  0.00    +0.000 C 
ATOM     28  C   UNL     1       1.522   3.617  21.558  0.00  0.00    +0.000 C 
ATOM     29  O   UNL     1       0.827   2.580  20.871  0.00  0.00    +0.000 OA
ATOM     30  C   UNL     1       0.566   2.910  19.508  0.00  0.00    +0.000 C 
ATOM     31  C   UNL     1       1.860   3.104  18.735  0.00  0.00    +0.000 C 
ENDBRANCH   5  26
TORSDOF 5
ENDMDL
MODEL 2
REMARK VINA RESULT:      -7.8      7.469     10.217
REMARK  Name = 
REMARK  7 active torsions:
REMARK  status: ('A' for Active; 'I' for Inactive)
REMARK    1  A    between atoms: C_1  and  O_2
REMARK    2  A    between atoms: O_2  and  C_3
REMARK    3  A    between atoms: C_6  and  C_7
REMARK    4  A    between atoms: C_7  and  C_8
REMARK    5  A    between atoms: C_11  and  O_12
REMARK    6  A    between atoms: O_12  and  C_13
REMARK    7  A    between atoms: N_19  and  C_20
REMARK                            x       y       z     vdW  Elec       q    Type
REMARK                         _______ _______ _______ _____ _____    ______ ____
ROOT
ATOM      1  C   UNL     1       0.704  10.919  19.059  0.00  0.00    +0.000 C 
ATOM      2  N   UNL     1       1.408  11.599  17.966  0.00  0.00    +0.000 N 
ATOM      3  C   UNL     1       2.076  12.688  18.408  0.00  0.00    +0.000 C 
ATOM      4  N   UNL     1       2.889  13.373  17.709  0.00  0.00    +0.000 NA
ATOM      5  N   UNL     1       1.795  12.949  19.698  0.00  0.00    +0.000 N 
ATOM      6  C   UNL     1       1.051  11.919  20.231  0.00  0.00    +0.000 C 
ATOM      7  O   UNL     1       0.749  11.809  21.416  0.00  0.00    +0.000 OA
ATOM      8  H   UNL     1       1.758  11.088  17.179  0.00  0.00    +0.000 HD
ATOM      9  H   UNL     1       2.943  12.993  16.762  0.00  0.00    +0.000 HD
ENDROOT
BRANCH   1  13
ATOM     10  C   UNL     1       2.312   6.910  19.777  0.00  0.00    +0.000 A 
ATOM     11  C   UNL     1       2.536   7.538  18.556  0.00  0.00    +0.000 A 
ATOM     12  C   UNL     1       2.023   8.820  18.313  0.00  0.00    +0.000 A 
ATOM     13  C   UNL     1       1.285   9.512  19.295  0.00  0.00    +0.000 A 
ATOM     14  C   UNL     1       1.045   8.839  20.503  0.00  0.00    +0.000 A 
ATOM     15  C   UNL     1       1.552   7.561  20.743  0.00  0.00    +0.000 A 
BRANCH  10  17
ATOM     16  C   UNL     1       2.157   4.827  20.851  0.00  0.00    +0.000 C 
ATOM     17  O   UNL     1       2.841   5.657  19.917  0.00  0.00    +0.000 OA
ENDBRANCH  10  17
ENDBRANCH   1  13
BRANCH   1  18
ATOM     18  C   UNL     1      -0.799  10.879  18.735  0.00  0.00    +0.000 A 
ATOM     19  C   UNL     1      -1.323  10.012  17.762  0.00  0.00    +0.000 A 
ATOM     20  C   UNL     1      -2.658  10.108  17.359  0.00  0.00    +0.000 A 
ATOM     21  C   UNL     1      -3.508  11.057  17.921  0.00  0.00    +0.000 A 
ATOM     22  C   UNL     1      -3.024  11.894  18.922  0.00  0.00    +0.000 A 
ATOM     23  C   UNL     1      -1.690  11.793  19.336  0.00  0.00    +0.000 A 
BRANCH  21  24
ATOM     24  O   UNL     1      -4.756  11.114  17.370  0.00  0.00    +0.000 OA
ATOM     25  C   UNL     1      -5.842  11.069  18.285  0.00  0.00    +0.000 C 
ENDBRANCH  21  24
ENDBRANCH   1  18
BRANCH   5  26
ATOM     26  C   UNL     1       2.252  14.087  20.493  0.00  0.00    +0.000 C 
ATOM     27  C   UNL     1       3.516  13.742  21.286  0.00  0.00    +0.000 C 
ATOM     28  C   UNL     1       3.923  14.901  22.176  0.00  0.00    +0.000 C 
ATOM     29  O   UNL     1       2.843  15.306  23.013  0.00  0.00    +0.000 OA
ATOM     30  C   UNL     1       1.722  15.772  22.264  0.00  0.00    +0.000 C 
ATOM     31  C   UNL     1       1.154  14.667  21.387  0.00  0.00    +0.000 C 
ENDBRANCH   5  26
TORSDOF 5
ENDMDL
MODEL 3
REMARK VINA RESULT:      -7.7      7.429     10.266
REMARK  Name = 
REMARK  7 active torsions:
REMARK  status: ('A' for Active; 'I' for Inactive)
REMARK    1  A    between atoms: C_1  and  O_2
REMARK    2  A    between atoms: O_2  and  C_3
REMARK    3  A    between atoms: C_6  and  C_7
REMARK    4  A    between atoms: C_7  and  C_8
REMARK    5  A    between atoms: C_11  and  O_12
REMARK    6  A    between atoms: O_12  and  C_13
REMARK    7  A    between atoms: N_19  and  C_20
REMARK                            x       y       z     vdW  Elec       q    Type
REMARK                         _______ _______ _______ _____ _____    ______ ____
ROOT
ATOM      1  C   UNL     1       0.676  10.825  19.043  0.00  0.00    +0.000 C 
ATOM      2  N   UNL     1       1.443  11.553  18.025  0.00  0.00    +0.000 N 
ATOM      3  C   UNL     1       2.061  12.634  18.549  0.00  0.00    +0.000 C 
ATOM      4  N   UNL     1       2.909  13.355  17.932  0.00  0.00    +0.000 NA
ATOM      5  N   UNL     1       1.689  12.845  19.826  0.00  0.00    +0.000 N 
ATOM      6  C   UNL     1       0.926  11.787  20.270  0.00  0.00    +0.000 C 
ATOM      7  O   UNL     1       0.546  11.631  21.427  0.00  0.00    +0.000 OA
ATOM      8  H   UNL     1       1.853  11.075  17.247  0.00  0.00    +0.000 HD
ATOM      9  H   UNL     1       3.034  13.010  16.979  0.00  0.00    +0.000 HD
ENDROOT
BRANCH   1  13
ATOM     10  C   UNL     1       2.385   6.838  19.636  0.00  0.00    +0.000 A 
ATOM     11  C   UNL     1       1.669   7.444  20.663  0.00  0.00    +0.000 A 
ATOM     12  C   UNL     1       1.121   8.722  20.487  0.00  0.00    +0.000 A 
ATOM     13  C   UNL     1       1.262   9.419  19.269  0.00  0.00    +0.000 A 
ATOM     14  C   UNL     1       2.019   8.796  18.264  0.00  0.00    +0.000 A 
ATOM     15  C   UNL     1       2.569   7.526  18.441  0.00  0.00    +0.000 A 
BRANCH  10  17
ATOM     16  C   UNL     1       2.098   4.811  20.789  0.00  0.00    +0.000 C 
ATOM     17  O   UNL     1       2.892   5.597  19.905  0.00  0.00    +0.000 OA
ENDBRANCH  10  17
ENDBRANCH   1  13
BRANCH   1  18
ATOM     18  C   UNL     1      -0.800  10.776  18.616  0.00  0.00    +0.000 A 
ATOM     19  C   UNL     1      -1.245   9.927  17.589  0.00  0.00    +0.000 A 
ATOM     20  C   UNL     1      -2.551  10.018  17.097  0.00  0.00    +0.000 A 
ATOM     21  C   UNL     1      -3.449  10.944  17.620  0.00  0.00    +0.000 A 
ATOM     22  C   UNL     1      -3.046  11.763  18.671  0.00  0.00    +0.000 A 
ATOM     23  C   UNL     1      -1.742  11.667  19.173  0.00  0.00    +0.000 A 
BRANCH  21  24
ATOM     24  O   UNL     1      -4.657  11.001  16.985  0.00  0.00    +0.000 OA
ATOM     25  C   UNL     1      -5.511  12.069  17.372  0.00  0.00    +0.000 C 
ENDBRANCH  21  24
ENDBRANCH   1  18
BRANCH   5  26
ATOM     26  C   UNL     1       2.072  13.961  20.689  0.00  0.00    +0.000 C 
ATOM     27  C   UNL     1       1.651  15.303  20.085  0.00  0.00    +0.000 C 
ATOM     28  C   UNL     1       2.138  16.455  20.945  0.00  0.00    +0.000 C 
ATOM     29  O   UNL     1       3.542  16.368  21.168  0.00  0.00    +0.000 OA
ATOM     30  C   UNL     1       3.908  15.181  21.870  0.00  0.00    +0.000 C 
ATOM     31  C   UNL     1       3.554  13.939  21.067  0.00  0.00    +0.000 C 
ENDBRANCH   5  26
TORSDOF 5
ENDMDL
MODEL 4
REMARK VINA RESULT:      -7.6      1.139      5.473
REMARK  Name = 
REMARK  7 active torsions:
REMARK  status: ('A' for Active; 'I' for Inactive)
REMARK    1  A    between atoms: C_1  and  O_2
REMARK    2  A    between atoms: O_2  and  C_3
REMARK    3  A    between atoms: C_6  and  C_7
REMARK    4  A    between atoms: C_7  and  C_8
REMARK    5  A    between atoms: C_11  and  O_12
REMARK    6  A    between atoms: O_12  and  C_13
REMARK    7  A    between atoms: N_19  and  C_20
REMARK                            x       y       z     vdW  Elec       q    Type
REMARK                         _______ _______ _______ _____ _____    ______ ____
ROOT
ATOM      1  C   UNL     1       5.632   5.631  17.156  0.00  0.00    +0.000 C 
ATOM      2  N   UNL     1       4.303   6.239  17.017  0.00  0.00    +0.000 N 
ATOM      3  C   UNL     1       3.419   5.701  17.886  0.00  0.00    +0.000 C 
ATOM      4  N   UNL     1       2.242   6.141  18.088  0.00  0.00    +0.000 NA
ATOM      5  N   UNL     1       3.946   4.649  18.539  0.00  0.00    +0.000 N 
ATOM      6  C   UNL     1       5.291   4.550  18.256  0.00  0.00    +0.000 C 
ATOM      7  O   UNL     1       6.069   3.770  18.798  0.00  0.00    +0.000 OA
ATOM      8  H   UNL     1       4.198   7.192  16.728  0.00  0.00    +0.000 HD
ATOM      9  H   UNL     1       2.058   6.942  17.482  0.00  0.00    +0.000 HD
ENDROOT
BRANCH   1  13
ATOM     10  C   UNL     1       8.515   8.625  18.532  0.00  0.00    +0.000 A 
ATOM     11  C   UNL     1       8.550   7.337  19.057  0.00  0.00    +0.000 A 
ATOM     12  C   UNL     1       7.630   6.371  18.627  0.00  0.00    +0.000 A 
ATOM     13  C   UNL     1       6.660   6.667  17.647  0.00  0.00    +0.000 A 
ATOM     14  C   UNL     1       6.627   7.984  17.162  0.00  0.00    +0.000 A 
ATOM     15  C   UNL     1       7.541   8.947  17.593  0.00  0.00    +0.000 A 
BRANCH  10  17
ATOM     16  C   UNL     1       9.205  10.865  18.688  0.00  0.00    +0.000 C 
ATOM     17  O   UNL     1       9.444   9.501  19.021  0.00  0.00    +0.000 OA
ENDBRANCH  10  17
ENDBRANCH   1  13
BRANCH   1  18
ATOM     18  C   UNL     1       6.036   5.005  15.811  0.00  0.00    +0.000 A 
ATOM     19  C   UNL     1       7.263   5.304  15.195  0.00  0.00    +0.000 A 
ATOM     20  C   UNL     1       7.541   4.865  13.897  0.00  0.00    +0.000 A 
ATOM     21  C   UNL     1       6.615   4.108  13.185  0.00  0.00    +0.000 A 
ATOM     22  C   UNL     1       5.412   3.758  13.792  0.00  0.00    +0.000 A 
ATOM     23  C   UNL     1       5.135   4.188  15.096  0.00  0.00    +0.000 A 
BRANCH  21  24
ATOM     24  O   UNL     1       6.965   3.829  11.895  0.00  0.00    +0.000 OA
ATOM     25  C   UNL     1       6.752   2.490  11.470  0.00  0.00    +0.000 C 
ENDBRANCH  21  24
ENDBRANCH   1  18
BRANCH   5  26
ATOM     26  C   UNL     1       3.271   3.761  19.485  0.00  0.00    +0.000 C 
ATOM     27  C   UNL     1       2.173   2.946  18.796  0.00  0.00    +0.000 C 
ATOM     28  C   UNL     1       1.420   2.100  19.806  0.00  0.00    +0.000 C 
ATOM     29  O   UNL     1       0.922   2.902  20.873  0.00  0.00    +0.000 OA
ATOM     30  C   UNL     1       1.967   3.539  21.607  0.00  0.00    +0.000 C 
ATOM     31  C   UNL     1       2.751   4.495  20.722  0.00  0.00    +0.000 C 
ENDBRANCH   5  26
TORSDOF 5
ENDMDL
MODEL 5
REMARK VINA RESULT:      -7.6      7.445     10.335
REMARK  Name = 
REMARK  7 active torsions:
REMARK  status: ('A' for Active; 'I' for Inactive)
REMARK    1  A    between atoms: C_1  and  O_2
REMARK    2  A    between atoms: O_2  and  C_3
REMARK    3  A    between atoms: C_6  and  C_7
REMARK    4  A    between atoms: C_7  and  C_8
REMARK    5  A    between atoms: C_11  and  O_12
REMARK    6  A    between atoms: O_12  and  C_13
REMARK    7  A    between atoms: N_19  and  C_20
REMARK                            x       y       z     vdW  Elec       q    Type
REMARK                         _______ _______ _______ _____ _____    ______ ____
ROOT
ATOM      1  C   UNL     1       0.770  11.015  19.009  0.00  0.00    +0.000 C 
ATOM      2  N   UNL     1       1.580  11.730  18.016  0.00  0.00    +0.000 N 
ATOM      3  C   UNL     1       2.219  12.787  18.565  0.00  0.00    +0.000 C 
ATOM      4  N   UNL     1       3.101  13.488  17.974  0.00  0.00    +0.000 NA
ATOM      5  N   UNL     1       1.825  12.996  19.835  0.00  0.00    +0.000 N 
ATOM      6  C   UNL     1       1.021  11.957  20.251  0.00  0.00    +0.000 C 
ATOM      7  O   UNL     1       0.611  11.800  21.398  0.00  0.00    +0.000 OA
ATOM      8  H   UNL     1       1.994  11.249  17.241  0.00  0.00    +0.000 HD
ATOM      9  H   UNL     1       3.237  13.150  17.020  0.00  0.00    +0.000 HD
ENDROOT
BRANCH   1  13
ATOM     10  C   UNL     1       2.259   6.955  19.693  0.00  0.00    +0.000 A 
ATOM     11  C   UNL     1       2.466   7.570  18.463  0.00  0.00    +0.000 A 
ATOM     12  C   UNL     1       1.990   8.868  18.230  0.00  0.00    +0.000 A 
ATOM     13  C   UNL     1       1.309   9.590  19.232  0.00  0.00    +0.000 A 
ATOM     14  C   UNL     1       1.085   8.930  20.451  0.00  0.00    +0.000 A 
ATOM     15  C   UNL     1       1.555   7.636  20.680  0.00  0.00    +0.000 A 
BRANCH  10  17
ATOM     16  C   UNL     1       2.044   4.871  20.755  0.00  0.00    +0.000 C 
ATOM     17  O   UNL     1       2.748   5.685  19.822  0.00  0.00    +0.000 OA
ENDBRANCH  10  17
ENDBRANCH   1  13
BRANCH   1  18
ATOM     18  C   UNL     1      -0.697  11.015  18.548  0.00  0.00    +0.000 A 
ATOM     19  C   UNL     1      -1.627  11.946  19.038  0.00  0.00    +0.000 A 
ATOM     20  C   UNL     1      -2.988  11.826  18.743  0.00  0.00    +0.000 A 
ATOM     21  C   UNL     1      -3.457  10.787  17.945  0.00  0.00    +0.000 A 
ATOM     22  C   UNL     1      -2.549   9.879  17.407  0.00  0.00    +0.000 A 
ATOM     23  C   UNL     1      -1.183  10.004  17.692  0.00  0.00    +0.000 A 
BRANCH  21  24
ATOM     24  O   UNL     1      -4.815  10.723  17.816  0.00  0.00    +0.000 OA
ATOM     25  C   UNL     1      -5.446  11.893  17.311  0.00  0.00    +0.000 C 
ENDBRANCH  21  24
ENDBRANCH   1  18
BRANCH   5  26
ATOM     26  C   UNL     1       2.221  14.091  20.719  0.00  0.00    +0.000 C 
ATOM     27  C   UNL     1       1.811  15.449  20.142  0.00  0.00    +0.000 C 
ATOM     28  C   UNL     1       2.311  16.579  21.022  0.00  0.00    +0.000 C 
ATOM     29  O   UNL     1       3.716  16.474  21.239  0.00  0.00    +0.000 OA
ATOM     30  C   UNL     1       4.073  15.271  21.916  0.00  0.00    +0.000 C 
ATOM     31  C   UNL     1       3.705  14.049  21.089  0.00  0.00    +0.000 C 
ENDBRANCH   5  26
TORSDOF 5
ENDMDL
MODEL 6
REMARK VINA RESULT:      -7.6      7.561     10.234
REMARK  Name = 
REMARK  7 active torsions:
REMARK  status: ('A' for Active; 'I' for Inactive)
REMARK    1  A    between atoms: C_1  and  O_2
REMARK    2  A    between atoms: O_2  and  C_3
REMARK    3  A    between atoms: C_6  and  C_7
REMARK    4  A    between atoms: C_7  and  C_8
REMARK    5  A    between atoms: C_11  and  O_12
REMARK    6  A    between atoms: O_12  and  C_13
REMARK    7  A    between atoms: N_19  and  C_20
REMARK                            x       y       z     vdW  Elec       q    Type
REMARK                         _______ _______ _______ _____ _____    ______ ____
ROOT
ATOM      1  C   UNL     1       0.798  11.156  19.013  0.00  0.00    +0.000 C 
ATOM      2  N   UNL     1       1.573  11.804  17.948  0.00  0.00    +0.000 N 
ATOM      3  C   UNL     1       2.268  12.865  18.416  0.00  0.00    +0.000 C 
ATOM      4  N   UNL     1       3.135  13.514  17.749  0.00  0.00    +0.000 NA
ATOM      5  N   UNL     1       1.949  13.139  19.694  0.00  0.00    +0.000 N 
ATOM      6  C   UNL     1       1.141  12.142  20.198  0.00  0.00    +0.000 C 
ATOM      7  O   UNL     1       0.789  12.047  21.370  0.00  0.00    +0.000 OA
ATOM      8  H   UNL     1       1.931  11.278  17.175  0.00  0.00    +0.000 HD
ATOM      9  H   UNL     1       3.211  13.131  16.805  0.00  0.00    +0.000 HD
ENDROOT
BRANCH   1  13
ATOM     10  C   UNL     1       2.209   7.085  19.792  0.00  0.00    +0.000 A 
ATOM     11  C   UNL     1       2.478   7.688  18.568  0.00  0.00    +0.000 A 
ATOM     12  C   UNL     1       2.028   8.990  18.305  0.00  0.00    +0.000 A 
ATOM     13  C   UNL     1       1.311   9.726  19.270  0.00  0.00    +0.000 A 
ATOM     14  C   UNL     1       1.024   9.078  20.482  0.00  0.00    +0.000 A 
ATOM     15  C   UNL     1       1.468   7.781  20.742  0.00  0.00    +0.000 A 
BRANCH  10  17
ATOM     16  C   UNL     1       3.838   5.506  19.185  0.00  0.00    +0.000 C 
ATOM     17  O   UNL     1       2.677   5.810  19.952  0.00  0.00    +0.000 OA
ENDBRANCH  10  17
ENDBRANCH   1  13
BRANCH   1  18
ATOM     18  C   UNL     1      -0.691  11.178  18.631  0.00  0.00    +0.000 A 
ATOM     19  C   UNL     1      -1.591  12.085  19.214  0.00  0.00    +0.000 A 
ATOM     20  C   UNL     1      -2.966  11.980  18.986  0.00  0.00    +0.000 A 
ATOM     21  C   UNL     1      -3.479  10.981  18.163  0.00  0.00    +0.000 A 
ATOM     22  C   UNL     1      -2.603  10.100  17.535  0.00  0.00    +0.000 A 
ATOM     23  C   UNL     1      -1.224  10.210  17.754  0.00  0.00    +0.000 A 
BRANCH  21  24
ATOM     24  O   UNL     1      -4.843  10.924  18.103  0.00  0.00    +0.000 OA
ATOM     25  C   UNL     1      -5.466  11.874  17.250  0.00  0.00    +0.000 C 
ENDBRANCH  21  24
ENDBRANCH   1  18
BRANCH   5  26
ATOM     26  C   UNL     1       2.421  14.258  20.507  0.00  0.00    +0.000 C 
ATOM     27  C   UNL     1       3.585  13.839  21.410  0.00  0.00    +0.000 C 
ATOM     28  C   UNL     1       4.002  14.984  22.313  0.00  0.00    +0.000 C 
ATOM     29  O   UNL     1       2.889  15.487  23.048  0.00  0.00    +0.000 OA
ATOM     30  C   UNL     1       1.873  16.017  22.198  0.00  0.00    +0.000 C 
ATOM     31  C   UNL     1       1.299  14.938  21.294  0.00  0.00    +0.000 C 
ENDBRANCH   5  26
TORSDOF 5
ENDMDL
MODEL 7
REMARK VINA RESULT:      -7.4      6.560      9.360
REMARK  Name = 
REMARK  7 active torsions:
REMARK  status: ('A' for Active; 'I' for Inactive)
REMARK    1  A    between atoms: C_1  and  O_2
REMARK    2  A    between atoms: O_2  and  C_3
REMARK    3  A    between atoms: C_6  and  C_7
REMARK    4  A    between atoms: C_7  and  C_8
REMARK    5  A    between atoms: C_11  and  O_12
REMARK    6  A    between atoms: O_12  and  C_13
REMARK    7  A    between atoms: N_19  and  C_20
REMARK                            x       y       z     vdW  Elec       q    Type
REMARK                         _______ _______ _______ _____ _____    ______ ____
ROOT
ATOM      1  C   UNL     1       0.779  10.289  19.137  0.00  0.00    +0.000 C 
ATOM      2  N   UNL     1       0.690   9.644  20.453  0.00  0.00    +0.000 N 
ATOM      3  C   UNL     1       1.422   8.509  20.499  0.00  0.00    +0.000 C 
ATOM      4  N   UNL     1       1.646   7.833  21.553  0.00  0.00    +0.000 NA
ATOM      5  N   UNL     1       1.912   8.188  19.287  0.00  0.00    +0.000 N 
ATOM      6  C   UNL     1       1.670   9.215  18.399  0.00  0.00    +0.000 C 
ATOM      7  O   UNL     1       2.106   9.270  17.253  0.00  0.00    +0.000 OA
ATOM      8  H   UNL     1       0.558  10.184  21.286  0.00  0.00    +0.000 HD
ATOM      9  H   UNL     1       1.174   8.262  22.351  0.00  0.00    +0.000 HD
ENDROOT
BRANCH   1  13
ATOM     10  C   UNL     1       2.766  14.173  19.507  0.00  0.00    +0.000 A 
ATOM     11  C   UNL     1       2.740  13.523  18.277  0.00  0.00    +0.000 A 
ATOM     12  C   UNL     1       2.110  12.277  18.147  0.00  0.00    +0.000 A 
ATOM     13  C   UNL     1       1.476  11.658  19.244  0.00  0.00    +0.000 A 
ATOM     14  C   UNL     1       1.549  12.322  20.479  0.00  0.00    +0.000 A 
ATOM     15  C   UNL     1       2.180  13.560  20.609  0.00  0.00    +0.000 A 
BRANCH  10  17
ATOM     16  C   UNL     1       2.988  16.305  18.545  0.00  0.00    +0.000 C 
ATOM     17  O   UNL     1       3.413  15.377  19.538  0.00  0.00    +0.000 OA
ENDBRANCH  10  17
ENDBRANCH   1  13
BRANCH   1  18
ATOM     18  C   UNL     1      -0.634  10.402  18.541  0.00  0.00    +0.000 A 
ATOM     19  C   UNL     1      -1.021   9.666  17.409  0.00  0.00    +0.000 A 
ATOM     20  C   UNL     1      -2.245   9.908  16.779  0.00  0.00    +0.000 A 
ATOM     21  C   UNL     1      -3.120  10.875  17.265  0.00  0.00    +0.000 A 
ATOM     22  C   UNL     1      -2.780  11.584  18.414  0.00  0.00    +0.000 A 
ATOM     23  C   UNL     1      -1.559  11.337  19.053  0.00  0.00    +0.000 A 
BRANCH  21  24
ATOM     24  O   UNL     1      -4.234  11.083  16.503  0.00  0.00    +0.000 OA
ATOM     25  C   UNL     1      -5.242  11.898  17.086  0.00  0.00    +0.000 C 
ENDBRANCH  21  24
ENDBRANCH   1  18
BRANCH   5  26
ATOM     26  C   UNL     1       2.670   6.992  18.924  0.00  0.00    +0.000 C 
ATOM     27  C   UNL     1       3.875   7.341  18.045  0.00  0.00    +0.000 C 
ATOM     28  C   UNL     1       4.596   6.083  17.599  0.00  0.00    +0.000 C 
ATOM     29  O   UNL     1       3.697   5.176  16.966  0.00  0.00    +0.000 OA
ATOM     30  C   UNL     1       2.661   4.737  17.843  0.00  0.00    +0.000 C 
ATOM     31  C   UNL     1       1.798   5.903  18.297  0.00  0.00    +0.000 C 
ENDBRANCH   5  26
TORSDOF 5
ENDMDL
MODEL 8
REMARK VINA RESULT:      -7.4      0.845      1.451
REMARK  Name = 
REMARK  7 active torsions:
REMARK  status: ('A' for Active; 'I' for Inactive)
REMARK    1  A    between atoms: C_1  and  O_2
REMARK    2  A    between atoms: O_2  and  C_3
REMARK    3  A    between atoms: C_6  and  C_7
REMARK    4  A    between atoms: C_7  and  C_8
REMARK    5  A    between atoms: C_11  and  O_12
REMARK    6  A    between atoms: O_12  and  C_13
REMARK    7  A    between atoms: N_19  and  C_20
REMARK                            x       y       z     vdW  Elec       q    Type
REMARK                         _______ _______ _______ _____ _____    ______ ____
ROOT
ATOM      1  C   UNL     1       6.028   5.068  17.530  0.00  0.00    +0.000 C 
ATOM      2  N   UNL     1       6.420   3.932  18.372  0.00  0.00    +0.000 N 
ATOM      3  C   UNL     1       5.404   3.529  19.167  0.00  0.00    +0.000 C 
ATOM      4  N   UNL     1       5.416   2.479  19.883  0.00  0.00    +0.000 NA
ATOM      5  N   UNL     1       4.355   4.370  19.089  0.00  0.00    +0.000 N 
ATOM      6  C   UNL     1       4.566   5.288  18.083  0.00  0.00    +0.000 C 
ATOM      7  O   UNL     1       3.736   6.103  17.689  0.00  0.00    +0.000 OA
ATOM      8  H   UNL     1       7.099   3.265  18.058  0.00  0.00    +0.000 HD
ATOM      9  H   UNL     1       6.312   1.999  19.787  0.00  0.00    +0.000 HD
ENDROOT
BRANCH   1  13
ATOM     10  C   UNL     1       6.131   3.960  13.295  0.00  0.00    +0.000 A 
ATOM     11  C   UNL     1       5.024   3.630  14.071  0.00  0.00    +0.000 A 
ATOM     12  C   UNL     1       4.981   3.975  15.428  0.00  0.00    +0.000 A 
ATOM     13  C   UNL     1       6.041   4.676  16.040  0.00  0.00    +0.000 A 
ATOM     14  C   UNL     1       7.159   4.964  15.241  0.00  0.00    +0.000 A 
ATOM     15  C   UNL     1       7.203   4.616  13.890  0.00  0.00    +0.000 A 
BRANCH  10  17
ATOM     16  C   UNL     1       4.808   3.124  11.543  0.00  0.00    +0.000 C 
ATOM     17  O   UNL     1       6.087   3.570  11.985  0.00  0.00    +0.000 OA
ENDBRANCH  10  17
ENDBRANCH   1  13
BRANCH   1  18
ATOM     18  C   UNL     1       6.962   6.253  17.825  0.00  0.00    +0.000 A 
ATOM     19  C   UNL     1       7.896   6.216  18.874  0.00  0.00    +0.000 A 
ATOM     20  C   UNL     1       8.614   7.359  19.238  0.00  0.00    +0.000 A 
ATOM     21  C   UNL     1       8.433   8.562  18.561  0.00  0.00    +0.000 A 
ATOM     22  C   UNL     1       7.549   8.611  17.487  0.00  0.00    +0.000 A 
ATOM     23  C   UNL     1       6.836   7.465  17.113  0.00  0.00    +0.000 A 
BRANCH  21  24
ATOM     24  O   UNL     1       9.117   9.625  19.077  0.00  0.00    +0.000 OA
ATOM     25  C   UNL     1       9.149  10.794  18.270  0.00  0.00    +0.000 C 
ENDBRANCH  21  24
ENDBRANCH   1  18
BRANCH   5  26
ATOM     26  C   UNL     1       3.117   4.318  19.864  0.00  0.00    +0.000 C 
ATOM     27  C   UNL     1       2.075   3.419  19.190  0.00  0.00    +0.000 C 
ATOM     28  C   UNL     1       0.765   3.450  19.954  0.00  0.00    +0.000 C 
ATOM     29  O   UNL     1       0.307   4.787  20.130  0.00  0.00    +0.000 OA
ATOM     30  C   UNL     1       1.217   5.578  20.893  0.00  0.00    +0.000 C 
ATOM     31  C   UNL     1       2.557   5.704  20.185  0.00  0.00    +0.000 C 
ENDBRANCH   5  26
TORSDOF 5
ENDMDL
MODEL 9
REMARK VINA RESULT:      -7.3      7.656      9.992
REMARK  Name = 
REMARK  7 active torsions:
REMARK  status: ('A' for Active; 'I' for Inactive)
REMARK    1  A    between atoms: C_1  and  O_2
REMARK    2  A    between atoms: O_2  and  C_3
REMARK    3  A    between atoms: C_6  and  C_7
REMARK    4  A    between atoms: C_7  and  C_8
REMARK    5  A    between atoms: C_11  and  O_12
REMARK    6  A    between atoms: O_12  and  C_13
REMARK    7  A    between atoms: N_19  and  C_20
REMARK                            x       y       z     vdW  Elec       q    Type
REMARK                         _______ _______ _______ _____ _____    ______ ____
ROOT
ATOM      1  C   UNL     1       0.092  10.788  19.548  0.00  0.00    +0.000 C 
ATOM      2  N   UNL     1      -0.401  10.739  20.930  0.00  0.00    +0.000 N 
ATOM      3  C   UNL     1      -0.115  11.878  21.599  0.00  0.00    +0.000 C 
ATOM      4  N   UNL     1      -0.553  12.168  22.758  0.00  0.00    +0.000 NA
ATOM      5  N   UNL     1       0.677  12.690  20.875  0.00  0.00    +0.000 N 
ATOM      6  C   UNL     1       0.809  12.194  19.595  0.00  0.00    +0.000 C 
ATOM      7  O   UNL     1       1.366  12.777  18.669  0.00  0.00    +0.000 OA
ATOM      8  H   UNL     1      -1.221  10.216  21.169  0.00  0.00    +0.000 HD
ATOM      9  H   UNL     1      -1.131  11.405  23.115  0.00  0.00    +0.000 HD
ENDROOT
BRANCH   1  13
ATOM     10  C   UNL     1      -3.249  10.765  16.717  0.00  0.00    +0.000 A 
ATOM     11  C   UNL     1      -2.238   9.815  16.604  0.00  0.00    +0.000 A 
ATOM     12  C   UNL     1      -1.161   9.815  17.502  0.00  0.00    +0.000 A 
ATOM     13  C   UNL     1      -1.079  10.757  18.547  0.00  0.00    +0.000 A 
ATOM     14  C   UNL     1      -2.094  11.724  18.615  0.00  0.00    +0.000 A 
ATOM     15  C   UNL     1      -3.164  11.727  17.718  0.00  0.00    +0.000 A 
BRANCH  10  17
ATOM     16  C   UNL     1      -3.839  10.220  14.510  0.00  0.00    +0.000 C 
ATOM     17  O   UNL     1      -4.250  10.693  15.789  0.00  0.00    +0.000 OA
ENDBRANCH  10  17
ENDBRANCH   1  13
BRANCH   1  18
ATOM     18  C   UNL     1       1.074   9.625  19.328  0.00  0.00    +0.000 A 
ATOM     19  C   UNL     1       1.752   9.450  18.110  0.00  0.00    +0.000 A 
ATOM     20  C   UNL     1       2.505   8.298  17.866  0.00  0.00    +0.000 A 
ATOM     21  C   UNL     1       2.614   7.299  18.829  0.00  0.00    +0.000 A 
ATOM     22  C   UNL     1       1.990   7.471  20.062  0.00  0.00    +0.000 A 
ATOM     23  C   UNL     1       1.244   8.630  20.313  0.00  0.00    +0.000 A 
BRANCH  21  24
ATOM     24  O   UNL     1       3.292   6.182  18.431  0.00  0.00    +0.000 OA
ATOM     25  C   UNL     1       3.815   5.369  19.472  0.00  0.00    +0.000 C 
ENDBRANCH  21  24
ENDBRANCH   1  18
BRANCH   5  26
ATOM     26  C   UNL     1       1.268  13.960  21.294  0.00  0.00    +0.000 C 
ATOM     27  C   UNL     1       0.584  15.146  20.607  0.00  0.00    +0.000 C 
ATOM     28  C   UNL     1       1.268  16.448  20.979  0.00  0.00    +0.000 C 
ATOM     29  O   UNL     1       2.665  16.386  20.709  0.00  0.00    +0.000 OA
ATOM     30  C   UNL     1       3.322  15.375  21.471  0.00  0.00    +0.000 C 
ATOM     31  C   UNL     1       2.787  13.995  21.123  0.00  0.00    +0.000 C 
ENDBRANCH   5  26
TORSDOF 5
ENDMDL
