MODEL 1
REMARK VINA RESULT:      -5.9      0.000      0.000
REMARK  Name = 
REMARK  0 active torsions:
REMARK  status: ('A' for Active; 'I' for Inactive)
REMARK                            x       y       z     vdW  Elec       q    Type
REMARK                         _______ _______ _______ _____ _____    ______ ____
ROOT
ATOM      1  O   UNL     1       7.375   4.612  15.782  0.00  0.00    +0.000 OA
ATOM      2  C   UNL     1       7.063   4.804  16.951  0.00  0.00    +0.000 A 
ATOM      3  N   UNL     1       7.941   5.321  17.868  0.00  0.00    +0.000 N 
ATOM      4  C   UNL     1       7.599   5.562  19.167  0.00  0.00    +0.000 A 
ATOM      5  N   UNL     1       6.434   5.327  19.666  0.00  0.00    +0.000 NA
ATOM      6  C   UNL     1       5.459   4.783  18.812  0.00  0.00    +0.000 A 
ATOM      7  C   UNL     1       4.188   4.516  19.322  0.00  0.00    +0.000 A 
ATOM      8  C   UNL     1       3.210   3.969  18.496  0.00  0.00    +0.000 A 
ATOM      9  F   UNL     1       1.993   3.718  18.996  0.00  0.00    +0.000 F 
ATOM     10  C   UNL     1       3.472   3.675  17.160  0.00  0.00    +0.000 A 
ATOM     11  C   UNL     1       4.735   3.941  16.635  0.00  0.00    +0.000 A 
ATOM     12  C   UNL     1       5.716   4.496  17.464  0.00  0.00    +0.000 A 
ATOM     13  H   UNL     1       8.868   5.535  17.529  0.00  0.00    +0.000 HD
ENDROOT
TORSDOF 0
ENDMDL
MODEL 2
REMARK VINA RESULT:      -5.9      2.109      2.591
REMARK  Name = 
REMARK  0 active torsions:
REMARK  status: ('A' for Active; 'I' for Inactive)
REMARK                            x       y       z     vdW  Elec       q    Type
REMARK                         _______ _______ _______ _____ _____    ______ ____
ROOT
ATOM      1  O   UNL     1       6.717   7.525  17.016  0.00  0.00    +0.000 OA
ATOM      2  C   UNL     1       6.412   6.391  16.666  0.00  0.00    +0.000 A 
ATOM      3  N   UNL     1       7.248   5.610  15.910  0.00  0.00    +0.000 N 
ATOM      4  C   UNL     1       6.932   4.336  15.533  0.00  0.00    +0.000 A 
ATOM      5  N   UNL     1       5.830   3.742  15.839  0.00  0.00    +0.000 NA
ATOM      6  C   UNL     1       4.895   4.459  16.605  0.00  0.00    +0.000 A 
ATOM      7  C   UNL     1       3.692   3.844  16.951  0.00  0.00    +0.000 A 
ATOM      8  C   UNL     1       2.748   4.540  17.701  0.00  0.00    +0.000 A 
ATOM      9  F   UNL     1       1.597   3.939  18.029  0.00  0.00    +0.000 F 
ATOM     10  C   UNL     1       2.975   5.849  18.117  0.00  0.00    +0.000 A 
ATOM     11  C   UNL     1       4.175   6.475  17.784  0.00  0.00    +0.000 A 
ATOM     12  C   UNL     1       5.125   5.774  17.034  0.00  0.00    +0.000 A 
ATOM     13  H   UNL     1       8.132   6.022  15.650  0.00  0.00    +0.000 HD
ENDROOT
TORSDOF 0
ENDMDL
MODEL 3
REMARK VINA RESULT:      -5.9      1.638      2.480
REMARK  Name = 
REMARK  0 active torsions:
REMARK  status: ('A' for Active; 'I' for Inactive)
REMARK                            x       y       z     vdW  Elec       q    Type
REMARK                         _______ _______ _______ _____ _____    ______ ____
ROOT
ATOM      1  O   UNL     1       8.047   5.019  18.891  0.00  0.00    +0.000 OA
ATOM      2  C   UNL     1       7.287   4.794  17.955  0.00  0.00    +0.000 A 
ATOM      3  N   UNL     1       7.745   4.492  16.698  0.00  0.00    +0.000 N 
ATOM      4  C   UNL     1       6.911   4.217  15.653  0.00  0.00    +0.000 A 
ATOM      5  N   UNL     1       5.624   4.217  15.733  0.00  0.00    +0.000 NA
ATOM      6  C   UNL     1       5.050   4.525  16.978  0.00  0.00    +0.000 A 
ATOM      7  C   UNL     1       3.660   4.534  17.096  0.00  0.00    +0.000 A 
ATOM      8  C   UNL     1       3.069   4.847  18.317  0.00  0.00    +0.000 A 
ATOM      9  F   UNL     1       1.734   4.851  18.420  0.00  0.00    +0.000 F 
ATOM     10  C   UNL     1       3.839   5.157  19.436  0.00  0.00    +0.000 A 
ATOM     11  C   UNL     1       5.229   5.147  19.334  0.00  0.00    +0.000 A 
ATOM     12  C   UNL     1       5.822   4.828  18.108  0.00  0.00    +0.000 A 
ATOM     13  H   UNL     1       8.747   4.468  16.581  0.00  0.00    +0.000 HD
ENDROOT
TORSDOF 0
ENDMDL
MODEL 4
REMARK VINA RESULT:      -5.9      1.992      2.533
REMARK  Name = 
REMARK  0 active torsions:
REMARK  status: ('A' for Active; 'I' for Inactive)
REMARK                            x       y       z     vdW  Elec       q    Type
REMARK                         _______ _______ _______ _____ _____    ______ ____
ROOT
ATOM      1  O   UNL     1       7.711   5.325  20.298  0.00  0.00    +0.000 OA
ATOM      2  C   UNL     1       7.300   5.735  19.219  0.00  0.00    +0.000 A 
ATOM      3  N   UNL     1       7.911   6.761  18.545  0.00  0.00    +0.000 N 
ATOM      4  C   UNL     1       7.477   7.211  17.331  0.00  0.00    +0.000 A 
ATOM      5  N   UNL     1       6.461   6.732  16.701  0.00  0.00    +0.000 NA
ATOM      6  C   UNL     1       5.754   5.682  17.310  0.00  0.00    +0.000 A 
ATOM      7  C   UNL     1       4.647   5.142  16.654  0.00  0.00    +0.000 A 
ATOM      8  C   UNL     1       3.926   4.108  17.244  0.00  0.00    +0.000 A 
ATOM      9  F   UNL     1       2.867   3.596  16.604  0.00  0.00    +0.000 F 
ATOM     10  C   UNL     1       4.284   3.593  18.488  0.00  0.00    +0.000 A 
ATOM     11  C   UNL     1       5.390   4.118  19.154  0.00  0.00    +0.000 A 
ATOM     12  C   UNL     1       6.117   5.155  18.557  0.00  0.00    +0.000 A 
ATOM     13  H   UNL     1       8.722   7.168  18.988  0.00  0.00    +0.000 HD
ENDROOT
TORSDOF 0
ENDMDL
MODEL 5
REMARK VINA RESULT:      -5.8      3.672      4.869
REMARK  Name = 
REMARK  0 active torsions:
REMARK  status: ('A' for Active; 'I' for Inactive)
REMARK                            x       y       z     vdW  Elec       q    Type
REMARK                         _______ _______ _______ _____ _____    ______ ____
ROOT
ATOM      1  O   UNL     1       0.267   2.132  18.386  0.00  0.00    +0.000 OA
ATOM      2  C   UNL     1       1.002   2.770  19.131  0.00  0.00    +0.000 A 
ATOM      3  N   UNL     1       0.711   2.962  20.457  0.00  0.00    +0.000 N 
ATOM      4  C   UNL     1       1.532   3.649  21.304  0.00  0.00    +0.000 A 
ATOM      5  N   UNL     1       2.650   4.187  20.953  0.00  0.00    +0.000 NA
ATOM      6  C   UNL     1       3.039   4.058  19.608  0.00  0.00    +0.000 A 
ATOM      7  C   UNL     1       4.243   4.630  19.196  0.00  0.00    +0.000 A 
ATOM      8  C   UNL     1       4.642   4.523  17.867  0.00  0.00    +0.000 A 
ATOM      9  F   UNL     1       5.801   5.074  17.483  0.00  0.00    +0.000 F 
ATOM     10  C   UNL     1       3.862   3.854  16.927  0.00  0.00    +0.000 A 
ATOM     11  C   UNL     1       2.660   3.273  17.325  0.00  0.00    +0.000 A 
ATOM     12  C   UNL     1       2.261   3.377  18.662  0.00  0.00    +0.000 A 
ATOM     13  H   UNL     1      -0.149   2.552  20.791  0.00  0.00    +0.000 HD
ENDROOT
TORSDOF 0
ENDMDL
MODEL 6
REMARK VINA RESULT:      -5.8      4.393      5.332
REMARK  Name = 
REMARK  0 active torsions:
REMARK  status: ('A' for Active; 'I' for Inactive)
REMARK                            x       y       z     vdW  Elec       q    Type
REMARK                         _______ _______ _______ _____ _____    ______ ____
ROOT
ATOM      1  O   UNL     1       1.119   2.609  21.208  0.00  0.00    +0.000 OA
ATOM      2  C   UNL     1       1.567   2.861  20.095  0.00  0.00    +0.000 A 
ATOM      3  N   UNL     1       1.770   1.887  19.151  0.00  0.00    +0.000 N 
ATOM      4  C   UNL     1       2.246   2.157  17.901  0.00  0.00    +0.000 A 
ATOM      5  N   UNL     1       2.555   3.335  17.480  0.00  0.00    +0.000 NA
ATOM      6  C   UNL     1       2.395   4.407  18.375  0.00  0.00    +0.000 A 
ATOM      7  C   UNL     1       2.722   5.695  17.951  0.00  0.00    +0.000 A 
ATOM      8  C   UNL     1       2.580   6.770  18.825  0.00  0.00    +0.000 A 
ATOM      9  F   UNL     1       2.895   8.003  18.406  0.00  0.00    +0.000 F 
ATOM     10  C   UNL     1       2.117   6.590  20.125  0.00  0.00    +0.000 A 
ATOM     11  C   UNL     1       1.781   5.310  20.562  0.00  0.00    +0.000 A 
ATOM     12  C   UNL     1       1.919   4.231  19.682  0.00  0.00    +0.000 A 
ATOM     13  H   UNL     1       1.534   0.944  19.423  0.00  0.00    +0.000 HD
ENDROOT
TORSDOF 0
ENDMDL
MODEL 7
REMARK VINA RESULT:      -5.7      2.259      2.966
REMARK  Name = 
REMARK  0 active torsions:
REMARK  status: ('A' for Active; 'I' for Inactive)
REMARK                            x       y       z     vdW  Elec       q    Type
REMARK                         _______ _______ _______ _____ _____    ______ ____
ROOT
ATOM      1  O   UNL     1       6.231   4.137  18.785  0.00  0.00    +0.000 OA
ATOM      2  C   UNL     1       5.171   4.686  18.504  0.00  0.00    +0.000 A 
ATOM      3  N   UNL     1       5.106   6.004  18.133  0.00  0.00    +0.000 N 
ATOM      4  C   UNL     1       3.937   6.621  17.796  0.00  0.00    +0.000 A 
ATOM      5  N   UNL     1       2.785   6.042  17.794  0.00  0.00    +0.000 NA
ATOM      6  C   UNL     1       2.738   4.689  18.170  0.00  0.00    +0.000 A 
ATOM      7  C   UNL     1       1.506   4.033  18.180  0.00  0.00    +0.000 A 
ATOM      8  C   UNL     1       1.435   2.696  18.559  0.00  0.00    +0.000 A 
ATOM      9  F   UNL     1       0.247   2.076  18.562  0.00  0.00    +0.000 F 
ATOM     10  C   UNL     1       2.574   1.988  18.935  0.00  0.00    +0.000 A 
ATOM     11  C   UNL     1       3.812   2.627  18.926  0.00  0.00    +0.000 A 
ATOM     12  C   UNL     1       3.883   3.970  18.540  0.00  0.00    +0.000 A 
ATOM     13  H   UNL     1       5.982   6.505  18.107  0.00  0.00    +0.000 HD
ENDROOT
TORSDOF 0
ENDMDL
MODEL 8
REMARK VINA RESULT:      -5.7      3.646      4.520
REMARK  Name = 
REMARK  0 active torsions:
REMARK  status: ('A' for Active; 'I' for Inactive)
REMARK                            x       y       z     vdW  Elec       q    Type
REMARK                         _______ _______ _______ _____ _____    ______ ____
ROOT
ATOM      1  O   UNL     1       3.895   1.056  18.096  0.00  0.00    +0.000 OA
ATOM      2  C   UNL     1       3.067   1.931  18.321  0.00  0.00    +0.000 A 
ATOM      3  N   UNL     1       1.838   1.653  18.863  0.00  0.00    +0.000 N 
ATOM      4  C   UNL     1       0.916   2.620  19.141  0.00  0.00    +0.000 A 
ATOM      5  N   UNL     1       1.095   3.878  18.923  0.00  0.00    +0.000 NA
ATOM      6  C   UNL     1       2.320   4.271  18.357  0.00  0.00    +0.000 A 
ATOM      7  C   UNL     1       2.545   5.625  18.108  0.00  0.00    +0.000 A 
ATOM      8  C   UNL     1       3.747   6.036  17.539  0.00  0.00    +0.000 A 
ATOM      9  F   UNL     1       3.952   7.339  17.306  0.00  0.00    +0.000 F 
ATOM     10  C   UNL     1       4.741   5.120  17.207  0.00  0.00    +0.000 A 
ATOM     11  C   UNL     1       4.534   3.764  17.455  0.00  0.00    +0.000 A 
ATOM     12  C   UNL     1       3.327   3.352  18.031  0.00  0.00    +0.000 A 
ATOM     13  H   UNL     1       1.647   0.682  19.065  0.00  0.00    +0.000 HD
ENDROOT
TORSDOF 0
ENDMDL
MODEL 9
REMARK VINA RESULT:      -5.7      1.541      1.965
REMARK  Name = 
REMARK  0 active torsions:
REMARK  status: ('A' for Active; 'I' for Inactive)
REMARK                            x       y       z     vdW  Elec       q    Type
REMARK                         _______ _______ _______ _____ _____    ______ ____
ROOT
ATOM      1  O   UNL     1       4.929   4.022  15.819  0.00  0.00    +0.000 OA
ATOM      2  C   UNL     1       4.958   4.375  16.992  0.00  0.00    +0.000 A 
ATOM      3  N   UNL     1       6.096   4.863  17.582  0.00  0.00    +0.000 N 
ATOM      4  C   UNL     1       6.136   5.282  18.880  0.00  0.00    +0.000 A 
ATOM      5  N   UNL     1       5.126   5.261  19.680  0.00  0.00    +0.000 NA
ATOM      6  C   UNL     1       3.909   4.767  19.179  0.00  0.00    +0.000 A 
ATOM      7  C   UNL     1       2.797   4.730  20.021  0.00  0.00    +0.000 A 
ATOM      8  C   UNL     1       1.585   4.235  19.547  0.00  0.00    +0.000 A 
ATOM      9  F   UNL     1       0.524   4.206  20.364  0.00  0.00    +0.000 F 
ATOM     10  C   UNL     1       1.453   3.770  18.241  0.00  0.00    +0.000 A 
ATOM     11  C   UNL     1       2.553   3.806  17.387  0.00  0.00    +0.000 A 
ATOM     12  C   UNL     1       3.770   4.308  17.862  0.00  0.00    +0.000 A 
ATOM     13  H   UNL     1       6.917   4.913  16.996  0.00  0.00    +0.000 HD
ENDROOT
TORSDOF 0
ENDMDL
