MODEL 1
REMARK VINA RESULT:      -8.4      0.000      0.000
REMARK  Name = 
REMARK  6 active torsions:
REMARK  status: ('A' for Active; 'I' for Inactive)
REMARK    1  A    between atoms: C_1  and  O_2
REMARK    2  A    between atoms: O_2  and  C_3
REMARK    3  A    between atoms: C_7  and  C_8
REMARK    4  A    between atoms: C_8  and  N_9
REMARK    5  A    between atoms: N_12  and  C_13
REMARK    6  A    between atoms: N_22  and  C_23
REMARK                            x       y       z     vdW  Elec       q    Type
REMARK                         _______ _______ _______ _____ _____    ______ ____
ROOT
ATOM      1  C   UNL     1       0.505  10.665  19.156  0.00  0.00    +0.000 C 
ATOM      2  C   UNL     1       1.334  11.935  19.357  0.00  0.00    +0.000 C 
ATOM      3  C   UNL     1       1.160  12.234  20.842  0.00  0.00    +0.000 C 
ATOM      4  N   UNL     1      -0.201  11.795  21.138  0.00  0.00    +0.000 N 
ATOM      5  C   UNL     1      -1.078  12.530  21.908  0.00  0.00    +0.000 A 
ATOM      6  C   UNL     1      -0.641  13.401  22.883  0.00  0.00    +0.000 A 
ATOM      7  C   UNL     1      -1.603  14.046  23.626  0.00  0.00    +0.000 A 
ATOM      8  N   UNL     1      -2.920  13.872  23.451  0.00  0.00    +0.000 NA
ATOM      9  C   UNL     1      -3.277  13.033  22.467  0.00  0.00    +0.000 A 
ATOM     10  N   UNL     1      -4.646  12.886  22.262  0.00  0.00    +0.000 N 
ATOM     11  N   UNL     1      -2.396  12.354  21.714  0.00  0.00    +0.000 NA
ATOM     12  C   UNL     1      -0.725  10.960  20.049  0.00  0.00    +0.000 C 
ATOM     13  H   UNL     1      -5.154  13.383  22.979  0.00  0.00    +0.000 HD
ENDROOT
BRANCH  10  14
ATOM     14  C   UNL     1      -5.356  12.590  21.089  0.00  0.00    +0.000 A 
ATOM     15  C   UNL     1      -4.836  12.819  19.806  0.00  0.00    +0.000 A 
ATOM     16  C   UNL     1      -5.540  12.450  18.661  0.00  0.00    +0.000 A 
ATOM     17  C   UNL     1      -6.773  11.834  18.790  0.00  0.00    +0.000 A 
ATOM     18  F   UNL     1      -7.448  11.470  17.691  0.00  0.00    +0.000 F 
ATOM     19  C   UNL     1      -7.315  11.587  20.044  0.00  0.00    +0.000 A 
ATOM     20  C   UNL     1      -6.606  11.960  21.189  0.00  0.00    +0.000 A 
ENDBRANCH  10  14
BRANCH   1  24
ATOM     21  N   UNL     1       2.335   7.519  19.084  0.00  0.00    +0.000 N 
ATOM     22  C   UNL     1       1.887   8.715  18.591  0.00  0.00    +0.000 C 
ATOM     23  O   UNL     1       2.040   9.078  17.433  0.00  0.00    +0.000 OA
ATOM     24  N   UNL     1       1.236   9.455  19.547  0.00  0.00    +0.000 N 
ATOM     25  H   UNL     1       2.485   7.466  20.080  0.00  0.00    +0.000 HD
ATOM     26  H   UNL     1       0.847   8.918  20.307  0.00  0.00    +0.000 HD
BRANCH  21  27
ATOM     27  C   UNL     1       3.167   6.674  18.254  0.00  0.00    +0.000 C 
BRANCH  27  32
ATOM     28  C   UNL     1       1.658   3.357  19.386  0.00  0.00    +0.000 A 
ATOM     29  C   UNL     1       2.008   2.528  18.318  0.00  0.00    +0.000 A 
ATOM     30  C   UNL     1       2.698   3.041  17.220  0.00  0.00    +0.000 A 
ATOM     31  C   UNL     1       3.046   4.390  17.185  0.00  0.00    +0.000 A 
ATOM     32  C   UNL     1       2.707   5.239  18.249  0.00  0.00    +0.000 A 
ATOM     33  C   UNL     1       2.007   4.710  19.347  0.00  0.00    +0.000 A 
BRANCH  28  35
ATOM     34  C   UNL     1       1.486   2.956  21.723  0.00  0.00    +0.000 C 
ATOM     35  O   UNL     1       0.998   2.728  20.407  0.00  0.00    +0.000 OA
ENDBRANCH  28  35
ENDBRANCH  27  32
ENDBRANCH  21  27
ENDBRANCH   1  24
TORSDOF 5
ENDMDL
MODEL 2
REMARK VINA RESULT:      -8.4      1.058      1.193
REMARK  Name = 
REMARK  6 active torsions:
REMARK  status: ('A' for Active; 'I' for Inactive)
REMARK    1  A    between atoms: C_1  and  O_2
REMARK    2  A    between atoms: O_2  and  C_3
REMARK    3  A    between atoms: C_7  and  C_8
REMARK    4  A    between atoms: C_8  and  N_9
REMARK    5  A    between atoms: N_12  and  C_13
REMARK    6  A    between atoms: N_22  and  C_23
REMARK                            x       y       z     vdW  Elec       q    Type
REMARK                         _______ _______ _______ _____ _____    ______ ____
ROOT
ATOM      1  C   UNL     1       0.176  11.075  19.028  0.00  0.00    +0.000 C 
ATOM      2  C   UNL     1       0.982  12.263  19.555  0.00  0.00    +0.000 C 
ATOM      3  C   UNL     1       0.670  12.262  21.048  0.00  0.00    +0.000 C 
ATOM      4  N   UNL     1      -0.712  11.798  21.124  0.00  0.00    +0.000 N 
ATOM      5  C   UNL     1      -1.657  12.380  21.943  0.00  0.00    +0.000 A 
ATOM      6  C   UNL     1      -1.313  13.030  23.108  0.00  0.00    +0.000 A 
ATOM      7  C   UNL     1      -2.340  13.531  23.875  0.00  0.00    +0.000 A 
ATOM      8  N   UNL     1      -3.635  13.419  23.549  0.00  0.00    +0.000 NA
ATOM      9  C   UNL     1      -3.899  12.800  22.388  0.00  0.00    +0.000 A 
ATOM     10  N   UNL     1      -5.243  12.722  22.033  0.00  0.00    +0.000 N 
ATOM     11  N   UNL     1      -2.951  12.270  21.598  0.00  0.00    +0.000 NA
ATOM     12  C   UNL     1      -1.132  11.207  19.846  0.00  0.00    +0.000 C 
ATOM     13  H   UNL     1      -5.815  13.076  22.786  0.00  0.00    +0.000 HD
ENDROOT
BRANCH  10  14
ATOM     14  C   UNL     1      -5.840  12.680  20.765  0.00  0.00    +0.000 A 
ATOM     15  C   UNL     1      -5.824  13.768  19.880  0.00  0.00    +0.000 A 
ATOM     16  C   UNL     1      -6.368  13.671  18.599  0.00  0.00    +0.000 A 
ATOM     17  C   UNL     1      -6.925  12.472  18.187  0.00  0.00    +0.000 A 
ATOM     18  F   UNL     1      -7.440  12.373  16.954  0.00  0.00    +0.000 F 
ATOM     19  C   UNL     1      -6.953  11.374  19.035  0.00  0.00    +0.000 A 
ATOM     20  C   UNL     1      -6.408  11.476  20.318  0.00  0.00    +0.000 A 
ENDBRANCH  10  14
BRANCH   1  24
ATOM     21  N   UNL     1       2.246   8.115  18.568  0.00  0.00    +0.000 N 
ATOM     22  C   UNL     1       1.854   9.410  18.360  0.00  0.00    +0.000 C 
ATOM     23  O   UNL     1       2.322  10.135  17.493  0.00  0.00    +0.000 OA
ATOM     24  N   UNL     1       0.868   9.798  19.233  0.00  0.00    +0.000 N 
ATOM     25  H   UNL     1       2.084   7.735  19.488  0.00  0.00    +0.000 HD
ATOM     26  H   UNL     1       0.319   9.042  19.614  0.00  0.00    +0.000 HD
BRANCH  21  27
ATOM     27  C   UNL     1       3.375   7.586  17.833  0.00  0.00    +0.000 C 
BRANCH  27  32
ATOM     28  C   UNL     1       2.004   4.026  17.787  0.00  0.00    +0.000 A 
ATOM     29  C   UNL     1       3.099   3.326  17.275  0.00  0.00    +0.000 A 
ATOM     30  C   UNL     1       4.264   4.002  16.913  0.00  0.00    +0.000 A 
ATOM     31  C   UNL     1       4.342   5.384  17.065  0.00  0.00    +0.000 A 
ATOM     32  C   UNL     1       3.255   6.106  17.580  0.00  0.00    +0.000 A 
ATOM     33  C   UNL     1       2.085   5.413  17.935  0.00  0.00    +0.000 A 
BRANCH  28  35
ATOM     34  C   UNL     1       1.017   2.515  19.334  0.00  0.00    +0.000 C 
ATOM     35  O   UNL     1       0.929   3.245  18.117  0.00  0.00    +0.000 OA
ENDBRANCH  28  35
ENDBRANCH  27  32
ENDBRANCH  21  27
ENDBRANCH   1  24
TORSDOF 5
ENDMDL
MODEL 3
REMARK VINA RESULT:      -8.4      0.809      1.098
REMARK  Name = 
REMARK  6 active torsions:
REMARK  status: ('A' for Active; 'I' for Inactive)
REMARK    1  A    between atoms: C_1  and  O_2
REMARK    2  A    between atoms: O_2  and  C_3
REMARK    3  A    between atoms: C_7  and  C_8
REMARK    4  A    between atoms: C_8  and  N_9
REMARK    5  A    between atoms: N_12  and  C_13
REMARK    6  A    between atoms: N_22  and  C_23
REMARK                            x       y       z     vdW  Elec       q    Type
REMARK                         _______ _______ _______ _____ _____    ______ ____
ROOT
ATOM      1  C   UNL     1       0.329  10.881  19.165  0.00  0.00    +0.000 C 
ATOM      2  C   UNL     1       1.126  12.122  19.570  0.00  0.00    +0.000 C 
ATOM      3  C   UNL     1       0.835  12.252  21.061  0.00  0.00    +0.000 C 
ATOM      4  N   UNL     1      -0.540  11.780  21.200  0.00  0.00    +0.000 N 
ATOM      5  C   UNL     1      -1.481  12.423  21.976  0.00  0.00    +0.000 A 
ATOM      6  C   UNL     1      -1.130  13.180  23.073  0.00  0.00    +0.000 A 
ATOM      7  C   UNL     1      -2.153  13.736  23.807  0.00  0.00    +0.000 A 
ATOM      8  N   UNL     1      -3.450  13.580  23.511  0.00  0.00    +0.000 NA
ATOM      9  C   UNL     1      -3.722  12.855  22.415  0.00  0.00    +0.000 A 
ATOM     10  N   UNL     1      -5.069  12.730  22.089  0.00  0.00    +0.000 N 
ATOM     11  N   UNL     1      -2.778  12.267  21.662  0.00  0.00    +0.000 NA
ATOM     12  C   UNL     1      -0.969  11.072  19.987  0.00  0.00    +0.000 C 
ATOM     13  H   UNL     1      -5.636  13.143  22.816  0.00  0.00    +0.000 HD
ENDROOT
BRANCH  10  14
ATOM     14  C   UNL     1      -5.683  12.566  20.839  0.00  0.00    +0.000 A 
ATOM     15  C   UNL     1      -6.499  11.467  20.531  0.00  0.00    +0.000 A 
ATOM     16  C   UNL     1      -7.150  11.369  19.301  0.00  0.00    +0.000 A 
ATOM     17  C   UNL     1      -6.999  12.381  18.369  0.00  0.00    +0.000 A 
ATOM     18  F   UNL     1      -7.631  12.294  17.191  0.00  0.00    +0.000 F 
ATOM     19  C   UNL     1      -6.203  13.485  18.643  0.00  0.00    +0.000 A 
ATOM     20  C   UNL     1      -5.552  13.579  19.877  0.00  0.00    +0.000 A 
ENDBRANCH  10  14
BRANCH   1  24
ATOM     21  N   UNL     1       2.182   7.760  18.884  0.00  0.00    +0.000 N 
ATOM     22  C   UNL     1       1.760   9.002  18.492  0.00  0.00    +0.000 C 
ATOM     23  O   UNL     1       1.989   9.486  17.392  0.00  0.00    +0.000 OA
ATOM     24  N   UNL     1       1.040   9.636  19.474  0.00  0.00    +0.000 N 
ATOM     25  H   UNL     1       2.265   7.602  19.876  0.00  0.00    +0.000 HD
ATOM     26  H   UNL     1       0.604   9.021  20.144  0.00  0.00    +0.000 HD
BRANCH  21  27
ATOM     27  C   UNL     1       3.074   7.008  18.028  0.00  0.00    +0.000 C 
BRANCH  27  32
ATOM     28  C   UNL     1       2.956   3.785  20.066  0.00  0.00    +0.000 A 
ATOM     29  C   UNL     1       3.402   2.857  19.121  0.00  0.00    +0.000 A 
ATOM     30  C   UNL     1       3.707   3.261  17.822  0.00  0.00    +0.000 A 
ATOM     31  C   UNL     1       3.572   4.599  17.459  0.00  0.00    +0.000 A 
ATOM     32  C   UNL     1       3.129   5.548  18.393  0.00  0.00    +0.000 A 
ATOM     33  C   UNL     1       2.819   5.126  19.698  0.00  0.00    +0.000 A 
BRANCH  28  35
ATOM     34  C   UNL     1       1.437   2.652  21.501  0.00  0.00    +0.000 C 
ATOM     35  O   UNL     1       2.706   3.264  21.306  0.00  0.00    +0.000 OA
ENDBRANCH  28  35
ENDBRANCH  27  32
ENDBRANCH  21  27
ENDBRANCH   1  24
TORSDOF 5
ENDMDL
MODEL 4
REMARK VINA RESULT:      -8.2      1.799      2.279
REMARK  Name = 
REMARK  6 active torsions:
REMARK  status: ('A' for Active; 'I' for Inactive)
REMARK    1  A    between atoms: C_1  and  O_2
REMARK    2  A    between atoms: O_2  and  C_3
REMARK    3  A    between atoms: C_7  and  C_8
REMARK    4  A    between atoms: C_8  and  N_9
REMARK    5  A    between atoms: N_12  and  C_13
REMARK    6  A    between atoms: N_22  and  C_23
REMARK                            x       y       z     vdW  Elec       q    Type
REMARK                         _______ _______ _______ _____ _____    ______ ____
ROOT
ATOM      1  C   UNL     1      -0.004  11.323  18.971  0.00  0.00    +0.000 C 
ATOM      2  C   UNL     1       0.771  12.441  19.669  0.00  0.00    +0.000 C 
ATOM      3  C   UNL     1       0.331  12.317  21.124  0.00  0.00    +0.000 C 
ATOM      4  N   UNL     1      -1.060  11.879  21.040  0.00  0.00    +0.000 N 
ATOM      5  C   UNL     1      -2.063  12.409  21.825  0.00  0.00    +0.000 A 
ATOM      6  C   UNL     1      -1.811  12.946  23.069  0.00  0.00    +0.000 A 
ATOM      7  C   UNL     1      -2.893  13.401  23.787  0.00  0.00    +0.000 A 
ATOM      8  N   UNL     1      -4.156  13.348  23.343  0.00  0.00    +0.000 NA
ATOM      9  C   UNL     1      -4.328  12.840  22.114  0.00  0.00    +0.000 A 
ATOM     10  N   UNL     1      -5.637  12.824  21.641  0.00  0.00    +0.000 N 
ATOM     11  N   UNL     1      -3.324  12.360  21.362  0.00  0.00    +0.000 NA
ATOM     12  C   UNL     1      -1.376  11.413  19.684  0.00  0.00    +0.000 C 
ATOM     13  H   UNL     1      -6.267  13.123  22.371  0.00  0.00    +0.000 HD
ENDROOT
BRANCH  10  14
ATOM     14  C   UNL     1      -6.123  12.908  20.328  0.00  0.00    +0.000 A 
ATOM     15  C   UNL     1      -6.227  14.121  19.630  0.00  0.00    +0.000 A 
ATOM     16  C   UNL     1      -6.650  14.160  18.302  0.00  0.00    +0.000 A 
ATOM     17  C   UNL     1      -6.963  12.978  17.653  0.00  0.00    +0.000 A 
ATOM     18  F   UNL     1      -7.361  13.012  16.374  0.00  0.00    +0.000 F 
ATOM     19  C   UNL     1      -6.867  11.760  18.311  0.00  0.00    +0.000 A 
ATOM     20  C   UNL     1      -6.443  11.725  19.643  0.00  0.00    +0.000 A 
ENDBRANCH  10  14
BRANCH   1  24
ATOM     21  N   UNL     1       1.997   8.338  18.391  0.00  0.00    +0.000 N 
ATOM     22  C   UNL     1       1.645   9.653  18.249  0.00  0.00    +0.000 C 
ATOM     23  O   UNL     1       2.155  10.413  17.437  0.00  0.00    +0.000 OA
ATOM     24  N   UNL     1       0.647  10.018  19.119  0.00  0.00    +0.000 N 
ATOM     25  H   UNL     1       1.801   7.910  19.284  0.00  0.00    +0.000 HD
ATOM     26  H   UNL     1       0.068   9.257  19.442  0.00  0.00    +0.000 HD
BRANCH  21  27
ATOM     27  C   UNL     1       3.130   7.820  17.655  0.00  0.00    +0.000 C 
BRANCH  27  32
ATOM     28  C   UNL     1       5.066   4.610  18.369  0.00  0.00    +0.000 A 
ATOM     29  C   UNL     1       4.021   3.690  18.482  0.00  0.00    +0.000 A 
ATOM     30  C   UNL     1       2.695   4.106  18.364  0.00  0.00    +0.000 A 
ATOM     31  C   UNL     1       2.406   5.448  18.126  0.00  0.00    +0.000 A 
ATOM     32  C   UNL     1       3.440   6.388  18.006  0.00  0.00    +0.000 A 
ATOM     33  C   UNL     1       4.771   5.956  18.134  0.00  0.00    +0.000 A 
BRANCH  28  35
ATOM     34  C   UNL     1       7.367   4.725  17.786  0.00  0.00    +0.000 C 
ATOM     35  O   UNL     1       6.318   4.072  18.490  0.00  0.00    +0.000 OA
ENDBRANCH  28  35
ENDBRANCH  27  32
ENDBRANCH  21  27
ENDBRANCH   1  24
TORSDOF 5
ENDMDL
MODEL 5
REMARK VINA RESULT:      -8.1      1.349      1.706
REMARK  Name = 
REMARK  6 active torsions:
REMARK  status: ('A' for Active; 'I' for Inactive)
REMARK    1  A    between atoms: C_1  and  O_2
REMARK    2  A    between atoms: O_2  and  C_3
REMARK    3  A    between atoms: C_7  and  C_8
REMARK    4  A    between atoms: C_8  and  N_9
REMARK    5  A    between atoms: N_12  and  C_13
REMARK    6  A    between atoms: N_22  and  C_23
REMARK                            x       y       z     vdW  Elec       q    Type
REMARK                         _______ _______ _______ _____ _____    ______ ____
ROOT
ATOM      1  C   UNL     1       0.097  11.336  19.068  0.00  0.00    +0.000 C 
ATOM      2  C   UNL     1       0.826  12.450  19.821  0.00  0.00    +0.000 C 
ATOM      3  C   UNL     1       0.305  12.308  21.247  0.00  0.00    +0.000 C 
ATOM      4  N   UNL     1      -1.076  11.865  21.080  0.00  0.00    +0.000 N 
ATOM      5  C   UNL     1      -2.125  12.382  21.812  0.00  0.00    +0.000 A 
ATOM      6  C   UNL     1      -1.947  12.906  23.073  0.00  0.00    +0.000 A 
ATOM      7  C   UNL     1      -3.071  13.349  23.734  0.00  0.00    +0.000 A 
ATOM      8  N   UNL     1      -4.306  13.296  23.219  0.00  0.00    +0.000 NA
ATOM      9  C   UNL     1      -4.405  12.800  21.976  0.00  0.00    +0.000 A 
ATOM     10  N   UNL     1      -5.685  12.784  21.429  0.00  0.00    +0.000 N 
ATOM     11  N   UNL     1      -3.357  12.332  21.278  0.00  0.00    +0.000 NA
ATOM     12  C   UNL     1      -1.313  11.413  19.703  0.00  0.00    +0.000 C 
ATOM     13  H   UNL     1      -6.357  13.072  22.126  0.00  0.00    +0.000 HD
ENDROOT
BRANCH  10  14
ATOM     14  C   UNL     1      -6.096  12.880  20.092  0.00  0.00    +0.000 A 
ATOM     15  C   UNL     1      -6.468  11.763  19.328  0.00  0.00    +0.000 A 
ATOM     16  C   UNL     1      -6.937  11.900  18.022  0.00  0.00    +0.000 A 
ATOM     17  C   UNL     1      -7.051  13.164  17.470  0.00  0.00    +0.000 A 
ATOM     18  F   UNL     1      -7.510  13.300  16.218  0.00  0.00    +0.000 F 
ATOM     19  C   UNL     1      -6.696  14.292  18.199  0.00  0.00    +0.000 A 
ATOM     20  C   UNL     1      -6.225  14.149  19.507  0.00  0.00    +0.000 A 
ENDBRANCH  10  14
BRANCH   1  24
ATOM     21  N   UNL     1       2.068   8.323  18.529  0.00  0.00    +0.000 N 
ATOM     22  C   UNL     1       1.720   9.635  18.356  0.00  0.00    +0.000 C 
ATOM     23  O   UNL     1       2.212  10.367  17.508  0.00  0.00    +0.000 OA
ATOM     24  N   UNL     1       0.746  10.032  19.239  0.00  0.00    +0.000 N 
ATOM     25  H   UNL     1       1.893   7.923  19.438  0.00  0.00    +0.000 HD
ATOM     26  H   UNL     1       0.171   9.285  19.599  0.00  0.00    +0.000 HD
BRANCH  21  27
ATOM     27  C   UNL     1       3.180   7.776  17.780  0.00  0.00    +0.000 C 
BRANCH  27  32
ATOM     28  C   UNL     1       2.110   4.121  18.008  0.00  0.00    +0.000 A 
ATOM     29  C   UNL     1       3.346   3.493  18.176  0.00  0.00    +0.000 A 
ATOM     30  C   UNL     1       4.524   4.239  18.181  0.00  0.00    +0.000 A 
ATOM     31  C   UNL     1       4.473   5.622  18.022  0.00  0.00    +0.000 A 
ATOM     32  C   UNL     1       3.242   6.273  17.856  0.00  0.00    +0.000 A 
ATOM     33  C   UNL     1       2.062   5.508  17.847  0.00  0.00    +0.000 A 
BRANCH  28  35
ATOM     34  C   UNL     1       1.150   2.113  18.842  0.00  0.00    +0.000 C 
ATOM     35  O   UNL     1       1.031   3.279  18.037  0.00  0.00    +0.000 OA
ENDBRANCH  28  35
ENDBRANCH  27  32
ENDBRANCH  21  27
ENDBRANCH   1  24
TORSDOF 5
ENDMDL
MODEL 6
REMARK VINA RESULT:      -8.0      1.116      1.443
REMARK  Name = 
REMARK  6 active torsions:
REMARK  status: ('A' for Active; 'I' for Inactive)
REMARK    1  A    between atoms: C_1  and  O_2
REMARK    2  A    between atoms: O_2  and  C_3
REMARK    3  A    between atoms: C_7  and  C_8
REMARK    4  A    between atoms: C_8  and  N_9
REMARK    5  A    between atoms: N_12  and  C_13
REMARK    6  A    between atoms: N_22  and  C_23
REMARK                            x       y       z     vdW  Elec       q    Type
REMARK                         _______ _______ _______ _____ _____    ______ ____
ROOT
ATOM      1  C   UNL     1       0.492  10.493  18.954  0.00  0.00    +0.000 C 
ATOM      2  C   UNL     1       1.329  11.766  19.094  0.00  0.00    +0.000 C 
ATOM      3  C   UNL     1       1.197  12.109  20.574  0.00  0.00    +0.000 C 
ATOM      4  N   UNL     1      -0.155  11.683  20.921  0.00  0.00    +0.000 N 
ATOM      5  C   UNL     1      -1.008  12.443  21.693  0.00  0.00    +0.000 A 
ATOM      6  C   UNL     1      -0.542  13.341  22.629  0.00  0.00    +0.000 A 
ATOM      7  C   UNL     1      -1.482  14.010  23.380  0.00  0.00    +0.000 A 
ATOM      8  N   UNL     1      -2.803  13.834  23.247  0.00  0.00    +0.000 NA
ATOM      9  C   UNL     1      -3.190  12.967  22.299  0.00  0.00    +0.000 A 
ATOM     10  N   UNL     1      -4.564  12.818  22.137  0.00  0.00    +0.000 N 
ATOM     11  N   UNL     1      -2.332  12.264  21.542  0.00  0.00    +0.000 NA
ATOM     12  C   UNL     1      -0.711  10.817  19.872  0.00  0.00    +0.000 C 
ATOM     13  H   UNL     1      -5.051  13.338  22.854  0.00  0.00    +0.000 HD
ENDROOT
BRANCH  10  14
ATOM     14  C   UNL     1      -5.308  12.489  20.995  0.00  0.00    +0.000 A 
ATOM     15  C   UNL     1      -6.627  12.016  21.055  0.00  0.00    +0.000 A 
ATOM     16  C   UNL     1      -7.362  11.764  19.897  0.00  0.00    +0.000 A 
ATOM     17  C   UNL     1      -6.783  11.996  18.661  0.00  0.00    +0.000 A 
ATOM     18  F   UNL     1      -7.489  11.763  17.546  0.00  0.00    +0.000 F 
ATOM     19  C   UNL     1      -5.481  12.468  18.564  0.00  0.00    +0.000 A 
ATOM     20  C   UNL     1      -4.748  12.719  19.728  0.00  0.00    +0.000 A 
ENDBRANCH  10  14
BRANCH   1  24
ATOM     21  N   UNL     1       2.421   7.406  18.918  0.00  0.00    +0.000 N 
ATOM     22  C   UNL     1       1.971   8.603  18.431  0.00  0.00    +0.000 C 
ATOM     23  O   UNL     1       2.194   9.008  17.298  0.00  0.00    +0.000 OA
ATOM     24  N   UNL     1       1.232   9.294  19.359  0.00  0.00    +0.000 N 
ATOM     25  H   UNL     1       2.503   7.326  19.920  0.00  0.00    +0.000 HD
ATOM     26  H   UNL     1       0.808   8.721  20.074  0.00  0.00    +0.000 HD
BRANCH  21  27
ATOM     27  C   UNL     1       3.335   6.613  18.124  0.00  0.00    +0.000 C 
BRANCH  27  32
ATOM     28  C   UNL     1       3.926   2.937  18.961  0.00  0.00    +0.000 A 
ATOM     29  C   UNL     1       2.766   2.357  18.442  0.00  0.00    +0.000 A 
ATOM     30  C   UNL     1       1.779   3.150  17.856  0.00  0.00    +0.000 A 
ATOM     31  C   UNL     1       1.950   4.530  17.781  0.00  0.00    +0.000 A 
ATOM     32  C   UNL     1       3.109   5.133  18.292  0.00  0.00    +0.000 A 
ATOM     33  C   UNL     1       4.092   4.322  18.886  0.00  0.00    +0.000 A 
BRANCH  28  35
ATOM     34  C   UNL     1       4.719   1.798  20.890  0.00  0.00    +0.000 C 
ATOM     35  O   UNL     1       4.820   2.049  19.494  0.00  0.00    +0.000 OA
ENDBRANCH  28  35
ENDBRANCH  27  32
ENDBRANCH  21  27
ENDBRANCH   1  24
TORSDOF 5
ENDMDL
MODEL 7
REMARK VINA RESULT:      -8.0      1.808      2.500
REMARK  Name = 
REMARK  6 active torsions:
REMARK  status: ('A' for Active; 'I' for Inactive)
REMARK    1  A    between atoms: C_1  and  O_2
REMARK    2  A    between atoms: O_2  and  C_3
REMARK    3  A    between atoms: C_7  and  C_8
REMARK    4  A    between atoms: C_8  and  N_9
REMARK    5  A    between atoms: N_12  and  C_13
REMARK    6  A    between atoms: N_22  and  C_23
REMARK                            x       y       z     vdW  Elec       q    Type
REMARK                         _______ _______ _______ _____ _____    ______ ____
ROOT
ATOM      1  C   UNL     1      -0.480  12.048  19.849  0.00  0.00    +0.000 C 
ATOM      2  C   UNL     1       0.081  12.820  21.044  0.00  0.00    +0.000 C 
ATOM      3  C   UNL     1      -0.721  12.276  22.221  0.00  0.00    +0.000 C 
ATOM      4  N   UNL     1      -2.040  12.001  21.658  0.00  0.00    +0.000 N 
ATOM      5  C   UNL     1      -3.215  12.333  22.299  0.00  0.00    +0.000 A 
ATOM      6  C   UNL     1      -3.298  12.425  23.671  0.00  0.00    +0.000 A 
ATOM      7  C   UNL     1      -4.532  12.714  24.208  0.00  0.00    +0.000 A 
ATOM      8  N   UNL     1      -5.636  12.907  23.474  0.00  0.00    +0.000 NA
ATOM      9  C   UNL     1      -5.480  12.831  22.144  0.00  0.00    +0.000 A 
ATOM     10  N   UNL     1      -6.620  13.072  21.384  0.00  0.00    +0.000 N 
ATOM     11  N   UNL     1      -4.312  12.535  21.550  0.00  0.00    +0.000 NA
ATOM     12  C   UNL     1      -1.990  12.017  20.190  0.00  0.00    +0.000 C 
ATOM     13  H   UNL     1      -7.420  13.173  21.992  0.00  0.00    +0.000 HD
ENDROOT
BRANCH  10  14
ATOM     14  C   UNL     1      -6.749  13.607  20.094  0.00  0.00    +0.000 A 
ATOM     15  C   UNL     1      -6.488  14.954  19.799  0.00  0.00    +0.000 A 
ATOM     16  C   UNL     1      -6.559  15.438  18.493  0.00  0.00    +0.000 A 
ATOM     17  C   UNL     1      -6.882  14.570  17.463  0.00  0.00    +0.000 A 
ATOM     18  F   UNL     1      -6.943  15.031  16.207  0.00  0.00    +0.000 F 
ATOM     19  C   UNL     1      -7.142  13.231  17.719  0.00  0.00    +0.000 A 
ATOM     20  C   UNL     1      -7.070  12.750  19.029  0.00  0.00    +0.000 A 
ENDBRANCH  10  14
BRANCH   1  24
ATOM     21  N   UNL     1       1.389   9.167  18.641  0.00  0.00    +0.000 N 
ATOM     22  C   UNL     1       1.092  10.496  18.776  0.00  0.00    +0.000 C 
ATOM     23  O   UNL     1       1.626  11.385  18.127  0.00  0.00    +0.000 OA
ATOM     24  N   UNL     1       0.117  10.715  19.717  0.00  0.00    +0.000 N 
ATOM     25  H   UNL     1       1.183   8.574  19.431  0.00  0.00    +0.000 HD
ATOM     26  H   UNL     1      -0.491   9.928  19.888  0.00  0.00    +0.000 HD
BRANCH  21  27
ATOM     27  C   UNL     1       2.494   8.766  17.796  0.00  0.00    +0.000 C 
BRANCH  27  32
ATOM     28  C   UNL     1       3.073   5.477  19.643  0.00  0.00    +0.000 A 
ATOM     29  C   UNL     1       4.106   4.925  18.884  0.00  0.00    +0.000 A 
ATOM     30  C   UNL     1       4.593   5.591  17.759  0.00  0.00    +0.000 A 
ATOM     31  C   UNL     1       4.050   6.820  17.390  0.00  0.00    +0.000 A 
ATOM     32  C   UNL     1       3.014   7.394  18.141  0.00  0.00    +0.000 A 
ATOM     33  C   UNL     1       2.529   6.709  19.268  0.00  0.00    +0.000 A 
BRANCH  28  35
ATOM     34  C   UNL     1       1.386   4.184  20.707  0.00  0.00    +0.000 C 
ATOM     35  O   UNL     1       2.697   4.732  20.728  0.00  0.00    +0.000 OA
ENDBRANCH  28  35
ENDBRANCH  27  32
ENDBRANCH  21  27
ENDBRANCH   1  24
TORSDOF 5
ENDMDL
MODEL 8
REMARK VINA RESULT:      -7.9      1.977      3.007
REMARK  Name = 
REMARK  6 active torsions:
REMARK  status: ('A' for Active; 'I' for Inactive)
REMARK    1  A    between atoms: C_1  and  O_2
REMARK    2  A    between atoms: O_2  and  C_3
REMARK    3  A    between atoms: C_7  and  C_8
REMARK    4  A    between atoms: C_8  and  N_9
REMARK    5  A    between atoms: N_12  and  C_13
REMARK    6  A    between atoms: N_22  and  C_23
REMARK                            x       y       z     vdW  Elec       q    Type
REMARK                         _______ _______ _______ _____ _____    ______ ____
ROOT
ATOM      1  C   UNL     1       0.713  10.816  18.949  0.00  0.00    +0.000 C 
ATOM      2  C   UNL     1       1.469  12.121  19.203  0.00  0.00    +0.000 C 
ATOM      3  C   UNL     1       1.285  12.346  20.700  0.00  0.00    +0.000 C 
ATOM      4  N   UNL     1      -0.047  11.817  20.980  0.00  0.00    +0.000 N 
ATOM      5  C   UNL     1      -0.960  12.468  21.783  0.00  0.00    +0.000 A 
ATOM      6  C   UNL     1      -0.569  13.319  22.793  0.00  0.00    +0.000 A 
ATOM      7  C   UNL     1      -1.562  13.876  23.566  0.00  0.00    +0.000 A 
ATOM      8  N   UNL     1      -2.868  13.634  23.387  0.00  0.00    +0.000 NA
ATOM      9  C   UNL     1      -3.182  12.819  22.368  0.00  0.00    +0.000 A 
ATOM     10  N   UNL     1      -4.541  12.603  22.160  0.00  0.00    +0.000 N 
ATOM     11  N   UNL     1      -2.267  12.225  21.585  0.00  0.00    +0.000 NA
ATOM     12  C   UNL     1      -0.527  11.001  19.857  0.00  0.00    +0.000 C 
ATOM     13  H   UNL     1      -5.073  13.039  22.900  0.00  0.00    +0.000 HD
ENDROOT
BRANCH  10  14
ATOM     14  C   UNL     1      -5.238  12.317  20.978  0.00  0.00    +0.000 A 
ATOM     15  C   UNL     1      -6.571  11.880  20.967  0.00  0.00    +0.000 A 
ATOM     16  C   UNL     1      -7.257  11.671  19.771  0.00  0.00    +0.000 A 
ATOM     17  C   UNL     1      -6.615  11.911  18.568  0.00  0.00    +0.000 A 
ATOM     18  F   UNL     1      -7.274  11.719  17.418  0.00  0.00    +0.000 F 
ATOM     19  C   UNL     1      -5.298  12.349  18.542  0.00  0.00    +0.000 A 
ATOM     20  C   UNL     1      -4.614  12.556  19.743  0.00  0.00    +0.000 A 
ENDBRANCH  10  14
BRANCH   1  24
ATOM     21  N   UNL     1       2.275   7.528  18.889  0.00  0.00    +0.000 N 
ATOM     22  C   UNL     1       1.688   8.642  18.352  0.00  0.00    +0.000 C 
ATOM     23  O   UNL     1       1.351   8.740  17.180  0.00  0.00    +0.000 OA
ATOM     24  N   UNL     1       1.514   9.634  19.285  0.00  0.00    +0.000 N 
ATOM     25  H   UNL     1       2.827   7.664  19.722  0.00  0.00    +0.000 HD
ATOM     26  H   UNL     1       1.467   9.313  20.241  0.00  0.00    +0.000 HD
BRANCH  21  27
ATOM     27  C   UNL     1       2.664   6.439  18.019  0.00  0.00    +0.000 C 
BRANCH  27  32
ATOM     28  C   UNL     1       6.303   5.894  17.006  0.00  0.00    +0.000 A 
ATOM     29  C   UNL     1       6.840   5.405  18.199  0.00  0.00    +0.000 A 
ATOM     30  C   UNL     1       6.043   5.283  19.337  0.00  0.00    +0.000 A 
ATOM     31  C   UNL     1       4.699   5.646  19.286  0.00  0.00    +0.000 A 
ATOM     32  C   UNL     1       4.138   6.137  18.098  0.00  0.00    +0.000 A 
ATOM     33  C   UNL     1       4.955   6.260  16.960  0.00  0.00    +0.000 A 
BRANCH  28  35
ATOM     34  C   UNL     1       7.047   4.959  14.951  0.00  0.00    +0.000 C 
ATOM     35  O   UNL     1       7.185   5.950  15.961  0.00  0.00    +0.000 OA
ENDBRANCH  28  35
ENDBRANCH  27  32
ENDBRANCH  21  27
ENDBRANCH   1  24
TORSDOF 5
ENDMDL
MODEL 9
REMARK VINA RESULT:      -7.9      2.471      2.832
REMARK  Name = 
REMARK  6 active torsions:
REMARK  status: ('A' for Active; 'I' for Inactive)
REMARK    1  A    between atoms: C_1  and  O_2
REMARK    2  A    between atoms: O_2  and  C_3
REMARK    3  A    between atoms: C_7  and  C_8
REMARK    4  A    between atoms: C_8  and  N_9
REMARK    5  A    between atoms: N_12  and  C_13
REMARK    6  A    between atoms: N_22  and  C_23
REMARK                            x       y       z     vdW  Elec       q    Type
REMARK                         _______ _______ _______ _____ _____    ______ ____
ROOT
ATOM      1  C   UNL     1      -0.159  10.983  19.898  0.00  0.00    +0.000 C 
ATOM      2  C   UNL     1       0.339  12.134  19.022  0.00  0.00    +0.000 C 
ATOM      3  C   UNL     1       1.093  13.022  20.006  0.00  0.00    +0.000 C 
ATOM      4  N   UNL     1       0.350  12.881  21.256  0.00  0.00    +0.000 N 
ATOM      5  C   UNL     1       0.039  13.950  22.070  0.00  0.00    +0.000 A 
ATOM      6  C   UNL     1       0.814  15.089  22.107  0.00  0.00    +0.000 A 
ATOM      7  C   UNL     1       0.440  16.074  22.993  0.00  0.00    +0.000 A 
ATOM      8  N   UNL     1      -0.621  15.980  23.806  0.00  0.00    +0.000 NA
ATOM      9  C   UNL     1      -1.348  14.858  23.699  0.00  0.00    +0.000 A 
ATOM     10  N   UNL     1      -2.472  14.782  24.516  0.00  0.00    +0.000 N 
ATOM     11  N   UNL     1      -1.034  13.847  22.872  0.00  0.00    +0.000 NA
ATOM     12  C   UNL     1      -0.569  11.737  21.187  0.00  0.00    +0.000 C 
ATOM     13  H   UNL     1      -2.494  15.576  25.140  0.00  0.00    +0.000 HD
ENDROOT
BRANCH  10  14
ATOM     14  C   UNL     1      -3.689  14.114  24.317  0.00  0.00    +0.000 A 
ATOM     15  C   UNL     1      -3.917  12.801  24.755  0.00  0.00    +0.000 A 
ATOM     16  C   UNL     1      -5.161  12.190  24.602  0.00  0.00    +0.000 A 
ATOM     17  C   UNL     1      -6.198  12.897  24.016  0.00  0.00    +0.000 A 
ATOM     18  F   UNL     1      -7.397  12.316  23.875  0.00  0.00    +0.000 F 
ATOM     19  C   UNL     1      -6.008  14.200  23.575  0.00  0.00    +0.000 A 
ATOM     20  C   UNL     1      -4.759  14.808  23.729  0.00  0.00    +0.000 A 
ENDBRANCH  10  14
BRANCH   1  24
ATOM     21  N   UNL     1       2.060   8.123  19.507  0.00  0.00    +0.000 N 
ATOM     22  C   UNL     1       1.251   9.144  19.085  0.00  0.00    +0.000 C 
ATOM     23  O   UNL     1       0.899   9.301  17.924  0.00  0.00    +0.000 OA
ATOM     24  N   UNL     1       0.873   9.964  20.118  0.00  0.00    +0.000 N 
ATOM     25  H   UNL     1       2.572   8.275  20.363  0.00  0.00    +0.000 HD
ATOM     26  H   UNL     1       0.896   9.534  21.031  0.00  0.00    +0.000 HD
BRANCH  21  27
ATOM     27  C   UNL     1       2.668   7.246  18.531  0.00  0.00    +0.000 C 
BRANCH  27  32
ATOM     28  C   UNL     1       1.496   3.977  20.110  0.00  0.00    +0.000 A 
ATOM     29  C   UNL     1       1.576   3.110  19.018  0.00  0.00    +0.000 A 
ATOM     30  C   UNL     1       1.972   3.583  17.767  0.00  0.00    +0.000 A 
ATOM     31  C   UNL     1       2.297   4.928  17.603  0.00  0.00    +0.000 A 
ATOM     32  C   UNL     1       2.227   5.814  18.687  0.00  0.00    +0.000 A 
ATOM     33  C   UNL     1       1.819   5.326  19.941  0.00  0.00    +0.000 A 
BRANCH  28  35
ATOM     34  C   UNL     1       1.980   2.399  21.821  0.00  0.00    +0.000 C 
ATOM     35  O   UNL     1       1.109   3.386  21.283  0.00  0.00    +0.000 OA
ENDBRANCH  28  35
ENDBRANCH  27  32
ENDBRANCH  21  27
ENDBRANCH   1  24
TORSDOF 5
ENDMDL
