MODEL 1
REMARK VINA RESULT:      -8.5      0.000      0.000
REMARK  Name = 
REMARK  3 active torsions:
REMARK  status: ('A' for Active; 'I' for Inactive)
REMARK    1  A    between atoms: C_2  and  C_14
REMARK    2  A    between atoms: N_3  and  C_4
REMARK    3  A    between atoms: C_7  and  C_8
REMARK                            x       y       z     vdW  Elec       q    Type
REMARK                         _______ _______ _______ _____ _____    ______ ____
ROOT
ATOM      1  O   UNL     1       8.096   6.768  18.816  0.00  0.00    +0.000 OA
ATOM      2  C   UNL     1       7.685   7.152  17.723  0.00  0.00    +0.000 C 
ATOM      3  N   UNL     1       7.695   8.473  17.309  0.00  0.00    +0.000 N 
ATOM      4  H   UNL     1       7.122   8.720  16.512  0.00  0.00    +0.000 HD
ENDROOT
BRANCH   2   5
ATOM      5  C   UNL     1       7.040   6.162  16.752  0.00  0.00    +0.000 C 
ATOM      6  C   UNL     1       5.587   6.592  16.480  0.00  0.00    +0.000 C 
ATOM      7  C   UNL     1       4.682   6.343  17.691  0.00  0.00    +0.000 C 
ATOM      8  N   UNL     1       4.774   4.936  18.049  0.00  0.00    +0.000 N 
ATOM      9  C   UNL     1       3.661   4.152  18.276  0.00  0.00    +0.000 A 
ATOM     10  C   UNL     1       2.396   4.676  18.579  0.00  0.00    +0.000 A 
ATOM     11  N   UNL     1       1.264   3.936  18.743  0.00  0.00    +0.000 NA
ATOM     12  C   UNL     1       1.433   2.612  18.586  0.00  0.00    +0.000 A 
ATOM     13  C   UNL     1       2.667   2.062  18.301  0.00  0.00    +0.000 A 
ATOM     14  N   UNL     1       3.788   2.809  18.154  0.00  0.00    +0.000 NA
ATOM     15  C   UNL     1       6.099   4.417  18.373  0.00  0.00    +0.000 C 
ATOM     16  C   UNL     1       7.070   4.699  17.222  0.00  0.00    +0.000 C 
ENDBRANCH   2   5
BRANCH   3  17
ATOM     17  C   UNL     1       8.314   9.537  18.013  0.00  0.00    +0.000 A 
ATOM     18  C   UNL     1       9.015   9.348  19.208  0.00  0.00    +0.000 A 
ATOM     19  C   UNL     1       9.618  10.418  19.871  0.00  0.00    +0.000 A 
ATOM     20  C   UNL     1       9.550  11.710  19.346  0.00  0.00    +0.000 A 
ATOM     21  C   UNL     1       8.842  11.909  18.150  0.00  0.00    +0.000 A 
ATOM     22  C   UNL     1       8.236  10.829  17.486  0.00  0.00    +0.000 A 
BRANCH  20  23
ATOM     23  C   UNL     1      10.247  12.854  20.039  0.00  0.00    +0.000 C 
ATOM     24  F   UNL     1       9.570  13.328  21.124  0.00  0.00    +0.000 F 
ATOM     25  F   UNL     1      11.480  12.504  20.499  0.00  0.00    +0.000 F 
ATOM     26  F   UNL     1      10.441  13.926  19.224  0.00  0.00    +0.000 F 
ENDBRANCH  20  23
ENDBRANCH   3  17
TORSDOF 3
ENDMDL
MODEL 2
REMARK VINA RESULT:      -8.4      0.300      1.289
REMARK  Name = 
REMARK  3 active torsions:
REMARK  status: ('A' for Active; 'I' for Inactive)
REMARK    1  A    between atoms: C_2  and  C_14
REMARK    2  A    between atoms: N_3  and  C_4
REMARK    3  A    between atoms: C_7  and  C_8
REMARK                            x       y       z     vdW  Elec       q    Type
REMARK                         _______ _______ _______ _____ _____    ______ ____
ROOT
ATOM      1  O   UNL     1       8.147   6.853  18.793  0.00  0.00    +0.000 OA
ATOM      2  C   UNL     1       7.719   7.238  17.707  0.00  0.00    +0.000 C 
ATOM      3  N   UNL     1       7.711   8.560  17.299  0.00  0.00    +0.000 N 
ATOM      4  H   UNL     1       7.126   8.805  16.510  0.00  0.00    +0.000 HD
ENDROOT
BRANCH   2   5
ATOM      5  C   UNL     1       7.070   6.245  16.741  0.00  0.00    +0.000 C 
ATOM      6  C   UNL     1       5.613   6.667  16.484  0.00  0.00    +0.000 C 
ATOM      7  C   UNL     1       4.721   6.409  17.704  0.00  0.00    +0.000 C 
ATOM      8  N   UNL     1       4.825   5.002  18.057  0.00  0.00    +0.000 N 
ATOM      9  C   UNL     1       3.721   4.211  18.293  0.00  0.00    +0.000 A 
ATOM     10  C   UNL     1       2.455   4.726  18.611  0.00  0.00    +0.000 A 
ATOM     11  N   UNL     1       1.330   3.978  18.784  0.00  0.00    +0.000 NA
ATOM     12  C   UNL     1       1.505   2.655  18.623  0.00  0.00    +0.000 A 
ATOM     13  C   UNL     1       2.740   2.114  18.324  0.00  0.00    +0.000 A 
ATOM     14  N   UNL     1       3.854   2.869  18.167  0.00  0.00    +0.000 NA
ATOM     15  C   UNL     1       6.158   4.491  18.367  0.00  0.00    +0.000 C 
ATOM     16  C   UNL     1       7.115   4.782  17.207  0.00  0.00    +0.000 C 
ENDBRANCH   2   5
BRANCH   3  17
ATOM     17  C   UNL     1       8.329   9.626  17.999  0.00  0.00    +0.000 A 
ATOM     18  C   UNL     1       8.269  10.954  17.565  0.00  0.00    +0.000 A 
ATOM     19  C   UNL     1       8.884  11.981  18.282  0.00  0.00    +0.000 A 
ATOM     20  C   UNL     1       9.567  11.709  19.469  0.00  0.00    +0.000 A 
ATOM     21  C   UNL     1       9.640  10.377  19.908  0.00  0.00    +0.000 A 
ATOM     22  C   UNL     1       9.019   9.347  19.183  0.00  0.00    +0.000 A 
BRANCH  20  23
ATOM     23  C   UNL     1      10.187  12.828  20.268  0.00  0.00    +0.000 C 
ATOM     24  F   UNL     1      11.543  12.900  20.145  0.00  0.00    +0.000 F 
ATOM     25  F   UNL     1       9.717  14.050  19.893  0.00  0.00    +0.000 F 
ATOM     26  F   UNL     1       9.940  12.724  21.603  0.00  0.00    +0.000 F 
ENDBRANCH  20  23
ENDBRANCH   3  17
TORSDOF 3
ENDMDL
MODEL 3
REMARK VINA RESULT:      -8.0      1.354      1.915
REMARK  Name = 
REMARK  3 active torsions:
REMARK  status: ('A' for Active; 'I' for Inactive)
REMARK    1  A    between atoms: C_2  and  C_14
REMARK    2  A    between atoms: N_3  and  C_4
REMARK    3  A    between atoms: C_7  and  C_8
REMARK                            x       y       z     vdW  Elec       q    Type
REMARK                         _______ _______ _______ _____ _____    ______ ____
ROOT
ATOM      1  O   UNL     1       7.240   7.631  16.842  0.00  0.00    +0.000 OA
ATOM      2  C   UNL     1       7.799   7.215  17.855  0.00  0.00    +0.000 C 
ATOM      3  N   UNL     1       8.564   8.001  18.699  0.00  0.00    +0.000 N 
ATOM      4  H   UNL     1       9.175   7.531  19.355  0.00  0.00    +0.000 HD
ENDROOT
BRANCH   2   5
ATOM      5  C   UNL     1       7.745   5.728  18.208  0.00  0.00    +0.000 C 
ATOM      6  C   UNL     1       7.095   4.955  17.046  0.00  0.00    +0.000 C 
ATOM      7  C   UNL     1       5.589   5.221  16.957  0.00  0.00    +0.000 C 
ATOM      8  N   UNL     1       4.988   4.882  18.238  0.00  0.00    +0.000 N 
ATOM      9  C   UNL     1       3.862   4.093  18.347  0.00  0.00    +0.000 A 
ATOM     10  C   UNL     1       2.968   3.872  17.289  0.00  0.00    +0.000 A 
ATOM     11  N   UNL     1       1.886   3.047  17.341  0.00  0.00    +0.000 NA
ATOM     12  C   UNL     1       1.714   2.422  18.519  0.00  0.00    +0.000 A 
ATOM     13  C   UNL     1       2.567   2.627  19.585  0.00  0.00    +0.000 A 
ATOM     14  N   UNL     1       3.633   3.462  19.523  0.00  0.00    +0.000 NA
ATOM     15  C   UNL     1       5.492   5.585  19.415  0.00  0.00    +0.000 C 
ATOM     16  C   UNL     1       7.010   5.412  19.520  0.00  0.00    +0.000 C 
ENDBRANCH   2   5
BRANCH   3  17
ATOM     17  C   UNL     1       8.683   9.411  18.605  0.00  0.00    +0.000 A 
ATOM     18  C   UNL     1       8.031  10.163  17.622  0.00  0.00    +0.000 A 
ATOM     19  C   UNL     1       8.165  11.551  17.563  0.00  0.00    +0.000 A 
ATOM     20  C   UNL     1       8.947  12.230  18.500  0.00  0.00    +0.000 A 
ATOM     21  C   UNL     1       9.611  11.482  19.485  0.00  0.00    +0.000 A 
ATOM     22  C   UNL     1       9.473  10.085  19.541  0.00  0.00    +0.000 A 
BRANCH  20  23
ATOM     23  C   UNL     1       9.048  13.735  18.464  0.00  0.00    +0.000 C 
ATOM     24  F   UNL     1       7.969  14.340  17.890  0.00  0.00    +0.000 F 
ATOM     25  F   UNL     1       9.152  14.274  19.710  0.00  0.00    +0.000 F 
ATOM     26  F   UNL     1      10.134  14.175  17.772  0.00  0.00    +0.000 F 
ENDBRANCH  20  23
ENDBRANCH   3  17
TORSDOF 3
ENDMDL
MODEL 4
REMARK VINA RESULT:      -7.8      1.366      1.908
REMARK  Name = 
REMARK  3 active torsions:
REMARK  status: ('A' for Active; 'I' for Inactive)
REMARK    1  A    between atoms: C_2  and  C_14
REMARK    2  A    between atoms: N_3  and  C_4
REMARK    3  A    between atoms: C_7  and  C_8
REMARK                            x       y       z     vdW  Elec       q    Type
REMARK                         _______ _______ _______ _____ _____    ______ ____
ROOT
ATOM      1  O   UNL     1       7.686   7.250  16.652  0.00  0.00    +0.000 OA
ATOM      2  C   UNL     1       7.903   6.904  17.812  0.00  0.00    +0.000 C 
ATOM      3  N   UNL     1       8.418   7.739  18.788  0.00  0.00    +0.000 N 
ATOM      4  H   UNL     1       8.786   7.310  19.628  0.00  0.00    +0.000 HD
ENDROOT
BRANCH   2   5
ATOM      5  C   UNL     1       7.682   5.451  18.236  0.00  0.00    +0.000 C 
ATOM      6  C   UNL     1       6.979   4.692  17.096  0.00  0.00    +0.000 C 
ATOM      7  C   UNL     1       5.512   5.111  16.953  0.00  0.00    +0.000 C 
ATOM      8  N   UNL     1       4.850   4.905  18.231  0.00  0.00    +0.000 N 
ATOM      9  C   UNL     1       3.644   4.246  18.348  0.00  0.00    +0.000 A 
ATOM     10  C   UNL     1       2.755   4.066  17.277  0.00  0.00    +0.000 A 
ATOM     11  N   UNL     1       1.590   3.364  17.340  0.00  0.00    +0.000 NA
ATOM     12  C   UNL     1       1.326   2.822  18.542  0.00  0.00    +0.000 A 
ATOM     13  C   UNL     1       2.172   2.991  19.620  0.00  0.00    +0.000 A 
ATOM     14  N   UNL     1       3.322   3.704  19.546  0.00  0.00    +0.000 NA
ATOM     15  C   UNL     1       5.400   5.610  19.386  0.00  0.00    +0.000 C 
ATOM     16  C   UNL     1       6.889   5.283  19.541  0.00  0.00    +0.000 C 
ENDBRANCH   2   5
BRANCH   3  17
ATOM     17  C   UNL     1       8.620   9.133  18.636  0.00  0.00    +0.000 A 
ATOM     18  C   UNL     1       9.539   9.855  19.405  0.00  0.00    +0.000 A 
ATOM     19  C   UNL     1       9.718  11.227  19.224  0.00  0.00    +0.000 A 
ATOM     20  C   UNL     1       8.990  11.917  18.253  0.00  0.00    +0.000 A 
ATOM     21  C   UNL     1       8.060  11.202  17.482  0.00  0.00    +0.000 A 
ATOM     22  C   UNL     1       7.883   9.820  17.667  0.00  0.00    +0.000 A 
BRANCH  20  23
ATOM     23  C   UNL     1       9.223  13.389  18.026  0.00  0.00    +0.000 C 
ATOM     24  F   UNL     1      10.216  13.652  17.130  0.00  0.00    +0.000 F 
ATOM     25  F   UNL     1       8.115  14.018  17.542  0.00  0.00    +0.000 F 
ATOM     26  F   UNL     1       9.563  14.052  19.165  0.00  0.00    +0.000 F 
ENDBRANCH  20  23
ENDBRANCH   3  17
TORSDOF 3
ENDMDL
MODEL 5
REMARK VINA RESULT:      -7.7      5.115      9.975
REMARK  Name = 
REMARK  3 active torsions:
REMARK  status: ('A' for Active; 'I' for Inactive)
REMARK    1  A    between atoms: C_2  and  C_14
REMARK    2  A    between atoms: N_3  and  C_4
REMARK    3  A    between atoms: C_7  and  C_8
REMARK                            x       y       z     vdW  Elec       q    Type
REMARK                         _______ _______ _______ _____ _____    ______ ____
ROOT
ATOM      1  O   UNL     1       8.238  10.512  17.868  0.00  0.00    +0.000 OA
ATOM      2  C   UNL     1       8.996  10.019  18.702  0.00  0.00    +0.000 C 
ATOM      3  N   UNL     1       8.959   8.694  19.098  0.00  0.00    +0.000 N 
ATOM      4  H   UNL     1       9.446   8.443  19.949  0.00  0.00    +0.000 HD
ENDROOT
BRANCH   2   5
ATOM      5  C   UNL     1      10.009  10.899  19.435  0.00  0.00    +0.000 C 
ATOM      6  C   UNL     1       9.298  12.159  19.962  0.00  0.00    +0.000 C 
ATOM      7  C   UNL     1       8.939  13.126  18.829  0.00  0.00    +0.000 C 
ATOM      8  N   UNL     1      10.156  13.452  18.103  0.00  0.00    +0.000 N 
ATOM      9  C   UNL     1      10.512  14.748  17.792  0.00  0.00    +0.000 A 
ATOM     10  C   UNL     1       9.603  15.816  17.772  0.00  0.00    +0.000 A 
ATOM     11  N   UNL     1       9.931  17.116  17.536  0.00  0.00    +0.000 NA
ATOM     12  C   UNL     1      11.240  17.333  17.317  0.00  0.00    +0.000 A 
ATOM     13  C   UNL     1      12.160  16.303  17.316  0.00  0.00    +0.000 A 
ATOM     14  N   UNL     1      11.817  15.011  17.539  0.00  0.00    +0.000 NA
ATOM     15  C   UNL     1      10.899  12.341  17.516  0.00  0.00    +0.000 C 
ATOM     16  C   UNL     1      11.229  11.302  18.593  0.00  0.00    +0.000 C 
ENDBRANCH   2   5
BRANCH   3  17
ATOM     17  C   UNL     1       8.158   7.691  18.496  0.00  0.00    +0.000 A 
ATOM     18  C   UNL     1       7.394   7.920  17.347  0.00  0.00    +0.000 A 
ATOM     19  C   UNL     1       6.621   6.907  16.776  0.00  0.00    +0.000 A 
ATOM     20  C   UNL     1       6.604   5.627  17.332  0.00  0.00    +0.000 A 
ATOM     21  C   UNL     1       7.362   5.391  18.490  0.00  0.00    +0.000 A 
ATOM     22  C   UNL     1       8.139   6.413  19.061  0.00  0.00    +0.000 A 
BRANCH  20  23
ATOM     23  C   UNL     1       5.808   4.522  16.683  0.00  0.00    +0.000 C 
ATOM     24  F   UNL     1       4.828   4.974  15.850  0.00  0.00    +0.000 F 
ATOM     25  F   UNL     1       6.588   3.704  15.923  0.00  0.00    +0.000 F 
ATOM     26  F   UNL     1       5.187   3.716  17.587  0.00  0.00    +0.000 F 
ENDBRANCH  20  23
ENDBRANCH   3  17
TORSDOF 3
ENDMDL
MODEL 6
REMARK VINA RESULT:      -7.7      8.943     10.585
REMARK  Name = 
REMARK  3 active torsions:
REMARK  status: ('A' for Active; 'I' for Inactive)
REMARK    1  A    between atoms: C_2  and  C_14
REMARK    2  A    between atoms: N_3  and  C_4
REMARK    3  A    between atoms: C_7  and  C_8
REMARK                            x       y       z     vdW  Elec       q    Type
REMARK                         _______ _______ _______ _____ _____    ______ ____
ROOT
ATOM      1  O   UNL     1       1.895  12.269  20.917  0.00  0.00    +0.000 OA
ATOM      2  C   UNL     1       0.784  12.283  20.393  0.00  0.00    +0.000 C 
ATOM      3  N   UNL     1       0.317  11.303  19.534  0.00  0.00    +0.000 N 
ATOM      4  H   UNL     1      -0.495  11.519  18.971  0.00  0.00    +0.000 HD
ENDROOT
BRANCH   2   5
ATOM      5  C   UNL     1      -0.153  13.473  20.607  0.00  0.00    +0.000 C 
ATOM      6  C   UNL     1      -0.336  13.710  22.116  0.00  0.00    +0.000 C 
ATOM      7  C   UNL     1      -1.202  12.624  22.763  0.00  0.00    +0.000 C 
ATOM      8  N   UNL     1      -2.476  12.577  22.062  0.00  0.00    +0.000 N 
ATOM      9  C   UNL     1      -3.688  12.575  22.721  0.00  0.00    +0.000 A 
ATOM     10  C   UNL     1      -3.833  12.222  24.071  0.00  0.00    +0.000 A 
ATOM     11  N   UNL     1      -5.001  12.273  24.769  0.00  0.00    +0.000 NA
ATOM     12  C   UNL     1      -6.059  12.706  24.061  0.00  0.00    +0.000 A 
ATOM     13  C   UNL     1      -5.953  13.049  22.727  0.00  0.00    +0.000 A 
ATOM     14  N   UNL     1      -4.787  12.980  22.041  0.00  0.00    +0.000 NA
ATOM     15  C   UNL     1      -2.436  12.314  20.626  0.00  0.00    +0.000 C 
ATOM     16  C   UNL     1      -1.526  13.331  19.931  0.00  0.00    +0.000 C 
ENDBRANCH   2   5
BRANCH   3  17
ATOM     17  C   UNL     1       0.983  10.082  19.262  0.00  0.00    +0.000 A 
ATOM     18  C   UNL     1       1.572   9.798  18.025  0.00  0.00    +0.000 A 
ATOM     19  C   UNL     1       2.226   8.588  17.794  0.00  0.00    +0.000 A 
ATOM     20  C   UNL     1       2.324   7.628  18.803  0.00  0.00    +0.000 A 
ATOM     21  C   UNL     1       1.730   7.901  20.045  0.00  0.00    +0.000 A 
ATOM     22  C   UNL     1       1.072   9.121  20.275  0.00  0.00    +0.000 A 
BRANCH  20  23
ATOM     23  C   UNL     1       3.076   6.342  18.565  0.00  0.00    +0.000 C 
ATOM     24  F   UNL     1       2.304   5.348  18.042  0.00  0.00    +0.000 F 
ATOM     25  F   UNL     1       4.109   6.504  17.691  0.00  0.00    +0.000 F 
ATOM     26  F   UNL     1       3.622   5.831  19.701  0.00  0.00    +0.000 F 
ENDBRANCH  20  23
ENDBRANCH   3  17
TORSDOF 3
ENDMDL
MODEL 7
REMARK VINA RESULT:      -7.7      5.203      7.068
REMARK  Name = 
REMARK  3 active torsions:
REMARK  status: ('A' for Active; 'I' for Inactive)
REMARK    1  A    between atoms: C_2  and  C_14
REMARK    2  A    between atoms: N_3  and  C_4
REMARK    3  A    between atoms: C_7  and  C_8
REMARK                            x       y       z     vdW  Elec       q    Type
REMARK                         _______ _______ _______ _____ _____    ______ ____
ROOT
ATOM      1  O   UNL     1       5.301   5.933  19.811  0.00  0.00    +0.000 OA
ATOM      2  C   UNL     1       4.625   5.258  19.037  0.00  0.00    +0.000 C 
ATOM      3  N   UNL     1       3.287   5.489  18.770  0.00  0.00    +0.000 N 
ATOM      4  H   UNL     1       2.762   4.749  18.321  0.00  0.00    +0.000 HD
ENDROOT
BRANCH   2   5
ATOM      5  C   UNL     1       5.229   4.026  18.362  0.00  0.00    +0.000 C 
ATOM      6  C   UNL     1       6.668   4.345  17.919  0.00  0.00    +0.000 C 
ATOM      7  C   UNL     1       6.696   5.297  16.718  0.00  0.00    +0.000 C 
ATOM      8  N   UNL     1       5.917   4.701  15.644  0.00  0.00    +0.000 N 
ATOM      9  C   UNL     1       6.384   4.606  14.350  0.00  0.00    +0.000 A 
ATOM     10  C   UNL     1       7.431   5.393  13.846  0.00  0.00    +0.000 A 
ATOM     11  N   UNL     1       7.961   5.279  12.598  0.00  0.00    +0.000 NA
ATOM     12  C   UNL     1       7.402   4.322  11.836  0.00  0.00    +0.000 A 
ATOM     13  C   UNL     1       6.362   3.540  12.296  0.00  0.00    +0.000 A 
ATOM     14  N   UNL     1       5.834   3.673  13.537  0.00  0.00    +0.000 NA
ATOM     15  C   UNL     1       4.519   4.392  15.930  0.00  0.00    +0.000 C 
ATOM     16  C   UNL     1       4.422   3.495  17.168  0.00  0.00    +0.000 C 
ENDBRANCH   2   5
BRANCH   3  17
ATOM     17  C   UNL     1       2.554   6.614  19.222  0.00  0.00    +0.000 A 
ATOM     18  C   UNL     1       1.986   6.687  20.498  0.00  0.00    +0.000 A 
ATOM     19  C   UNL     1       1.275   7.814  20.914  0.00  0.00    +0.000 A 
ATOM     20  C   UNL     1       1.126   8.913  20.065  0.00  0.00    +0.000 A 
ATOM     21  C   UNL     1       1.686   8.845  18.780  0.00  0.00    +0.000 A 
ATOM     22  C   UNL     1       2.401   7.709  18.365  0.00  0.00    +0.000 A 
BRANCH  20  23
ATOM     23  C   UNL     1       0.401  10.149  20.536  0.00  0.00    +0.000 C 
ATOM     24  F   UNL     1       1.230  11.200  20.796  0.00  0.00    +0.000 F 
ATOM     25  F   UNL     1      -0.493  10.604  19.614  0.00  0.00    +0.000 F 
ATOM     26  F   UNL     1      -0.309   9.942  21.678  0.00  0.00    +0.000 F 
ENDBRANCH  20  23
ENDBRANCH   3  17
TORSDOF 3
ENDMDL
MODEL 8
REMARK VINA RESULT:      -7.7      5.100      9.914
REMARK  Name = 
REMARK  3 active torsions:
REMARK  status: ('A' for Active; 'I' for Inactive)
REMARK    1  A    between atoms: C_2  and  C_14
REMARK    2  A    between atoms: N_3  and  C_4
REMARK    3  A    between atoms: C_7  and  C_8
REMARK                            x       y       z     vdW  Elec       q    Type
REMARK                         _______ _______ _______ _____ _____    ______ ____
ROOT
ATOM      1  O   UNL     1       8.337  10.447  17.808  0.00  0.00    +0.000 OA
ATOM      2  C   UNL     1       9.033   9.990  18.711  0.00  0.00    +0.000 C 
ATOM      3  N   UNL     1       8.967   8.681  19.156  0.00  0.00    +0.000 N 
ATOM      4  H   UNL     1       9.393   8.465  20.049  0.00  0.00    +0.000 HD
ENDROOT
BRANCH   2   5
ATOM      5  C   UNL     1       9.992  10.900  19.480  0.00  0.00    +0.000 C 
ATOM      6  C   UNL     1       9.238  12.162  19.934  0.00  0.00    +0.000 C 
ATOM      7  C   UNL     1       8.932  13.097  18.759  0.00  0.00    +0.000 C 
ATOM      8  N   UNL     1      10.185  13.423  18.096  0.00  0.00    +0.000 N 
ATOM      9  C   UNL     1      10.543  14.715  17.775  0.00  0.00    +0.000 A 
ATOM     10  C   UNL     1       9.624  15.771  17.677  0.00  0.00    +0.000 A 
ATOM     11  N   UNL     1       9.950  17.069  17.428  0.00  0.00    +0.000 NA
ATOM     12  C   UNL     1      11.267  17.297  17.278  0.00  0.00    +0.000 A 
ATOM     13  C   UNL     1      12.197  16.280  17.355  0.00  0.00    +0.000 A 
ATOM     14  N   UNL     1      11.857  14.989  17.589  0.00  0.00    +0.000 NA
ATOM     15  C   UNL     1      10.973  12.307  17.579  0.00  0.00    +0.000 C 
ATOM     16  C   UNL     1      11.253  11.299  18.698  0.00  0.00    +0.000 C 
ENDBRANCH   2   5
BRANCH   3  17
ATOM     17  C   UNL     1       8.210   7.653  18.538  0.00  0.00    +0.000 A 
ATOM     18  C   UNL     1       8.117   6.361  19.064  0.00  0.00    +0.000 A 
ATOM     19  C   UNL     1       7.357   5.375  18.433  0.00  0.00    +0.000 A 
ATOM     20  C   UNL     1       6.653   5.660  17.261  0.00  0.00    +0.000 A 
ATOM     21  C   UNL     1       6.748   6.953  16.723  0.00  0.00    +0.000 A 
ATOM     22  C   UNL     1       7.514   7.943  17.361  0.00  0.00    +0.000 A 
BRANCH  20  23
ATOM     23  C   UNL     1       5.792   4.606  16.610  0.00  0.00    +0.000 C 
ATOM     24  F   UNL     1       5.028   3.905  17.495  0.00  0.00    +0.000 F 
ATOM     25  F   UNL     1       4.919   5.138  15.710  0.00  0.00    +0.000 F 
ATOM     26  F   UNL     1       6.518   3.679  15.928  0.00  0.00    +0.000 F 
ENDBRANCH  20  23
ENDBRANCH   3  17
TORSDOF 3
ENDMDL
MODEL 9
REMARK VINA RESULT:      -7.7      5.358      7.223
REMARK  Name = 
REMARK  3 active torsions:
REMARK  status: ('A' for Active; 'I' for Inactive)
REMARK    1  A    between atoms: C_2  and  C_14
REMARK    2  A    between atoms: N_3  and  C_4
REMARK    3  A    between atoms: C_7  and  C_8
REMARK                            x       y       z     vdW  Elec       q    Type
REMARK                         _______ _______ _______ _____ _____    ______ ____
ROOT
ATOM      1  O   UNL     1       0.785   5.067  20.500  0.00  0.00    +0.000 OA
ATOM      2  C   UNL     1       1.948   5.316  20.193  0.00  0.00    +0.000 C 
ATOM      3  N   UNL     1       2.459   6.595  20.055  0.00  0.00    +0.000 N 
ATOM      4  H   UNL     1       3.341   6.700  19.569  0.00  0.00    +0.000 HD
ENDROOT
BRANCH   2   5
ATOM      5  C   UNL     1       2.914   4.180  19.852  0.00  0.00    +0.000 C 
ATOM      6  C   UNL     1       4.359   4.705  19.922  0.00  0.00    +0.000 C 
ATOM      7  C   UNL     1       4.685   5.637  18.750  0.00  0.00    +0.000 C 
ATOM      8  N   UNL     1       4.427   4.920  17.511  0.00  0.00    +0.000 N 
ATOM      9  C   UNL     1       5.333   4.881  16.472  0.00  0.00    +0.000 A 
ATOM     10  C   UNL     1       6.374   5.809  16.318  0.00  0.00    +0.000 A 
ATOM     11  N   UNL     1       7.325   5.761  15.345  0.00  0.00    +0.000 NA
ATOM     12  C   UNL     1       7.208   4.723  14.498  0.00  0.00    +0.000 A 
ATOM     13  C   UNL     1       6.188   3.799  14.612  0.00  0.00    +0.000 A 
ATOM     14  N   UNL     1       5.240   3.867  15.578  0.00  0.00    +0.000 NA
ATOM     15  C   UNL     1       3.074   4.409  17.307  0.00  0.00    +0.000 C 
ATOM     16  C   UNL     1       2.665   3.521  18.487  0.00  0.00    +0.000 C 
ENDBRANCH   2   5
BRANCH   3  17
ATOM     17  C   UNL     1       1.767   7.784  20.396  0.00  0.00    +0.000 A 
ATOM     18  C   UNL     1       1.375   8.084  21.704  0.00  0.00    +0.000 A 
ATOM     19  C   UNL     1       0.700   9.268  22.006  0.00  0.00    +0.000 A 
ATOM     20  C   UNL     1       0.410  10.197  21.004  0.00  0.00    +0.000 A 
ATOM     21  C   UNL     1       0.794   9.900  19.687  0.00  0.00    +0.000 A 
ATOM     22  C   UNL     1       1.473   8.707  19.387  0.00  0.00    +0.000 A 
BRANCH  20  23
ATOM     23  C   UNL     1      -0.274  11.498  21.343  0.00  0.00    +0.000 C 
ATOM     24  F   UNL     1      -0.639  11.597  22.653  0.00  0.00    +0.000 F 
ATOM     25  F   UNL     1       0.522  12.576  21.100  0.00  0.00    +0.000 F 
ATOM     26  F   UNL     1      -1.411  11.700  20.623  0.00  0.00    +0.000 F 
ENDBRANCH  20  23
ENDBRANCH   3  17
TORSDOF 3
ENDMDL
