MODEL 1
REMARK VINA RESULT:      -7.5      0.000      0.000
REMARK  Name = 
REMARK  1 active torsions:
REMARK  status: ('A' for Active; 'I' for Inactive)
REMARK    1  A    between atoms: N_10  and  C_11
REMARK                            x       y       z     vdW  Elec       q    Type
REMARK                         _______ _______ _______ _____ _____    ______ ____
ROOT
ATOM      1 CL   UNL     1       5.174   3.678  12.797  0.00  0.00    +0.000 Cl
ATOM      2  C   UNL     1       5.804   4.234  14.280  0.00  0.00    +0.000 A 
ATOM      3  N   UNL     1       7.102   4.537  14.305  0.00  0.00    +0.000 NA
ATOM      4  C   UNL     1       7.563   4.955  15.506  0.00  0.00    +0.000 A 
ATOM      5  C   UNL     1       6.812   5.078  16.656  0.00  0.00    +0.000 A 
ATOM      6  N   UNL     1       7.361   5.489  17.814  0.00  0.00    +0.000 NA
ATOM      7  C   UNL     1       6.534   5.557  18.859  0.00  0.00    +0.000 A 
ATOM      8  N   UNL     1       5.239   5.244  18.839  0.00  0.00    +0.000 NA
ATOM      9  C   UNL     1       4.723   4.826  17.659  0.00  0.00    +0.000 A 
ATOM     10  N   UNL     1       3.324   4.546  17.589  0.00  0.00    +0.000 N 
ATOM     11  C   UNL     1       5.473   4.729  16.485  0.00  0.00    +0.000 A 
ATOM     12  N   UNL     1       4.950   4.301  15.307  0.00  0.00    +0.000 NA
ATOM     13  H   UNL     1       3.141   4.004  16.743  0.00  0.00    +0.000 HD
ENDROOT
BRANCH  10  14
ATOM     14  C   UNL     1       2.544   4.050  18.658  0.00  0.00    +0.000 A 
ATOM     15  C   UNL     1       2.475   2.667  18.864  0.00  0.00    +0.000 A 
ATOM     16  C   UNL     1       1.757   2.140  19.941  0.00  0.00    +0.000 A 
ATOM     17  C   UNL     1       1.127   2.993  20.845  0.00  0.00    +0.000 A 
ATOM     18  C   UNL     1       1.223   4.372  20.678  0.00  0.00    +0.000 A 
ATOM     19  C   UNL     1       1.935   4.894  19.595  0.00  0.00    +0.000 A 
ENDBRANCH  10  14
TORSDOF 1
ENDMDL
MODEL 2
REMARK VINA RESULT:      -7.5      0.212      1.153
REMARK  Name = 
REMARK  1 active torsions:
REMARK  status: ('A' for Active; 'I' for Inactive)
REMARK    1  A    between atoms: N_10  and  C_11
REMARK                            x       y       z     vdW  Elec       q    Type
REMARK                         _______ _______ _______ _____ _____    ______ ____
ROOT
ATOM      1 CL   UNL     1       5.043   3.616  12.655  0.00  0.00    +0.000 Cl
ATOM      2  C   UNL     1       5.744   4.198  14.095  0.00  0.00    +0.000 A 
ATOM      3  N   UNL     1       7.040   4.512  14.047  0.00  0.00    +0.000 NA
ATOM      4  C   UNL     1       7.559   4.951  15.217  0.00  0.00    +0.000 A 
ATOM      5  C   UNL     1       6.867   5.084  16.402  0.00  0.00    +0.000 A 
ATOM      6  N   UNL     1       7.472   5.517  17.525  0.00  0.00    +0.000 NA
ATOM      7  C   UNL     1       6.699   5.593  18.611  0.00  0.00    +0.000 A 
ATOM      8  N   UNL     1       5.408   5.269  18.662  0.00  0.00    +0.000 NA
ATOM      9  C   UNL     1       4.835   4.830  17.517  0.00  0.00    +0.000 A 
ATOM     10  N   UNL     1       3.437   4.538  17.523  0.00  0.00    +0.000 N 
ATOM     11  C   UNL     1       5.524   4.722  16.307  0.00  0.00    +0.000 A 
ATOM     12  N   UNL     1       4.944   4.273  15.164  0.00  0.00    +0.000 NA
ATOM     13  H   UNL     1       3.215   3.981  16.696  0.00  0.00    +0.000 HD
ENDROOT
BRANCH  10  14
ATOM     14  C   UNL     1       2.718   4.051  18.639  0.00  0.00    +0.000 A 
ATOM     15  C   UNL     1       2.028   4.959  19.451  0.00  0.00    +0.000 A 
ATOM     16  C   UNL     1       1.263   4.512  20.532  0.00  0.00    +0.000 A 
ATOM     17  C   UNL     1       1.151   3.147  20.792  0.00  0.00    +0.000 A 
ATOM     18  C   UNL     1       1.796   2.231  19.966  0.00  0.00    +0.000 A 
ATOM     19  C   UNL     1       2.567   2.681  18.892  0.00  0.00    +0.000 A 
ENDBRANCH  10  14
TORSDOF 1
ENDMDL
MODEL 3
REMARK VINA RESULT:      -7.1      5.054      6.863
REMARK  Name = 
REMARK  1 active torsions:
REMARK  status: ('A' for Active; 'I' for Inactive)
REMARK    1  A    between atoms: N_10  and  C_11
REMARK                            x       y       z     vdW  Elec       q    Type
REMARK                         _______ _______ _______ _____ _____    ______ ____
ROOT
ATOM      1 CL   UNL     1      -0.391   9.927  23.388  0.00  0.00    +0.000 Cl
ATOM      2  C   UNL     1       0.299   9.783  21.836  0.00  0.00    +0.000 A 
ATOM      3  N   UNL     1       0.196  10.842  21.032  0.00  0.00    +0.000 NA
ATOM      4  C   UNL     1       0.739  10.676  19.805  0.00  0.00    +0.000 A 
ATOM      5  C   UNL     1       1.362   9.533  19.350  0.00  0.00    +0.000 A 
ATOM      6  N   UNL     1       1.863   9.453  18.103  0.00  0.00    +0.000 NA
ATOM      7  C   UNL     1       2.431   8.291  17.777  0.00  0.00    +0.000 A 
ATOM      8  N   UNL     1       2.526   7.228  18.575  0.00  0.00    +0.000 NA
ATOM      9  C   UNL     1       2.003   7.341  19.819  0.00  0.00    +0.000 A 
ATOM     10  N   UNL     1       2.147   6.243  20.720  0.00  0.00    +0.000 N 
ATOM     11  C   UNL     1       1.399   8.507  20.294  0.00  0.00    +0.000 A 
ATOM     12  N   UNL     1       0.870   8.610  21.541  0.00  0.00    +0.000 NA
ATOM     13  H   UNL     1       1.492   6.367  21.494  0.00  0.00    +0.000 HD
ENDROOT
BRANCH  10  14
ATOM     14  C   UNL     1       2.187   4.882  20.337  0.00  0.00    +0.000 A 
ATOM     15  C   UNL     1       0.987   4.167  20.243  0.00  0.00    +0.000 A 
ATOM     16  C   UNL     1       0.980   2.835  19.818  0.00  0.00    +0.000 A 
ATOM     17  C   UNL     1       2.171   2.214  19.448  0.00  0.00    +0.000 A 
ATOM     18  C   UNL     1       3.367   2.926  19.495  0.00  0.00    +0.000 A 
ATOM     19  C   UNL     1       3.371   4.254  19.929  0.00  0.00    +0.000 A 
ENDBRANCH  10  14
TORSDOF 1
ENDMDL
MODEL 4
REMARK VINA RESULT:      -7.1      2.255      6.011
REMARK  Name = 
REMARK  1 active torsions:
REMARK  status: ('A' for Active; 'I' for Inactive)
REMARK    1  A    between atoms: N_10  and  C_11
REMARK                            x       y       z     vdW  Elec       q    Type
REMARK                         _______ _______ _______ _____ _____    ______ ____
ROOT
ATOM      1 CL   UNL     1       1.299   3.795  18.064  0.00  0.00    +0.000 Cl
ATOM      2  C   UNL     1       2.930   4.181  18.370  0.00  0.00    +0.000 A 
ATOM      3  N   UNL     1       3.220   4.641  19.588  0.00  0.00    +0.000 NA
ATOM      4  C   UNL     1       4.522   4.954  19.780  0.00  0.00    +0.000 A 
ATOM      5  C   UNL     1       5.523   4.836  18.839  0.00  0.00    +0.000 A 
ATOM      6  N   UNL     1       6.793   5.185  19.116  0.00  0.00    +0.000 NA
ATOM      7  C   UNL     1       7.669   5.036  18.120  0.00  0.00    +0.000 A 
ATOM      8  N   UNL     1       7.379   4.587  16.900  0.00  0.00    +0.000 NA
ATOM      9  C   UNL     1       6.090   4.253  16.654  0.00  0.00    +0.000 A 
ATOM     10  N   UNL     1       5.760   3.706  15.377  0.00  0.00    +0.000 N 
ATOM     11  C   UNL     1       5.079   4.341  17.613  0.00  0.00    +0.000 A 
ATOM     12  N   UNL     1       3.786   4.012  17.357  0.00  0.00    +0.000 NA
ATOM     13  H   UNL     1       4.747   3.756  15.252  0.00  0.00    +0.000 HD
ENDROOT
BRANCH  10  14
ATOM     14  C   UNL     1       6.412   4.030  14.165  0.00  0.00    +0.000 A 
ATOM     15  C   UNL     1       6.046   3.353  12.995  0.00  0.00    +0.000 A 
ATOM     16  C   UNL     1       6.631   3.681  11.768  0.00  0.00    +0.000 A 
ATOM     17  C   UNL     1       7.562   4.715  11.692  0.00  0.00    +0.000 A 
ATOM     18  C   UNL     1       7.902   5.426  12.840  0.00  0.00    +0.000 A 
ATOM     19  C   UNL     1       7.323   5.089  14.065  0.00  0.00    +0.000 A 
ENDBRANCH  10  14
TORSDOF 1
ENDMDL
MODEL 5
REMARK VINA RESULT:      -7.0      5.046      6.871
REMARK  Name = 
REMARK  1 active torsions:
REMARK  status: ('A' for Active; 'I' for Inactive)
REMARK    1  A    between atoms: N_10  and  C_11
REMARK                            x       y       z     vdW  Elec       q    Type
REMARK                         _______ _______ _______ _____ _____    ______ ____
ROOT
ATOM      1 CL   UNL     1      -0.340   9.681  23.520  0.00  0.00    +0.000 Cl
ATOM      2  C   UNL     1       0.305   9.636  21.943  0.00  0.00    +0.000 A 
ATOM      3  N   UNL     1       0.160  10.736  21.204  0.00  0.00    +0.000 NA
ATOM      4  C   UNL     1       0.669  10.649  19.954  0.00  0.00    +0.000 A 
ATOM      5  C   UNL     1       1.296   9.544  19.417  0.00  0.00    +0.000 A 
ATOM      6  N   UNL     1       1.760   9.543  18.153  0.00  0.00    +0.000 NA
ATOM      7  C   UNL     1       2.337   8.411  17.745  0.00  0.00    +0.000 A 
ATOM      8  N   UNL     1       2.473   7.308  18.479  0.00  0.00    +0.000 NA
ATOM      9  C   UNL     1       1.987   7.342  19.743  0.00  0.00    +0.000 A 
ATOM     10  N   UNL     1       2.177   6.198  20.576  0.00  0.00    +0.000 N 
ATOM     11  C   UNL     1       1.379   8.468  20.300  0.00  0.00    +0.000 A 
ATOM     12  N   UNL     1       0.887   8.492  21.566  0.00  0.00    +0.000 NA
ATOM     13  H   UNL     1       1.544   6.267  21.375  0.00  0.00    +0.000 HD
ENDROOT
BRANCH  10  14
ATOM     14  C   UNL     1       2.228   4.861  20.116  0.00  0.00    +0.000 A 
ATOM     15  C   UNL     1       3.476   4.281  19.857  0.00  0.00    +0.000 A 
ATOM     16  C   UNL     1       3.571   2.946  19.451  0.00  0.00    +0.000 A 
ATOM     17  C   UNL     1       2.421   2.167  19.334  0.00  0.00    +0.000 A 
ATOM     18  C   UNL     1       1.178   2.720  19.631  0.00  0.00    +0.000 A 
ATOM     19  C   UNL     1       1.086   4.056  20.028  0.00  0.00    +0.000 A 
ENDBRANCH  10  14
TORSDOF 1
ENDMDL
MODEL 6
REMARK VINA RESULT:      -6.9      1.118      1.207
REMARK  Name = 
REMARK  1 active torsions:
REMARK  status: ('A' for Active; 'I' for Inactive)
REMARK    1  A    between atoms: N_10  and  C_11
REMARK                            x       y       z     vdW  Elec       q    Type
REMARK                         _______ _______ _______ _____ _____    ______ ____
ROOT
ATOM      1 CL   UNL     1       5.383   2.869  11.994  0.00  0.00    +0.000 Cl
ATOM      2  C   UNL     1       5.936   3.824  13.292  0.00  0.00    +0.000 A 
ATOM      3  N   UNL     1       7.128   4.405  13.145  0.00  0.00    +0.000 NA
ATOM      4  C   UNL     1       7.536   5.137  14.207  0.00  0.00    +0.000 A 
ATOM      5  C   UNL     1       6.833   5.309  15.381  0.00  0.00    +0.000 A 
ATOM      6  N   UNL     1       7.325   6.046  16.394  0.00  0.00    +0.000 NA
ATOM      7  C   UNL     1       6.556   6.129  17.482  0.00  0.00    +0.000 A 
ATOM      8  N   UNL     1       5.371   5.540  17.634  0.00  0.00    +0.000 NA
ATOM      9  C   UNL     1       4.911   4.800  16.598  0.00  0.00    +0.000 A 
ATOM     10  N   UNL     1       3.614   4.210  16.705  0.00  0.00    +0.000 N 
ATOM     11  C   UNL     1       5.605   4.648  15.396  0.00  0.00    +0.000 A 
ATOM     12  N   UNL     1       5.140   3.896  14.365  0.00  0.00    +0.000 NA
ATOM     13  H   UNL     1       3.523   3.488  15.988  0.00  0.00    +0.000 HD
ENDROOT
BRANCH  10  14
ATOM     14  C   UNL     1       3.024   3.769  17.912  0.00  0.00    +0.000 A 
ATOM     15  C   UNL     1       3.698   2.820  18.690  0.00  0.00    +0.000 A 
ATOM     16  C   UNL     1       3.172   2.398  19.915  0.00  0.00    +0.000 A 
ATOM     17  C   UNL     1       1.982   2.945  20.391  0.00  0.00    +0.000 A 
ATOM     18  C   UNL     1       1.324   3.920  19.647  0.00  0.00    +0.000 A 
ATOM     19  C   UNL     1       1.847   4.334  18.421  0.00  0.00    +0.000 A 
ENDBRANCH  10  14
TORSDOF 1
ENDMDL
MODEL 7
REMARK VINA RESULT:      -6.8      2.267      6.084
REMARK  Name = 
REMARK  1 active torsions:
REMARK  status: ('A' for Active; 'I' for Inactive)
REMARK    1  A    between atoms: N_10  and  C_11
REMARK                            x       y       z     vdW  Elec       q    Type
REMARK                         _______ _______ _______ _____ _____    ______ ____
ROOT
ATOM      1 CL   UNL     1       1.235   3.708  18.129  0.00  0.00    +0.000 Cl
ATOM      2  C   UNL     1       2.870   4.113  18.389  0.00  0.00    +0.000 A 
ATOM      3  N   UNL     1       3.190   4.571  19.600  0.00  0.00    +0.000 NA
ATOM      4  C   UNL     1       4.493   4.899  19.755  0.00  0.00    +0.000 A 
ATOM      5  C   UNL     1       5.467   4.799  18.784  0.00  0.00    +0.000 A 
ATOM      6  N   UNL     1       6.741   5.163  19.025  0.00  0.00    +0.000 NA
ATOM      7  C   UNL     1       7.588   5.031  18.003  0.00  0.00    +0.000 A 
ATOM      8  N   UNL     1       7.268   4.584  16.790  0.00  0.00    +0.000 NA
ATOM      9  C   UNL     1       5.976   4.235  16.580  0.00  0.00    +0.000 A 
ATOM     10  N   UNL     1       5.615   3.691  15.310  0.00  0.00    +0.000 N 
ATOM     11  C   UNL     1       4.993   4.305  17.569  0.00  0.00    +0.000 A 
ATOM     12  N   UNL     1       3.698   3.961  17.349  0.00  0.00    +0.000 NA
ATOM     13  H   UNL     1       4.599   3.728  15.215  0.00  0.00    +0.000 HD
ENDROOT
BRANCH  10  14
ATOM     14  C   UNL     1       6.227   4.030  14.081  0.00  0.00    +0.000 A 
ATOM     15  C   UNL     1       7.215   5.023  14.066  0.00  0.00    +0.000 A 
ATOM     16  C   UNL     1       7.880   5.350  12.880  0.00  0.00    +0.000 A 
ATOM     17  C   UNL     1       7.588   4.664  11.703  0.00  0.00    +0.000 A 
ATOM     18  C   UNL     1       6.639   3.645  11.714  0.00  0.00    +0.000 A 
ATOM     19  C   UNL     1       5.970   3.327  12.898  0.00  0.00    +0.000 A 
ENDBRANCH  10  14
TORSDOF 1
ENDMDL
MODEL 8
REMARK VINA RESULT:      -6.7      3.535      5.382
REMARK  Name = 
REMARK  1 active torsions:
REMARK  status: ('A' for Active; 'I' for Inactive)
REMARK    1  A    between atoms: N_10  and  C_11
REMARK                            x       y       z     vdW  Elec       q    Type
REMARK                         _______ _______ _______ _____ _____    ______ ____
ROOT
ATOM      1 CL   UNL     1       7.070   5.293  18.552  0.00  0.00    +0.000 Cl
ATOM      2  C   UNL     1       5.549   4.668  18.997  0.00  0.00    +0.000 A 
ATOM      3  N   UNL     1       5.379   3.351  18.866  0.00  0.00    +0.000 NA
ATOM      4  C   UNL     1       4.151   2.902  19.211  0.00  0.00    +0.000 A 
ATOM      5  C   UNL     1       3.108   3.683  19.666  0.00  0.00    +0.000 A 
ATOM      6  N   UNL     1       1.911   3.149  19.974  0.00  0.00    +0.000 NA
ATOM      7  C   UNL     1       0.980   4.008  20.391  0.00  0.00    +0.000 A 
ATOM      8  N   UNL     1       1.145   5.324  20.512  0.00  0.00    +0.000 NA
ATOM      9  C   UNL     1       2.359   5.828  20.186  0.00  0.00    +0.000 A 
ATOM     10  N   UNL     1       2.587   7.226  20.368  0.00  0.00    +0.000 N 
ATOM     11  C   UNL     1       3.426   5.037  19.755  0.00  0.00    +0.000 A 
ATOM     12  N   UNL     1       4.638   5.551  19.422  0.00  0.00    +0.000 NA
ATOM     13  H   UNL     1       3.423   7.491  19.844  0.00  0.00    +0.000 HD
ENDROOT
BRANCH  10  14
ATOM     14  C   UNL     1       1.599   8.230  20.241  0.00  0.00    +0.000 A 
ATOM     15  C   UNL     1       1.432   8.864  19.004  0.00  0.00    +0.000 A 
ATOM     16  C   UNL     1       0.432   9.825  18.824  0.00  0.00    +0.000 A 
ATOM     17  C   UNL     1      -0.434  10.137  19.870  0.00  0.00    +0.000 A 
ATOM     18  C   UNL     1      -0.306   9.482  21.092  0.00  0.00    +0.000 A 
ATOM     19  C   UNL     1       0.699   8.529  21.271  0.00  0.00    +0.000 A 
ENDBRANCH  10  14
TORSDOF 1
ENDMDL
MODEL 9
REMARK VINA RESULT:      -6.7      3.624      5.487
REMARK  Name = 
REMARK  1 active torsions:
REMARK  status: ('A' for Active; 'I' for Inactive)
REMARK    1  A    between atoms: N_10  and  C_11
REMARK                            x       y       z     vdW  Elec       q    Type
REMARK                         _______ _______ _______ _____ _____    ______ ____
ROOT
ATOM      1 CL   UNL     1       7.188   5.528  19.036  0.00  0.00    +0.000 Cl
ATOM      2  C   UNL     1       5.650   4.836  19.278  0.00  0.00    +0.000 A 
ATOM      3  N   UNL     1       5.540   3.526  19.055  0.00  0.00    +0.000 NA
ATOM      4  C   UNL     1       4.298   3.023  19.239  0.00  0.00    +0.000 A 
ATOM      5  C   UNL     1       3.187   3.746  19.621  0.00  0.00    +0.000 A 
ATOM      6  N   UNL     1       1.983   3.162  19.767  0.00  0.00    +0.000 NA
ATOM      7  C   UNL     1       0.984   3.968  20.129  0.00  0.00    +0.000 A 
ATOM      8  N   UNL     1       1.090   5.279  20.341  0.00  0.00    +0.000 NA
ATOM      9  C   UNL     1       2.314   5.835  20.177  0.00  0.00    +0.000 A 
ATOM     10  N   UNL     1       2.474   7.225  20.461  0.00  0.00    +0.000 N 
ATOM     11  C   UNL     1       3.447   5.101  19.820  0.00  0.00    +0.000 A 
ATOM     12  N   UNL     1       4.670   5.667  19.650  0.00  0.00    +0.000 NA
ATOM     13  H   UNL     1       3.352   7.545  20.047  0.00  0.00    +0.000 HD
ENDROOT
BRANCH  10  14
ATOM     14  C   UNL     1       1.473   8.208  20.285  0.00  0.00    +0.000 A 
ATOM     15  C   UNL     1       0.698   8.592  21.386  0.00  0.00    +0.000 A 
ATOM     16  C   UNL     1      -0.266   9.597  21.264  0.00  0.00    +0.000 A 
ATOM     17  C   UNL     1      -0.443  10.253  20.047  0.00  0.00    +0.000 A 
ATOM     18  C   UNL     1       0.351   9.910  18.956  0.00  0.00    +0.000 A 
ATOM     19  C   UNL     1       1.307   8.900  19.078  0.00  0.00    +0.000 A 
ENDBRANCH  10  14
TORSDOF 1
ENDMDL
