MODEL 1
REMARK VINA RESULT:      -5.1      0.000      0.000
REMARK  Name = 
REMARK  3 active torsions:
REMARK  status: ('A' for Active; 'I' for Inactive)
REMARK    1  A    between atoms: C_2  and  C_3
REMARK    2  A    between atoms: C_2  and  C_5
REMARK    3  A    between atoms: C_3  and  N_4
REMARK                            x       y       z     vdW  Elec       q    Type
REMARK                         _______ _______ _______ _____ _____    ______ ____
ROOT
ATOM      1  C   UNL     1       6.005   4.139  15.391  0.00  0.00    +0.000 C 
ATOM      2  C   UNL     1       5.764   4.450  16.677  0.00  0.00    +0.000 C 
ENDROOT
BRANCH   2   3
ATOM      3  C   UNL     1       4.366   4.437  17.140  0.00  0.00    +0.000 A 
ATOM      4  C   UNL     1       3.756   5.613  17.590  0.00  0.00    +0.000 A 
ATOM      5  C   UNL     1       2.435   5.591  18.044  0.00  0.00    +0.000 A 
ATOM      6  C   UNL     1       1.719   4.393  18.052  0.00  0.00    +0.000 A 
ATOM      7  C   UNL     1       2.322   3.218  17.609  0.00  0.00    +0.000 A 
ATOM      8  C   UNL     1       3.643   3.238  17.156  0.00  0.00    +0.000 A 
ENDBRANCH   2   3
BRANCH   2   9
ATOM      9  C   UNL     1       6.790   4.836  17.716  0.00  0.00    +0.000 C 
BRANCH   9  10
ATOM     10  N   UNL     1       8.063   4.129  17.595  0.00  0.00    +0.000 NA
ATOM     11  H   UNL     1       8.400   4.232  16.640  0.00  0.00    +0.000 HD
ATOM     12  H   UNL     1       7.898   3.133  17.728  0.00  0.00    +0.000 HD
ENDBRANCH   9  10
ENDBRANCH   2   9
TORSDOF 3
ENDMDL
MODEL 2
REMARK VINA RESULT:      -5.1      1.754      2.917
REMARK  Name = 
REMARK  3 active torsions:
REMARK  status: ('A' for Active; 'I' for Inactive)
REMARK    1  A    between atoms: C_2  and  C_3
REMARK    2  A    between atoms: C_2  and  C_5
REMARK    3  A    between atoms: C_3  and  N_4
REMARK                            x       y       z     vdW  Elec       q    Type
REMARK                         _______ _______ _______ _____ _____    ______ ____
ROOT
ATOM      1  C   UNL     1       3.635   6.612  17.779  0.00  0.00    +0.000 C 
ATOM      2  C   UNL     1       3.844   5.304  18.011  0.00  0.00    +0.000 C 
ENDROOT
BRANCH   2   3
ATOM      3  C   UNL     1       2.770   4.539  18.665  0.00  0.00    +0.000 A 
ATOM      4  C   UNL     1       2.135   3.488  17.993  0.00  0.00    +0.000 A 
ATOM      5  C   UNL     1       1.105   2.776  18.613  0.00  0.00    +0.000 A 
ATOM      6  C   UNL     1       0.704   3.113  19.906  0.00  0.00    +0.000 A 
ATOM      7  C   UNL     1       1.328   4.161  20.580  0.00  0.00    +0.000 A 
ATOM      8  C   UNL     1       2.358   4.874  19.961  0.00  0.00    +0.000 A 
ENDBRANCH   2   3
BRANCH   2   9
ATOM      9  C   UNL     1       5.093   4.522  17.682  0.00  0.00    +0.000 C 
BRANCH   9  10
ATOM     10  N   UNL     1       5.682   3.821  18.821  0.00  0.00    +0.000 NA
ATOM     11  H   UNL     1       6.166   2.995  18.477  0.00  0.00    +0.000 HD
ATOM     12  H   UNL     1       4.931   3.478  19.417  0.00  0.00    +0.000 HD
ENDBRANCH   9  10
ENDBRANCH   2   9
TORSDOF 3
ENDMDL
MODEL 3
REMARK VINA RESULT:      -5.1      0.990      1.947
REMARK  Name = 
REMARK  3 active torsions:
REMARK  status: ('A' for Active; 'I' for Inactive)
REMARK    1  A    between atoms: C_2  and  C_3
REMARK    2  A    between atoms: C_2  and  C_5
REMARK    3  A    between atoms: C_3  and  N_4
REMARK                            x       y       z     vdW  Elec       q    Type
REMARK                         _______ _______ _______ _____ _____    ______ ____
ROOT
ATOM      1  C   UNL     1       6.233   6.922  17.090  0.00  0.00    +0.000 C 
ATOM      2  C   UNL     1       5.956   5.610  16.984  0.00  0.00    +0.000 C 
ENDROOT
BRANCH   2   3
ATOM      3  C   UNL     1       4.581   5.170  17.272  0.00  0.00    +0.000 A 
ATOM      4  C   UNL     1       4.173   3.865  16.968  0.00  0.00    +0.000 A 
ATOM      5  C   UNL     1       2.863   3.459  17.229  0.00  0.00    +0.000 A 
ATOM      6  C   UNL     1       1.952   4.354  17.791  0.00  0.00    +0.000 A 
ATOM      7  C   UNL     1       2.349   5.656  18.092  0.00  0.00    +0.000 A 
ATOM      8  C   UNL     1       3.659   6.064  17.832  0.00  0.00    +0.000 A 
ENDBRANCH   2   3
BRANCH   2   9
ATOM      9  C   UNL     1       6.925   4.514  16.609  0.00  0.00    +0.000 C 
BRANCH   9  10
ATOM     10  N   UNL     1       7.964   4.265  17.606  0.00  0.00    +0.000 NA
ATOM     11  H   UNL     1       7.822   3.335  17.995  0.00  0.00    +0.000 HD
ATOM     12  H   UNL     1       7.838   4.915  18.379  0.00  0.00    +0.000 HD
ENDBRANCH   9  10
ENDBRANCH   2   9
TORSDOF 3
ENDMDL
MODEL 4
REMARK VINA RESULT:      -5.0      3.200      4.126
REMARK  Name = 
REMARK  3 active torsions:
REMARK  status: ('A' for Active; 'I' for Inactive)
REMARK    1  A    between atoms: C_2  and  C_3
REMARK    2  A    between atoms: C_2  and  C_5
REMARK    3  A    between atoms: C_3  and  N_4
REMARK                            x       y       z     vdW  Elec       q    Type
REMARK                         _______ _______ _______ _____ _____    ______ ____
ROOT
ATOM      1  C   UNL     1       4.070   6.516  17.548  0.00  0.00    +0.000 C 
ATOM      2  C   UNL     1       2.940   6.678  18.260  0.00  0.00    +0.000 C 
ENDROOT
BRANCH   2   3
ATOM      3  C   UNL     1       2.272   5.472  18.776  0.00  0.00    +0.000 A 
ATOM      4  C   UNL     1       1.920   4.429  17.911  0.00  0.00    +0.000 A 
ATOM      5  C   UNL     1       1.271   3.295  18.403  0.00  0.00    +0.000 A 
ATOM      6  C   UNL     1       0.967   3.199  19.762  0.00  0.00    +0.000 A 
ATOM      7  C   UNL     1       1.310   4.235  20.628  0.00  0.00    +0.000 A 
ATOM      8  C   UNL     1       1.959   5.370  20.137  0.00  0.00    +0.000 A 
ENDBRANCH   2   3
BRANCH   2   9
ATOM      9  C   UNL     1       2.259   7.987  18.579  0.00  0.00    +0.000 C 
BRANCH   9  10
ATOM     10  N   UNL     1       2.197   8.922  17.458  0.00  0.00    +0.000 NA
ATOM     11  H   UNL     1       2.246   9.870  17.825  0.00  0.00    +0.000 HD
ATOM     12  H   UNL     1       1.284   8.840  17.014  0.00  0.00    +0.000 HD
ENDBRANCH   9  10
ENDBRANCH   2   9
TORSDOF 3
ENDMDL
MODEL 5
REMARK VINA RESULT:      -5.0      1.656      2.424
REMARK  Name = 
REMARK  3 active torsions:
REMARK  status: ('A' for Active; 'I' for Inactive)
REMARK    1  A    between atoms: C_2  and  C_3
REMARK    2  A    between atoms: C_2  and  C_5
REMARK    3  A    between atoms: C_3  and  N_4
REMARK                            x       y       z     vdW  Elec       q    Type
REMARK                         _______ _______ _______ _____ _____    ______ ____
ROOT
ATOM      1  C   UNL     1       4.047   6.747  17.502  0.00  0.00    +0.000 C 
ATOM      2  C   UNL     1       4.087   5.437  17.801  0.00  0.00    +0.000 C 
ENDROOT
BRANCH   2   3
ATOM      3  C   UNL     1       2.982   4.876  18.595  0.00  0.00    +0.000 A 
ATOM      4  C   UNL     1       2.737   5.334  19.896  0.00  0.00    +0.000 A 
ATOM      5  C   UNL     1       1.698   4.787  20.650  0.00  0.00    +0.000 A 
ATOM      6  C   UNL     1       0.900   3.777  20.112  0.00  0.00    +0.000 A 
ATOM      7  C   UNL     1       1.140   3.313  18.820  0.00  0.00    +0.000 A 
ATOM      8  C   UNL     1       2.180   3.859  18.064  0.00  0.00    +0.000 A 
ENDBRANCH   2   3
BRANCH   2   9
ATOM      9  C   UNL     1       5.174   4.461  17.418  0.00  0.00    +0.000 C 
BRANCH   9  10
ATOM     10  N   UNL     1       5.902   3.895  18.552  0.00  0.00    +0.000 NA
ATOM     11  H   UNL     1       6.598   3.244  18.196  0.00  0.00    +0.000 HD
ATOM     12  H   UNL     1       5.257   3.339  19.110  0.00  0.00    +0.000 HD
ENDBRANCH   9  10
ENDBRANCH   2   9
TORSDOF 3
ENDMDL
MODEL 6
REMARK VINA RESULT:      -5.0      0.798      1.737
REMARK  Name = 
REMARK  3 active torsions:
REMARK  status: ('A' for Active; 'I' for Inactive)
REMARK    1  A    between atoms: C_2  and  C_3
REMARK    2  A    between atoms: C_2  and  C_5
REMARK    3  A    between atoms: C_3  and  N_4
REMARK                            x       y       z     vdW  Elec       q    Type
REMARK                         _______ _______ _______ _____ _____    ______ ____
ROOT
ATOM      1  C   UNL     1       5.854   4.066  14.744  0.00  0.00    +0.000 C 
ATOM      2  C   UNL     1       5.950   4.481  16.020  0.00  0.00    +0.000 C 
ENDROOT
BRANCH   2   3
ATOM      3  C   UNL     1       4.703   4.752  16.753  0.00  0.00    +0.000 A 
ATOM      4  C   UNL     1       3.806   3.714  17.036  0.00  0.00    +0.000 A 
ATOM      5  C   UNL     1       2.616   3.980  17.717  0.00  0.00    +0.000 A 
ATOM      6  C   UNL     1       2.315   5.283  18.117  0.00  0.00    +0.000 A 
ATOM      7  C   UNL     1       3.201   6.321  17.835  0.00  0.00    +0.000 A 
ATOM      8  C   UNL     1       4.391   6.057  17.153  0.00  0.00    +0.000 A 
ENDBRANCH   2   3
BRANCH   2   9
ATOM      9  C   UNL     1       7.225   4.722  16.794  0.00  0.00    +0.000 C 
BRANCH   9  10
ATOM     10  N   UNL     1       7.195   4.231  18.170  0.00  0.00    +0.000 NA
ATOM     11  H   UNL     1       7.259   5.030  18.798  0.00  0.00    +0.000 HD
ATOM     12  H   UNL     1       8.031   3.675  18.337  0.00  0.00    +0.000 HD
ENDBRANCH   9  10
ENDBRANCH   2   9
TORSDOF 3
ENDMDL
MODEL 7
REMARK VINA RESULT:      -5.0      2.285      3.485
REMARK  Name = 
REMARK  3 active torsions:
REMARK  status: ('A' for Active; 'I' for Inactive)
REMARK    1  A    between atoms: C_2  and  C_3
REMARK    2  A    between atoms: C_2  and  C_5
REMARK    3  A    between atoms: C_3  and  N_4
REMARK                            x       y       z     vdW  Elec       q    Type
REMARK                         _______ _______ _______ _____ _____    ______ ____
ROOT
ATOM      1  C   UNL     1       2.538   7.681  18.077  0.00  0.00    +0.000 C 
ATOM      2  C   UNL     1       3.126   6.472  18.109  0.00  0.00    +0.000 C 
ENDROOT
BRANCH   2   3
ATOM      3  C   UNL     1       2.366   5.350  18.685  0.00  0.00    +0.000 A 
ATOM      4  C   UNL     1       1.965   4.277  17.880  0.00  0.00    +0.000 A 
ATOM      5  C   UNL     1       1.230   3.224  18.428  0.00  0.00    +0.000 A 
ATOM      6  C   UNL     1       0.889   3.239  19.781  0.00  0.00    +0.000 A 
ATOM      7  C   UNL     1       1.281   4.307  20.587  0.00  0.00    +0.000 A 
ATOM      8  C   UNL     1       2.015   5.361  20.041  0.00  0.00    +0.000 A 
ENDBRANCH   2   3
BRANCH   2   9
ATOM      9  C   UNL     1       4.517   6.136  17.626  0.00  0.00    +0.000 C 
BRANCH   9  10
ATOM     10  N   UNL     1       4.850   6.696  16.318  0.00  0.00    +0.000 NA
ATOM     11  H   UNL     1       4.070   7.269  16.004  0.00  0.00    +0.000 HD
ATOM     12  H   UNL     1       4.927   5.935  15.646  0.00  0.00    +0.000 HD
ENDBRANCH   9  10
ENDBRANCH   2   9
TORSDOF 3
ENDMDL
MODEL 8
REMARK VINA RESULT:      -5.0      2.259      3.251
REMARK  Name = 
REMARK  3 active torsions:
REMARK  status: ('A' for Active; 'I' for Inactive)
REMARK    1  A    between atoms: C_2  and  C_3
REMARK    2  A    between atoms: C_2  and  C_5
REMARK    3  A    between atoms: C_3  and  N_4
REMARK                            x       y       z     vdW  Elec       q    Type
REMARK                         _______ _______ _______ _____ _____    ______ ____
ROOT
ATOM      1  C   UNL     1       2.488   7.621  18.073  0.00  0.00    +0.000 C 
ATOM      2  C   UNL     1       3.104   6.430  18.176  0.00  0.00    +0.000 C 
ENDROOT
BRANCH   2   3
ATOM      3  C   UNL     1       2.330   5.297  18.711  0.00  0.00    +0.000 A 
ATOM      4  C   UNL     1       1.949   5.270  20.058  0.00  0.00    +0.000 A 
ATOM      5  C   UNL     1       1.229   4.185  20.563  0.00  0.00    +0.000 A 
ATOM      6  C   UNL     1       0.890   3.121  19.727  0.00  0.00    +0.000 A 
ATOM      7  C   UNL     1       1.270   3.139  18.386  0.00  0.00    +0.000 A 
ATOM      8  C   UNL     1       1.990   4.223  17.879  0.00  0.00    +0.000 A 
ENDBRANCH   2   3
BRANCH   2   9
ATOM      9  C   UNL     1       4.538   6.125  17.813  0.00  0.00    +0.000 C 
BRANCH   9  10
ATOM     10  N   UNL     1       4.837   6.251  16.388  0.00  0.00    +0.000 NA
ATOM     11  H   UNL     1       4.551   7.178  16.080  0.00  0.00    +0.000 HD
ATOM     12  H   UNL     1       4.255   5.593  15.873  0.00  0.00    +0.000 HD
ENDBRANCH   9  10
ENDBRANCH   2   9
TORSDOF 3
ENDMDL
MODEL 9
REMARK VINA RESULT:      -5.0      1.751      2.585
REMARK  Name = 
REMARK  3 active torsions:
REMARK  status: ('A' for Active; 'I' for Inactive)
REMARK    1  A    between atoms: C_2  and  C_3
REMARK    2  A    between atoms: C_2  and  C_5
REMARK    3  A    between atoms: C_3  and  N_4
REMARK                            x       y       z     vdW  Elec       q    Type
REMARK                         _______ _______ _______ _____ _____    ______ ____
ROOT
ATOM      1  C   UNL     1       4.346   3.991  16.665  0.00  0.00    +0.000 C 
ATOM      2  C   UNL     1       4.335   4.113  18.005  0.00  0.00    +0.000 C 
ENDROOT
BRANCH   2   3
ATOM      3  C   UNL     1       3.088   3.790  18.717  0.00  0.00    +0.000 A 
ATOM      4  C   UNL     1       2.174   2.879  18.172  0.00  0.00    +0.000 A 
ATOM      5  C   UNL     1       0.985   2.589  18.844  0.00  0.00    +0.000 A 
ATOM      6  C   UNL     1       0.701   3.209  20.062  0.00  0.00    +0.000 A 
ATOM      7  C   UNL     1       1.604   4.120  20.608  0.00  0.00    +0.000 A 
ATOM      8  C   UNL     1       2.794   4.412  19.936  0.00  0.00    +0.000 A 
ENDBRANCH   2   3
BRANCH   2   9
ATOM      9  C   UNL     1       5.482   4.571  18.875  0.00  0.00    +0.000 C 
BRANCH   9  10
ATOM     10  N   UNL     1       6.805   4.264  18.337  0.00  0.00    +0.000 NA
ATOM     11  H   UNL     1       7.505   4.701  18.933  0.00  0.00    +0.000 HD
ATOM     12  H   UNL     1       6.898   4.705  17.424  0.00  0.00    +0.000 HD
ENDBRANCH   9  10
ENDBRANCH   2   9
TORSDOF 3
ENDMDL
