MODEL 1
REMARK VINA RESULT:      -6.6      0.000      0.000
REMARK  Name = 
REMARK  11 active torsions:
REMARK  status: ('A' for Active; 'I' for Inactive)
REMARK    1  A    between atoms: C_1  and  C_2
REMARK    2  A    between atoms: C_2  and  C_3
REMARK    3  A    between atoms: C_3  and  C_4
REMARK    4  A    between atoms: C_4  and  C_5
REMARK    5  A    between atoms: C_4  and  N_21
REMARK    6  A    between atoms: N_9  and  C_10
REMARK    7  A    between atoms: C_10  and  S_11
REMARK    8  A    between atoms: S_11  and  C_14
REMARK    9  A    between atoms: C_17  and  C_18
REMARK   10  A    between atoms: N_24  and  C_25
REMARK   11  A    between atoms: C_25  and  C_26
REMARK                            x       y       z     vdW  Elec       q    Type
REMARK                         _______ _______ _______ _____ _____    ______ ____
ROOT
ATOM      1  C   UNL     1       3.909   3.347  17.488  0.00  0.00    +0.000 A 
ATOM      2  N   UNL     1       4.041   2.035  17.532  0.00  0.00    +0.000 NA
ATOM      3  N   UNL     1       2.862   1.524  17.987  0.00  0.00    +0.000 NA
ATOM      4  N   UNL     1       2.004   2.494  18.236  0.00  0.00    +0.000 NA
ATOM      5  N   UNL     1       2.685   3.649  18.042  0.00  0.00    +0.000 N 
ENDROOT
BRANCH   1   6
ATOM      6  C   UNL     1       4.916   4.244  16.784  0.00  0.00    +0.000 C 
BRANCH   6   7
ATOM      7  N   UNL     1       5.941   4.816  17.711  0.00  0.00    +0.000 NA
ATOM      8  C   UNL     1       7.287   4.982  17.074  0.00  0.00    +0.000 C 
ATOM      9  C   UNL     1       7.563   6.292  16.275  0.00  0.00    +0.000 C 
ATOM     10  N   UNL     1       7.155   7.536  16.959  0.00  0.00    +0.000 NA
ATOM     11  C   UNL     1       5.757   7.354  17.392  0.00  0.00    +0.000 C 
ATOM     12  C   UNL     1       5.558   6.125  18.303  0.00  0.00    +0.000 C 
BRANCH  10  13
ATOM     13  C   UNL     1       8.088   7.860  18.055  0.00  0.00    +0.000 C 
ATOM     14  C   UNL     1       8.465   9.339  18.145  0.00  0.00    +0.000 C 
ENDBRANCH  10  13
ENDBRANCH   6   7
BRANCH   6  15
ATOM     15  C   UNL     1       5.594   3.531  15.589  0.00  0.00    +0.000 C 
BRANCH  15  17
ATOM     16  C   UNL     1       6.429   3.812  13.245  0.00  0.00    +0.000 C 
ATOM     17  C   UNL     1       5.272   4.092  14.200  0.00  0.00    +0.000 C 
ENDBRANCH  15  17
ENDBRANCH   6  15
ENDBRANCH   1   6
BRANCH   5  18
ATOM     18  C   UNL     1       1.929   4.862  18.193  0.00  0.00    +0.000 C 
BRANCH  18  19
ATOM     19  S   UNL     1       2.111   5.800  19.668  0.00  0.00    +0.000 S 
ATOM     20  O   UNL     1       1.121   5.295  20.602  0.00  0.00    +0.000 OA
ATOM     21  O   UNL     1       3.518   5.735  20.028  0.00  0.00    +0.000 OA
BRANCH  19  22
ATOM     22  C   UNL     1       1.752   7.536  19.528  0.00  0.00    +0.000 A 
ATOM     23  C   UNL     1       1.331   8.374  20.556  0.00  0.00    +0.000 A 
ATOM     24  C   UNL     1       1.174   9.751  20.313  0.00  0.00    +0.000 A 
ATOM     25  C   UNL     1       1.399  10.290  19.040  0.00  0.00    +0.000 A 
ATOM     26  C   UNL     1       1.267  11.761  18.763  0.00  0.00    +0.000 C 
ATOM     27  C   UNL     1       1.761   9.433  18.000  0.00  0.00    +0.000 A 
ATOM     28  C   UNL     1       1.939   8.074  18.246  0.00  0.00    +0.000 A 
ENDBRANCH  19  22
ENDBRANCH  18  19
ENDBRANCH   5  18
TORSDOF 8
ENDMDL
MODEL 2
REMARK VINA RESULT:      -6.5      0.723      1.321
REMARK  Name = 
REMARK  11 active torsions:
REMARK  status: ('A' for Active; 'I' for Inactive)
REMARK    1  A    between atoms: C_1  and  C_2
REMARK    2  A    between atoms: C_2  and  C_3
REMARK    3  A    between atoms: C_3  and  C_4
REMARK    4  A    between atoms: C_4  and  C_5
REMARK    5  A    between atoms: C_4  and  N_21
REMARK    6  A    between atoms: N_9  and  C_10
REMARK    7  A    between atoms: C_10  and  S_11
REMARK    8  A    between atoms: S_11  and  C_14
REMARK    9  A    between atoms: C_17  and  C_18
REMARK   10  A    between atoms: N_24  and  C_25
REMARK   11  A    between atoms: C_25  and  C_26
REMARK                            x       y       z     vdW  Elec       q    Type
REMARK                         _______ _______ _______ _____ _____    ______ ____
ROOT
ATOM      1  C   UNL     1       3.949   3.382  17.537  0.00  0.00    +0.000 A 
ATOM      2  N   UNL     1       4.488   2.181  17.454  0.00  0.00    +0.000 NA
ATOM      3  N   UNL     1       3.607   1.303  18.013  0.00  0.00    +0.000 NA
ATOM      4  N   UNL     1       2.537   1.937  18.449  0.00  0.00    +0.000 NA
ATOM      5  N   UNL     1       2.788   3.255  18.266  0.00  0.00    +0.000 N 
ENDROOT
BRANCH   1   6
ATOM      6  C   UNL     1       4.511   4.581  16.787  0.00  0.00    +0.000 C 
BRANCH   6   7
ATOM      7  N   UNL     1       5.000   5.664  17.694  0.00  0.00    +0.000 NA
ATOM      8  C   UNL     1       6.016   5.190  18.688  0.00  0.00    +0.000 C 
ATOM      9  C   UNL     1       7.511   5.154  18.247  0.00  0.00    +0.000 C 
ATOM     10  N   UNL     1       7.986   6.371  17.558  0.00  0.00    +0.000 NA
ATOM     11  C   UNL     1       7.026   6.661  16.478  0.00  0.00    +0.000 C 
ATOM     12  C   UNL     1       5.578   6.834  16.981  0.00  0.00    +0.000 C 
BRANCH  10  13
ATOM     13  C   UNL     1       8.167   7.478  18.518  0.00  0.00    +0.000 C 
ATOM     14  C   UNL     1       8.211   8.865  17.877  0.00  0.00    +0.000 C 
ENDBRANCH  10  13
ENDBRANCH   6   7
BRANCH   6  15
ATOM     15  C   UNL     1       5.611   4.171  15.778  0.00  0.00    +0.000 C 
BRANCH  15  17
ATOM     16  C   UNL     1       6.412   3.855  13.426  0.00  0.00    +0.000 C 
ATOM     17  C   UNL     1       5.294   4.418  14.299  0.00  0.00    +0.000 C 
ENDBRANCH  15  17
ENDBRANCH   6  15
ENDBRANCH   1   6
BRANCH   5  18
ATOM     18  C   UNL     1       1.722   4.156  18.613  0.00  0.00    +0.000 C 
BRANCH  18  19
ATOM     19  S   UNL     1       1.966   5.294  19.929  0.00  0.00    +0.000 S 
ATOM     20  O   UNL     1       0.870   5.088  20.860  0.00  0.00    +0.000 OA
ATOM     21  O   UNL     1       3.331   5.104  20.393  0.00  0.00    +0.000 OA
BRANCH  19  22
ATOM     22  C   UNL     1       1.864   7.015  19.490  0.00  0.00    +0.000 A 
ATOM     23  C   UNL     1       2.172   7.566  18.250  0.00  0.00    +0.000 A 
ATOM     24  C   UNL     1       1.954   8.938  18.024  0.00  0.00    +0.000 A 
ATOM     25  C   UNL     1       1.464   9.769  19.040  0.00  0.00    +0.000 A 
ATOM     26  C   UNL     1       1.195  11.230  18.814  0.00  0.00    +0.000 C 
ATOM     27  C   UNL     1       1.217   9.219  20.299  0.00  0.00    +0.000 A 
ATOM     28  C   UNL     1       1.411   7.857  20.515  0.00  0.00    +0.000 A 
ENDBRANCH  19  22
ENDBRANCH  18  19
ENDBRANCH   5  18
TORSDOF 8
ENDMDL
MODEL 3
REMARK VINA RESULT:      -6.4      3.523      5.399
REMARK  Name = 
REMARK  11 active torsions:
REMARK  status: ('A' for Active; 'I' for Inactive)
REMARK    1  A    between atoms: C_1  and  C_2
REMARK    2  A    between atoms: C_2  and  C_3
REMARK    3  A    between atoms: C_3  and  C_4
REMARK    4  A    between atoms: C_4  and  C_5
REMARK    5  A    between atoms: C_4  and  N_21
REMARK    6  A    between atoms: N_9  and  C_10
REMARK    7  A    between atoms: C_10  and  S_11
REMARK    8  A    between atoms: S_11  and  C_14
REMARK    9  A    between atoms: C_17  and  C_18
REMARK   10  A    between atoms: N_24  and  C_25
REMARK   11  A    between atoms: C_25  and  C_26
REMARK                            x       y       z     vdW  Elec       q    Type
REMARK                         _______ _______ _______ _____ _____    ______ ____
ROOT
ATOM      1  C   UNL     1       1.865   7.720  18.973  0.00  0.00    +0.000 A 
ATOM      2  N   UNL     1       1.709   8.201  17.754  0.00  0.00    +0.000 NA
ATOM      3  N   UNL     1       1.429   9.530  17.876  0.00  0.00    +0.000 NA
ATOM      4  N   UNL     1       1.400   9.881  19.146  0.00  0.00    +0.000 NA
ATOM      5  N   UNL     1       1.554   8.735  19.850  0.00  0.00    +0.000 N 
ENDROOT
BRANCH   1   6
ATOM      6  C   UNL     1       2.445   6.338  19.236  0.00  0.00    +0.000 C 
BRANCH   6   7
ATOM      7  N   UNL     1       3.937   6.299  19.139  0.00  0.00    +0.000 NA
ATOM      8  C   UNL     1       4.527   5.007  19.614  0.00  0.00    +0.000 C 
ATOM      9  C   UNL     1       4.626   3.829  18.598  0.00  0.00    +0.000 C 
ATOM     10  N   UNL     1       5.170   4.193  17.274  0.00  0.00    +0.000 NA
ATOM     11  C   UNL     1       4.409   5.363  16.799  0.00  0.00    +0.000 C 
ATOM     12  C   UNL     1       4.461   6.559  17.772  0.00  0.00    +0.000 C 
BRANCH  10  13
ATOM     13  C   UNL     1       6.627   4.413  17.351  0.00  0.00    +0.000 C 
ATOM     14  C   UNL     1       7.248   4.973  16.071  0.00  0.00    +0.000 C 
ENDBRANCH  10  13
ENDBRANCH   6   7
BRANCH   6  15
ATOM     15  C   UNL     1       1.967   5.755  20.588  0.00  0.00    +0.000 C 
BRANCH  15  17
ATOM     16  C   UNL     1       1.720   3.383  21.350  0.00  0.00    +0.000 C 
ATOM     17  C   UNL     1       1.100   4.495  20.508  0.00  0.00    +0.000 C 
ENDBRANCH  15  17
ENDBRANCH   6  15
ENDBRANCH   1   6
BRANCH   5  18
ATOM     18  C   UNL     1       1.621   8.875  21.280  0.00  0.00    +0.000 C 
BRANCH  18  19
ATOM     19  S   UNL     1       0.160   9.292  22.162  0.00  0.00    +0.000 S 
ATOM     20  O   UNL     1      -0.812   8.254  21.864  0.00  0.00    +0.000 OA
ATOM     21  O   UNL     1       0.558   9.509  23.544  0.00  0.00    +0.000 OA
BRANCH  19  22
ATOM     22  C   UNL     1      -0.634  10.805  21.669  0.00  0.00    +0.000 A 
ATOM     23  C   UNL     1      -1.027  11.144  20.378  0.00  0.00    +0.000 A 
ATOM     24  C   UNL     1      -1.729  12.344  20.155  0.00  0.00    +0.000 A 
ATOM     25  C   UNL     1      -2.010  13.223  21.209  0.00  0.00    +0.000 A 
ATOM     26  C   UNL     1      -2.784  14.493  21.002  0.00  0.00    +0.000 C 
ATOM     27  C   UNL     1      -1.558  12.903  22.491  0.00  0.00    +0.000 A 
ATOM     28  C   UNL     1      -0.883  11.706  22.714  0.00  0.00    +0.000 A 
ENDBRANCH  19  22
ENDBRANCH  18  19
ENDBRANCH   5  18
TORSDOF 8
ENDMDL
MODEL 4
REMARK VINA RESULT:      -6.2      3.211      4.506
REMARK  Name = 
REMARK  11 active torsions:
REMARK  status: ('A' for Active; 'I' for Inactive)
REMARK    1  A    between atoms: C_1  and  C_2
REMARK    2  A    between atoms: C_2  and  C_3
REMARK    3  A    between atoms: C_3  and  C_4
REMARK    4  A    between atoms: C_4  and  C_5
REMARK    5  A    between atoms: C_4  and  N_21
REMARK    6  A    between atoms: N_9  and  C_10
REMARK    7  A    between atoms: C_10  and  S_11
REMARK    8  A    between atoms: S_11  and  C_14
REMARK    9  A    between atoms: C_17  and  C_18
REMARK   10  A    between atoms: N_24  and  C_25
REMARK   11  A    between atoms: C_25  and  C_26
REMARK                            x       y       z     vdW  Elec       q    Type
REMARK                         _______ _______ _______ _____ _____    ______ ____
ROOT
ATOM      1  C   UNL     1       2.264   6.285  19.254  0.00  0.00    +0.000 A 
ATOM      2  N   UNL     1       2.063   5.777  20.455  0.00  0.00    +0.000 NA
ATOM      3  N   UNL     1       1.527   6.764  21.227  0.00  0.00    +0.000 NA
ATOM      4  N   UNL     1       1.400   7.876  20.532  0.00  0.00    +0.000 NA
ATOM      5  N   UNL     1       1.967   7.627  19.328  0.00  0.00    +0.000 N 
ENDROOT
BRANCH   1   6
ATOM      6  C   UNL     1       2.603   5.419  18.049  0.00  0.00    +0.000 C 
BRANCH   6   7
ATOM      7  N   UNL     1       3.885   4.667  18.208  0.00  0.00    +0.000 NA
ATOM      8  C   UNL     1       4.328   3.981  16.952  0.00  0.00    +0.000 C 
ATOM      9  C   UNL     1       5.166   4.803  15.926  0.00  0.00    +0.000 C 
ATOM     10  N   UNL     1       6.275   5.584  16.511  0.00  0.00    +0.000 NA
ATOM     11  C   UNL     1       5.711   6.369  17.625  0.00  0.00    +0.000 C 
ATOM     12  C   UNL     1       5.018   5.498  18.693  0.00  0.00    +0.000 C 
BRANCH  10  13
ATOM     13  C   UNL     1       7.390   4.699  16.900  0.00  0.00    +0.000 C 
ATOM     14  C   UNL     1       7.941   4.960  18.302  0.00  0.00    +0.000 C 
ENDBRANCH  10  13
ENDBRANCH   6   7
BRANCH   6  15
ATOM     15  C   UNL     1       1.446   4.460  17.680  0.00  0.00    +0.000 C 
BRANCH  15  17
ATOM     16  C   UNL     1       0.645   2.790  19.365  0.00  0.00    +0.000 C 
ATOM     17  C   UNL     1       1.580   3.018  18.180  0.00  0.00    +0.000 C 
ENDBRANCH  15  17
ENDBRANCH   6  15
ENDBRANCH   1   6
BRANCH   5  18
ATOM     18  C   UNL     1       1.892   8.689  18.361  0.00  0.00    +0.000 C 
BRANCH  18  19
ATOM     19  S   UNL     1       1.267  10.252  18.862  0.00  0.00    +0.000 S 
ATOM     20  O   UNL     1       1.270  10.251  20.315  0.00  0.00    +0.000 OA
ATOM     21  O   UNL     1       2.046  11.256  18.156  0.00  0.00    +0.000 OA
BRANCH  19  22
ATOM     22  C   UNL     1      -0.423  10.586  18.418  0.00  0.00    +0.000 A 
ATOM     23  C   UNL     1      -1.201  11.643  18.881  0.00  0.00    +0.000 A 
ATOM     24  C   UNL     1      -2.498  11.831  18.368  0.00  0.00    +0.000 A 
ATOM     25  C   UNL     1      -3.036  10.948  17.423  0.00  0.00    +0.000 A 
ATOM     26  C   UNL     1      -4.406  11.144  16.838  0.00  0.00    +0.000 C 
ATOM     27  C   UNL     1      -2.271   9.855  17.010  0.00  0.00    +0.000 A 
ATOM     28  C   UNL     1      -0.980   9.683  17.501  0.00  0.00    +0.000 A 
ENDBRANCH  19  22
ENDBRANCH  18  19
ENDBRANCH   5  18
TORSDOF 8
ENDMDL
MODEL 5
REMARK VINA RESULT:      -6.2      6.735     11.191
REMARK  Name = 
REMARK  11 active torsions:
REMARK  status: ('A' for Active; 'I' for Inactive)
REMARK    1  A    between atoms: C_1  and  C_2
REMARK    2  A    between atoms: C_2  and  C_3
REMARK    3  A    between atoms: C_3  and  C_4
REMARK    4  A    between atoms: C_4  and  C_5
REMARK    5  A    between atoms: C_4  and  N_21
REMARK    6  A    between atoms: N_9  and  C_10
REMARK    7  A    between atoms: C_10  and  S_11
REMARK    8  A    between atoms: S_11  and  C_14
REMARK    9  A    between atoms: C_17  and  C_18
REMARK   10  A    between atoms: N_24  and  C_25
REMARK   11  A    between atoms: C_25  and  C_26
REMARK                            x       y       z     vdW  Elec       q    Type
REMARK                         _______ _______ _______ _____ _____    ______ ____
ROOT
ATOM      1  C   UNL     1      -1.081  13.197  20.337  0.00  0.00    +0.000 A 
ATOM      2  N   UNL     1      -0.659  14.135  19.511  0.00  0.00    +0.000 NA
ATOM      3  N   UNL     1      -0.171  13.509  18.402  0.00  0.00    +0.000 NA
ATOM      4  N   UNL     1      -0.273  12.201  18.528  0.00  0.00    +0.000 NA
ATOM      5  N   UNL     1      -0.732  11.985  19.784  0.00  0.00    +0.000 N 
ENDROOT
BRANCH   1   6
ATOM      6  C   UNL     1      -1.929  13.510  21.561  0.00  0.00    +0.000 C 
BRANCH   6   7
ATOM      7  N   UNL     1      -3.153  12.658  21.661  0.00  0.00    +0.000 NA
ATOM      8  C   UNL     1      -3.742  12.629  23.039  0.00  0.00    +0.000 C 
ATOM      9  C   UNL     1      -4.737  13.761  23.434  0.00  0.00    +0.000 C 
ATOM     10  N   UNL     1      -5.779  14.053  22.429  0.00  0.00    +0.000 NA
ATOM     11  C   UNL     1      -5.094  14.249  21.138  0.00  0.00    +0.000 C 
ATOM     12  C   UNL     1      -4.235  13.040  20.716  0.00  0.00    +0.000 C 
BRANCH  10  13
ATOM     13  C   UNL     1      -6.802  12.989  22.413  0.00  0.00    +0.000 C 
ATOM     14  C   UNL     1      -7.437  12.707  23.775  0.00  0.00    +0.000 C 
ENDBRANCH  10  13
ENDBRANCH   6   7
BRANCH   6  15
ATOM     15  C   UNL     1      -1.105  13.445  22.870  0.00  0.00    +0.000 C 
BRANCH  15  17
ATOM     16  C   UNL     1      -1.683  15.882  22.908  0.00  0.00    +0.000 C 
ATOM     17  C   UNL     1      -0.875  14.779  23.587  0.00  0.00    +0.000 C 
ENDBRANCH  15  17
ENDBRANCH   6  15
ENDBRANCH   1   6
BRANCH   5  18
ATOM     18  C   UNL     1      -0.989  10.615  20.138  0.00  0.00    +0.000 C 
BRANCH  18  19
ATOM     19  S   UNL     1       0.297   9.671  20.874  0.00  0.00    +0.000 S 
ATOM     20  O   UNL     1       1.201  10.622  21.497  0.00  0.00    +0.000 OA
ATOM     21  O   UNL     1      -0.349   8.666  21.703  0.00  0.00    +0.000 OA
BRANCH  19  22
ATOM     22  C   UNL     1       1.321   8.751  19.748  0.00  0.00    +0.000 A 
ATOM     23  C   UNL     1       1.708   9.153  18.473  0.00  0.00    +0.000 A 
ATOM     24  C   UNL     1       2.599   8.355  17.731  0.00  0.00    +0.000 A 
ATOM     25  C   UNL     1       3.077   7.141  18.241  0.00  0.00    +0.000 A 
ATOM     26  C   UNL     1       4.053   6.288  17.481  0.00  0.00    +0.000 C 
ATOM     27  C   UNL     1       2.636   6.716  19.495  0.00  0.00    +0.000 A 
ATOM     28  C   UNL     1       1.771   7.517  20.238  0.00  0.00    +0.000 A 
ENDBRANCH  19  22
ENDBRANCH  18  19
ENDBRANCH   5  18
TORSDOF 8
ENDMDL
MODEL 6
REMARK VINA RESULT:      -6.2      6.264     10.390
REMARK  Name = 
REMARK  11 active torsions:
REMARK  status: ('A' for Active; 'I' for Inactive)
REMARK    1  A    between atoms: C_1  and  C_2
REMARK    2  A    between atoms: C_2  and  C_3
REMARK    3  A    between atoms: C_3  and  C_4
REMARK    4  A    between atoms: C_4  and  C_5
REMARK    5  A    between atoms: C_4  and  N_21
REMARK    6  A    between atoms: N_9  and  C_10
REMARK    7  A    between atoms: C_10  and  S_11
REMARK    8  A    between atoms: S_11  and  C_14
REMARK    9  A    between atoms: C_17  and  C_18
REMARK   10  A    between atoms: N_24  and  C_25
REMARK   11  A    between atoms: C_25  and  C_26
REMARK                            x       y       z     vdW  Elec       q    Type
REMARK                         _______ _______ _______ _____ _____    ______ ____
ROOT
ATOM      1  C   UNL     1      -0.883  11.099  22.156  0.00  0.00    +0.000 A 
ATOM      2  N   UNL     1      -0.430  10.958  23.387  0.00  0.00    +0.000 NA
ATOM      3  N   UNL     1       0.319   9.819  23.414  0.00  0.00    +0.000 NA
ATOM      4  N   UNL     1       0.331   9.246  22.228  0.00  0.00    +0.000 NA
ATOM      5  N   UNL     1      -0.514   9.971  21.457  0.00  0.00    +0.000 N 
ENDROOT
BRANCH   1   6
ATOM      6  C   UNL     1      -1.536  12.385  21.670  0.00  0.00    +0.000 C 
BRANCH   6   7
ATOM      7  N   UNL     1      -2.230  13.139  22.759  0.00  0.00    +0.000 NA
ATOM      8  C   UNL     1      -2.433  14.588  22.438  0.00  0.00    +0.000 C 
ATOM      9  C   UNL     1      -3.700  14.987  21.623  0.00  0.00    +0.000 C 
ATOM     10  N   UNL     1      -4.961  14.377  22.093  0.00  0.00    +0.000 NA
ATOM     11  C   UNL     1      -4.724  12.925  22.205  0.00  0.00    +0.000 C 
ATOM     12  C   UNL     1      -3.550  12.571  23.140  0.00  0.00    +0.000 C 
BRANCH  10  13
ATOM     13  C   UNL     1      -5.414  15.013  23.345  0.00  0.00    +0.000 C 
ATOM     14  C   UNL     1      -6.846  14.660  23.747  0.00  0.00    +0.000 C 
ENDBRANCH  10  13
ENDBRANCH   6   7
BRANCH   6  15
ATOM     15  C   UNL     1      -0.534  13.298  20.923  0.00  0.00    +0.000 C 
BRANCH  15  17
ATOM     16  C   UNL     1      -0.172  14.790  18.944  0.00  0.00    +0.000 C 
ATOM     17  C   UNL     1      -0.772  13.469  19.419  0.00  0.00    +0.000 C 
ENDBRANCH  15  17
ENDBRANCH   6  15
ENDBRANCH   1   6
BRANCH   5  18
ATOM     18  C   UNL     1      -0.618   9.570  20.080  0.00  0.00    +0.000 C 
BRANCH  18  19
ATOM     19  S   UNL     1       0.771   9.787  19.026  0.00  0.00    +0.000 S 
ATOM     20  O   UNL     1       0.246   9.938  17.679  0.00  0.00    +0.000 OA
ATOM     21  O   UNL     1       1.563  10.863  19.599  0.00  0.00    +0.000 OA
BRANCH  19  22
ATOM     22  C   UNL     1       1.883   8.402  18.921  0.00  0.00    +0.000 A 
ATOM     23  C   UNL     1       2.017   7.383  19.858  0.00  0.00    +0.000 A 
ATOM     24  C   UNL     1       2.878   6.301  19.594  0.00  0.00    +0.000 A 
ATOM     25  C   UNL     1       3.631   6.250  18.414  0.00  0.00    +0.000 A 
ATOM     26  C   UNL     1       4.533   5.091  18.095  0.00  0.00    +0.000 C 
ATOM     27  C   UNL     1       3.536   7.307  17.507  0.00  0.00    +0.000 A 
ATOM     28  C   UNL     1       2.668   8.366  17.760  0.00  0.00    +0.000 A 
ENDBRANCH  19  22
ENDBRANCH  18  19
ENDBRANCH   5  18
TORSDOF 8
ENDMDL
MODEL 7
REMARK VINA RESULT:      -6.2      7.616     11.190
REMARK  Name = 
REMARK  11 active torsions:
REMARK  status: ('A' for Active; 'I' for Inactive)
REMARK    1  A    between atoms: C_1  and  C_2
REMARK    2  A    between atoms: C_2  and  C_3
REMARK    3  A    between atoms: C_3  and  C_4
REMARK    4  A    between atoms: C_4  and  C_5
REMARK    5  A    between atoms: C_4  and  N_21
REMARK    6  A    between atoms: N_9  and  C_10
REMARK    7  A    between atoms: C_10  and  S_11
REMARK    8  A    between atoms: S_11  and  C_14
REMARK    9  A    between atoms: C_17  and  C_18
REMARK   10  A    between atoms: N_24  and  C_25
REMARK   11  A    between atoms: C_25  and  C_26
REMARK                            x       y       z     vdW  Elec       q    Type
REMARK                         _______ _______ _______ _____ _____    ______ ____
ROOT
ATOM      1  C   UNL     1      -0.774  11.575  22.568  0.00  0.00    +0.000 A 
ATOM      2  N   UNL     1      -0.936  10.620  23.463  0.00  0.00    +0.000 NA
ATOM      3  N   UNL     1       0.124   9.771  23.346  0.00  0.00    +0.000 NA
ATOM      4  N   UNL     1       0.936  10.176  22.390  0.00  0.00    +0.000 NA
ATOM      5  N   UNL     1       0.327  11.239  21.813  0.00  0.00    +0.000 N 
ENDROOT
BRANCH   1   6
ATOM      6  C   UNL     1      -1.611  12.846  22.572  0.00  0.00    +0.000 C 
BRANCH   6   7
ATOM      7  N   UNL     1      -2.934  12.676  23.248  0.00  0.00    +0.000 NA
ATOM      8  C   UNL     1      -3.214  13.730  24.275  0.00  0.00    +0.000 C 
ATOM      9  C   UNL     1      -3.852  15.069  23.795  0.00  0.00    +0.000 C 
ATOM     10  N   UNL     1      -5.001  14.918  22.878  0.00  0.00    +0.000 NA
ATOM     11  C   UNL     1      -4.577  14.008  21.798  0.00  0.00    +0.000 C 
ATOM     12  C   UNL     1      -4.089  12.638  22.313  0.00  0.00    +0.000 C 
BRANCH  10  13
ATOM     13  C   UNL     1      -6.199  14.466  23.612  0.00  0.00    +0.000 C 
ATOM     14  C   UNL     1      -7.422  14.220  22.729  0.00  0.00    +0.000 C 
ENDBRANCH  10  13
ENDBRANCH   6   7
BRANCH   6  15
ATOM     15  C   UNL     1      -0.840  14.048  23.171  0.00  0.00    +0.000 C 
BRANCH  15  17
ATOM     16  C   UNL     1       1.046  15.275  22.071  0.00  0.00    +0.000 C 
ATOM     17  C   UNL     1      -0.472  15.167  22.191  0.00  0.00    +0.000 C 
ENDBRANCH  15  17
ENDBRANCH   6  15
ENDBRANCH   1   6
BRANCH   5  18
ATOM     18  C   UNL     1       1.063  11.901  20.769  0.00  0.00    +0.000 C 
BRANCH  18  19
ATOM     19  S   UNL     1       0.641  11.577  19.095  0.00  0.00    +0.000 S 
ATOM     20  O   UNL     1       1.037  12.750  18.336  0.00  0.00    +0.000 OA
ATOM     21  O   UNL     1       1.230  10.290  18.761  0.00  0.00    +0.000 OA
BRANCH  19  22
ATOM     22  C   UNL     1      -1.095  11.389  18.759  0.00  0.00    +0.000 A 
ATOM     23  C   UNL     1      -2.109  12.249  19.169  0.00  0.00    +0.000 A 
ATOM     24  C   UNL     1      -3.432  12.018  18.748  0.00  0.00    +0.000 A 
ATOM     25  C   UNL     1      -3.753  10.913  17.949  0.00  0.00    +0.000 A 
ATOM     26  C   UNL     1      -5.152  10.662  17.462  0.00  0.00    +0.000 C 
ATOM     27  C   UNL     1      -2.740  10.022  17.594  0.00  0.00    +0.000 A 
ATOM     28  C   UNL     1      -1.428  10.263  17.992  0.00  0.00    +0.000 A 
ENDBRANCH  19  22
ENDBRANCH  18  19
ENDBRANCH   5  18
TORSDOF 8
ENDMDL
MODEL 8
REMARK VINA RESULT:      -6.1      2.369      4.079
REMARK  Name = 
REMARK  11 active torsions:
REMARK  status: ('A' for Active; 'I' for Inactive)
REMARK    1  A    between atoms: C_1  and  C_2
REMARK    2  A    between atoms: C_2  and  C_3
REMARK    3  A    between atoms: C_3  and  C_4
REMARK    4  A    between atoms: C_4  and  C_5
REMARK    5  A    between atoms: C_4  and  N_21
REMARK    6  A    between atoms: N_9  and  C_10
REMARK    7  A    between atoms: C_10  and  S_11
REMARK    8  A    between atoms: S_11  and  C_14
REMARK    9  A    between atoms: C_17  and  C_18
REMARK   10  A    between atoms: N_24  and  C_25
REMARK   11  A    between atoms: C_25  and  C_26
REMARK                            x       y       z     vdW  Elec       q    Type
REMARK                         _______ _______ _______ _____ _____    ______ ____
ROOT
ATOM      1  C   UNL     1       4.156   5.726  18.721  0.00  0.00    +0.000 A 
ATOM      2  N   UNL     1       4.303   4.970  19.793  0.00  0.00    +0.000 NA
ATOM      3  N   UNL     1       3.083   4.881  20.395  0.00  0.00    +0.000 NA
ATOM      4  N   UNL     1       2.185   5.573  19.723  0.00  0.00    +0.000 NA
ATOM      5  N   UNL     1       2.866   6.205  18.738  0.00  0.00    +0.000 N 
ENDROOT
BRANCH   1   6
ATOM      6  C   UNL     1       5.232   5.839  17.651  0.00  0.00    +0.000 C 
BRANCH   6   7
ATOM      7  N   UNL     1       4.734   5.505  16.281  0.00  0.00    +0.000 NA
ATOM      8  C   UNL     1       5.579   6.084  15.188  0.00  0.00    +0.000 C 
ATOM      9  C   UNL     1       6.826   5.274  14.719  0.00  0.00    +0.000 C 
ATOM     10  N   UNL     1       6.581   3.837  14.481  0.00  0.00    +0.000 NA
ATOM     11  C   UNL     1       5.911   3.307  15.682  0.00  0.00    +0.000 C 
ATOM     12  C   UNL     1       4.601   4.047  16.024  0.00  0.00    +0.000 C 
BRANCH  10  13
ATOM     13  C   UNL     1       5.825   3.636  13.230  0.00  0.00    +0.000 C 
ATOM     14  C   UNL     1       6.688   3.617  11.968  0.00  0.00    +0.000 C 
ENDBRANCH  10  13
ENDBRANCH   6   7
BRANCH   6  15
ATOM     15  C   UNL     1       5.920   7.225  17.663  0.00  0.00    +0.000 C 
BRANCH  15  17
ATOM     16  C   UNL     1       7.802   5.984  18.753  0.00  0.00    +0.000 C 
ATOM     17  C   UNL     1       7.424   7.228  17.953  0.00  0.00    +0.000 C 
ENDBRANCH  15  17
ENDBRANCH   6  15
ENDBRANCH   1   6
BRANCH   5  18
ATOM     18  C   UNL     1       2.076   6.982  17.821  0.00  0.00    +0.000 C 
BRANCH  18  19
ATOM     19  S   UNL     1       1.846   8.695  18.136  0.00  0.00    +0.000 S 
ATOM     20  O   UNL     1       3.173   9.277  18.236  0.00  0.00    +0.000 OA
ATOM     21  O   UNL     1       0.936   9.185  17.114  0.00  0.00    +0.000 OA
BRANCH  19  22
ATOM     22  C   UNL     1       1.063   9.096  19.682  0.00  0.00    +0.000 A 
ATOM     23  C   UNL     1       1.366   8.547  20.924  0.00  0.00    +0.000 A 
ATOM     24  C   UNL     1       0.721   9.032  22.077  0.00  0.00    +0.000 A 
ATOM     25  C   UNL     1      -0.251  10.038  21.992  0.00  0.00    +0.000 A 
ATOM     26  C   UNL     1      -0.931  10.593  23.211  0.00  0.00    +0.000 C 
ATOM     27  C   UNL     1      -0.592  10.539  20.735  0.00  0.00    +0.000 A 
ATOM     28  C   UNL     1       0.062  10.074  19.597  0.00  0.00    +0.000 A 
ENDBRANCH  19  22
ENDBRANCH  18  19
ENDBRANCH   5  18
TORSDOF 8
ENDMDL
MODEL 9
REMARK VINA RESULT:      -6.1      3.652      5.017
REMARK  Name = 
REMARK  11 active torsions:
REMARK  status: ('A' for Active; 'I' for Inactive)
REMARK    1  A    between atoms: C_1  and  C_2
REMARK    2  A    between atoms: C_2  and  C_3
REMARK    3  A    between atoms: C_3  and  C_4
REMARK    4  A    between atoms: C_4  and  C_5
REMARK    5  A    between atoms: C_4  and  N_21
REMARK    6  A    between atoms: N_9  and  C_10
REMARK    7  A    between atoms: C_10  and  S_11
REMARK    8  A    between atoms: S_11  and  C_14
REMARK    9  A    between atoms: C_17  and  C_18
REMARK   10  A    between atoms: N_24  and  C_25
REMARK   11  A    between atoms: C_25  and  C_26
REMARK                            x       y       z     vdW  Elec       q    Type
REMARK                         _______ _______ _______ _____ _____    ______ ____
ROOT
ATOM      1  C   UNL     1       1.960   7.015  19.891  0.00  0.00    +0.000 A 
ATOM      2  N   UNL     1       1.498   6.600  21.055  0.00  0.00    +0.000 NA
ATOM      3  N   UNL     1       0.804   7.635  21.607  0.00  0.00    +0.000 NA
ATOM      4  N   UNL     1       0.835   8.687  20.813  0.00  0.00    +0.000 NA
ATOM      5  N   UNL     1       1.655   8.353  19.789  0.00  0.00    +0.000 N 
ENDROOT
BRANCH   1   6
ATOM      6  C   UNL     1       2.557   6.062  18.865  0.00  0.00    +0.000 C 
BRANCH   6   7
ATOM      7  N   UNL     1       4.017   6.289  18.633  0.00  0.00    +0.000 NA
ATOM      8  C   UNL     1       4.884   5.229  19.239  0.00  0.00    +0.000 C 
ATOM      9  C   UNL     1       5.152   3.938  18.408  0.00  0.00    +0.000 C 
ATOM     10  N   UNL     1       5.526   4.172  16.998  0.00  0.00    +0.000 NA
ATOM     11  C   UNL     1       4.516   5.081  16.427  0.00  0.00    +0.000 C 
ATOM     12  C   UNL     1       4.388   6.410  17.198  0.00  0.00    +0.000 C 
BRANCH  10  13
ATOM     13  C   UNL     1       6.911   4.671  16.901  0.00  0.00    +0.000 C 
ATOM     14  C   UNL     1       7.420   4.842  15.470  0.00  0.00    +0.000 C 
ENDBRANCH  10  13
ENDBRANCH   6   7
BRANCH   6  15
ATOM     15  C   UNL     1       2.281   4.581  19.219  0.00  0.00    +0.000 C 
BRANCH  15  17
ATOM     16  C   UNL     1       1.390   2.329  18.579  0.00  0.00    +0.000 C 
ATOM     17  C   UNL     1       1.354   3.822  18.263  0.00  0.00    +0.000 C 
ENDBRANCH  15  17
ENDBRANCH   6  15
ENDBRANCH   1   6
BRANCH   5  18
ATOM     18  C   UNL     1       1.797   9.333  18.746  0.00  0.00    +0.000 C 
BRANCH  18  19
ATOM     19  S   UNL     1       1.070  10.918  18.964  0.00  0.00    +0.000 S 
ATOM     20  O   UNL     1       1.231  11.255  20.368  0.00  0.00    +0.000 OA
ATOM     21  O   UNL     1       1.660  11.787  17.959  0.00  0.00    +0.000 OA
BRANCH  19  22
ATOM     22  C   UNL     1      -0.683  11.009  18.679  0.00  0.00    +0.000 A 
ATOM     23  C   UNL     1      -1.583  11.835  19.347  0.00  0.00    +0.000 A 
ATOM     24  C   UNL     1      -2.932  11.862  18.947  0.00  0.00    +0.000 A 
ATOM     25  C   UNL     1      -3.395  11.044  17.909  0.00  0.00    +0.000 A 
ATOM     26  C   UNL     1      -4.823  11.078  17.445  0.00  0.00    +0.000 C 
ATOM     27  C   UNL     1      -2.498  10.174  17.286  0.00  0.00    +0.000 A 
ATOM     28  C   UNL     1      -1.159  10.163  17.667  0.00  0.00    +0.000 A 
ENDBRANCH  19  22
ENDBRANCH  18  19
ENDBRANCH   5  18
TORSDOF 8
ENDMDL
