MODEL 1
REMARK VINA RESULT:      -8.0      0.000      0.000
REMARK  Name = 
REMARK  7 active torsions:
REMARK  status: ('A' for Active; 'I' for Inactive)
REMARK    1  A    between atoms: C_2  and  C_4
REMARK    2  A    between atoms: C_7  and  C_8
REMARK    3  A    between atoms: C_11  and  C_12
REMARK    4  A    between atoms: C_12  and  C_13
REMARK    5  A    between atoms: C_20  and  C_21
REMARK    6  A    between atoms: C_21  and  C_22
REMARK    7  A    between atoms: C_22  and  O_24
REMARK                            x       y       z     vdW  Elec       q    Type
REMARK                         _______ _______ _______ _____ _____    ______ ____
ROOT
ATOM      1  C   UNL     1       2.512   5.862  19.701  0.00  0.00    +0.000 C 
ATOM      2  N   UNL     1       1.662   4.888  19.780  0.00  0.00    +0.000 NA
ATOM      3  O   UNL     1       2.381   3.679  19.882  0.00  0.00    +0.000 OA
ATOM      4  C   UNL     1       3.792   3.955  19.887  0.00  0.00    +0.000 C 
ATOM      5  C   UNL     1       3.940   5.456  19.764  0.00  0.00    +0.000 C 
ENDROOT
BRANCH   1   9
ATOM      6  C   UNL     1       1.033   9.857  19.146  0.00  0.00    +0.000 A 
ATOM      7  C   UNL     1       1.000   9.249  20.407  0.00  0.00    +0.000 A 
ATOM      8  C   UNL     1       1.530   7.964  20.589  0.00  0.00    +0.000 A 
ATOM      9  C   UNL     1       2.101   7.273  19.516  0.00  0.00    +0.000 A 
ATOM     10  C   UNL     1       2.202   7.909  18.273  0.00  0.00    +0.000 A 
ATOM     11  C   UNL     1       1.665   9.193  18.089  0.00  0.00    +0.000 A 
BRANCH   6  13
ATOM     12  N   UNL     1       0.543  12.126  19.815  0.00  0.00    +0.000 NA
ATOM     13  C   UNL     1       0.351  11.175  18.960  0.00  0.00    +0.000 C 
ATOM     14  N   UNL     1      -0.490  11.424  17.915  0.00  0.00    +0.000 N 
ATOM     15  H   UNL     1       0.043  12.958  19.483  0.00  0.00    +0.000 HD
ATOM     16  H   UNL     1      -1.370  11.867  18.168  0.00  0.00    +0.000 HD
ATOM     17  H   UNL     1      -0.606  10.741  17.183  0.00  0.00    +0.000 HD
ENDBRANCH   6  13
ENDBRANCH   1   9
BRANCH   4  18
ATOM     18  C   UNL     1       4.437   3.178  18.737  0.00  0.00    +0.000 C 
BRANCH  18  19
ATOM     19  C   UNL     1       4.146   3.808  17.388  0.00  0.00    +0.000 C 
ATOM     20  O   UNL     1       3.090   3.570  16.801  0.00  0.00    +0.000 OA
ATOM     21  N   UNL     1       5.099   4.687  16.868  0.00  0.00    +0.000 N 
ATOM     22  C   UNL     1       4.805   5.347  15.588  0.00  0.00    +0.000 C 
ATOM     23  C   UNL     1       5.697   4.818  14.468  0.00  0.00    +0.000 C 
ATOM     24  C   UNL     1       7.175   4.836  14.856  0.00  0.00    +0.000 C 
ATOM     25  C   UNL     1       7.394   4.151  16.204  0.00  0.00    +0.000 C 
ATOM     26  C   UNL     1       6.512   4.759  17.316  0.00  0.00    +0.000 C 
BRANCH  26  27
ATOM     27  C   UNL     1       6.905   6.195  17.706  0.00  0.00    +0.000 C 
BRANCH  27  28
ATOM     28  C   UNL     1       7.788   6.219  18.928  0.00  0.00    +0.000 C 
ATOM     29  O   UNL     1       7.800   5.357  19.792  0.00  0.00    +0.000 OA
BRANCH  28  30
ATOM     30  O   UNL     1       8.567   7.321  19.001  0.00  0.00    +0.000 OA
ATOM     31  H   UNL     1       9.439   7.184  19.416  0.00  0.00    +0.000 HD
ENDBRANCH  28  30
ENDBRANCH  27  28
ENDBRANCH  26  27
ENDBRANCH  18  19
ENDBRANCH   4  18
TORSDOF 7
ENDMDL
MODEL 2
REMARK VINA RESULT:      -7.8      3.554      8.812
REMARK  Name = 
REMARK  7 active torsions:
REMARK  status: ('A' for Active; 'I' for Inactive)
REMARK    1  A    between atoms: C_2  and  C_4
REMARK    2  A    between atoms: C_7  and  C_8
REMARK    3  A    between atoms: C_11  and  C_12
REMARK    4  A    between atoms: C_12  and  C_13
REMARK    5  A    between atoms: C_20  and  C_21
REMARK    6  A    between atoms: C_21  and  C_22
REMARK    7  A    between atoms: C_22  and  O_24
REMARK                            x       y       z     vdW  Elec       q    Type
REMARK                         _______ _______ _______ _____ _____    ______ ____
ROOT
ATOM      1  C   UNL     1       2.468   7.675  18.664  0.00  0.00    +0.000 C 
ATOM      2  N   UNL     1       2.184   7.555  19.922  0.00  0.00    +0.000 NA
ATOM      3  O   UNL     1       1.156   8.468  20.234  0.00  0.00    +0.000 OA
ATOM      4  C   UNL     1       0.771   9.186  19.050  0.00  0.00    +0.000 C 
ATOM      5  C   UNL     1       1.650   8.675  17.929  0.00  0.00    +0.000 C 
ENDROOT
BRANCH   1   9
ATOM      6  C   UNL     1       5.815   5.613  16.932  0.00  0.00    +0.000 A 
ATOM      7  C   UNL     1       5.295   5.222  18.171  0.00  0.00    +0.000 A 
ATOM      8  C   UNL     1       4.173   5.868  18.706  0.00  0.00    +0.000 A 
ATOM      9  C   UNL     1       3.554   6.910  18.009  0.00  0.00    +0.000 A 
ATOM     10  C   UNL     1       4.026   7.252  16.736  0.00  0.00    +0.000 A 
ATOM     11  C   UNL     1       5.155   6.610  16.204  0.00  0.00    +0.000 A 
BRANCH   6  13
ATOM     12  N   UNL     1       7.801   4.278  17.258  0.00  0.00    +0.000 NA
ATOM     13  C   UNL     1       7.085   4.986  16.448  0.00  0.00    +0.000 C 
ATOM     14  N   UNL     1       7.535   5.138  15.170  0.00  0.00    +0.000 N 
ATOM     15  H   UNL     1       8.589   3.889  16.728  0.00  0.00    +0.000 HD
ATOM     16  H   UNL     1       8.520   5.380  15.087  0.00  0.00    +0.000 HD
ATOM     17  H   UNL     1       6.970   5.612  14.484  0.00  0.00    +0.000 HD
ENDBRANCH   6  13
ENDBRANCH   1   9
BRANCH   4  18
ATOM     18  C   UNL     1       0.932  10.683  19.323  0.00  0.00    +0.000 C 
BRANCH  18  19
ATOM     19  C   UNL     1      -0.388  11.425  19.233  0.00  0.00    +0.000 C 
ATOM     20  O   UNL     1      -0.890  11.679  18.137  0.00  0.00    +0.000 OA
ATOM     21  N   UNL     1      -1.019  11.766  20.432  0.00  0.00    +0.000 N 
ATOM     22  C   UNL     1      -2.325  12.436  20.359  0.00  0.00    +0.000 C 
ATOM     23  C   UNL     1      -2.231  13.894  20.800  0.00  0.00    +0.000 C 
ATOM     24  C   UNL     1      -1.527  14.041  22.149  0.00  0.00    +0.000 C 
ATOM     25  C   UNL     1      -0.190  13.302  22.150  0.00  0.00    +0.000 C 
ATOM     26  C   UNL     1      -0.345  11.817  21.753  0.00  0.00    +0.000 C 
BRANCH  26  27
ATOM     27  C   UNL     1      -1.092  10.970  22.798  0.00  0.00    +0.000 C 
BRANCH  27  28
ATOM     28  C   UNL     1      -0.338   9.708  23.135  0.00  0.00    +0.000 C 
ATOM     29  O   UNL     1       0.673   9.665  23.817  0.00  0.00    +0.000 OA
BRANCH  28  30
ATOM     30  O   UNL     1      -0.880   8.601  22.579  0.00  0.00    +0.000 OA
ATOM     31  H   UNL     1      -0.367   7.781  22.709  0.00  0.00    +0.000 HD
ENDBRANCH  28  30
ENDBRANCH  27  28
ENDBRANCH  26  27
ENDBRANCH  18  19
ENDBRANCH   4  18
TORSDOF 7
ENDMDL
MODEL 3
REMARK VINA RESULT:      -7.8      4.247      9.344
REMARK  Name = 
REMARK  7 active torsions:
REMARK  status: ('A' for Active; 'I' for Inactive)
REMARK    1  A    between atoms: C_2  and  C_4
REMARK    2  A    between atoms: C_7  and  C_8
REMARK    3  A    between atoms: C_11  and  C_12
REMARK    4  A    between atoms: C_12  and  C_13
REMARK    5  A    between atoms: C_20  and  C_21
REMARK    6  A    between atoms: C_21  and  C_22
REMARK    7  A    between atoms: C_22  and  O_24
REMARK                            x       y       z     vdW  Elec       q    Type
REMARK                         _______ _______ _______ _____ _____    ______ ____
ROOT
ATOM      1  C   UNL     1       1.907   7.577  19.764  0.00  0.00    +0.000 C 
ATOM      2  N   UNL     1       1.850   8.460  18.818  0.00  0.00    +0.000 NA
ATOM      3  O   UNL     1       1.338   9.658  19.358  0.00  0.00    +0.000 OA
ATOM      4  C   UNL     1       1.086   9.485  20.762  0.00  0.00    +0.000 C 
ATOM      5  C   UNL     1       1.464   8.059  21.098  0.00  0.00    +0.000 C 
ENDROOT
BRANCH   1   9
ATOM      6  C   UNL     1       3.392   3.575  19.280  0.00  0.00    +0.000 A 
ATOM      7  C   UNL     1       2.620   3.924  20.394  0.00  0.00    +0.000 A 
ATOM      8  C   UNL     1       2.098   5.218  20.520  0.00  0.00    +0.000 A 
ATOM      9  C   UNL     1       2.338   6.179  19.533  0.00  0.00    +0.000 A 
ATOM     10  C   UNL     1       3.047   5.811  18.383  0.00  0.00    +0.000 A 
ATOM     11  C   UNL     1       3.575   4.517  18.261  0.00  0.00    +0.000 A 
BRANCH   6  13
ATOM     12  N   UNL     1       5.008   1.950  20.042  0.00  0.00    +0.000 NA
ATOM     13  C   UNL     1       4.035   2.225  19.238  0.00  0.00    +0.000 C 
ATOM     14  N   UNL     1       3.639   1.253  18.366  0.00  0.00    +0.000 N 
ATOM     15  H   UNL     1       5.269   0.968  19.903  0.00  0.00    +0.000 HD
ATOM     16  H   UNL     1       4.395   0.786  17.872  0.00  0.00    +0.000 HD
ATOM     17  H   UNL     1       2.833   1.394  17.779  0.00  0.00    +0.000 HD
ENDBRANCH   6  13
ENDBRANCH   1   9
BRANCH   4  18
ATOM     18  C   UNL     1      -0.385   9.809  21.030  0.00  0.00    +0.000 C 
BRANCH  18  19
ATOM     19  C   UNL     1      -0.552  10.845  22.126  0.00  0.00    +0.000 C 
ATOM     20  O   UNL     1      -0.268  10.572  23.293  0.00  0.00    +0.000 OA
ATOM     21  N   UNL     1      -0.997  12.115  21.751  0.00  0.00    +0.000 N 
ATOM     22  C   UNL     1      -1.109  13.144  22.794  0.00  0.00    +0.000 C 
ATOM     23  C   UNL     1      -2.567  13.483  23.091  0.00  0.00    +0.000 C 
ATOM     24  C   UNL     1      -3.354  13.794  21.818  0.00  0.00    +0.000 C 
ATOM     25  C   UNL     1      -3.169  12.690  20.778  0.00  0.00    +0.000 C 
ATOM     26  C   UNL     1      -1.679  12.423  20.470  0.00  0.00    +0.000 C 
BRANCH  26  27
ATOM     27  C   UNL     1      -0.984  13.578  19.726  0.00  0.00    +0.000 C 
BRANCH  27  28
ATOM     28  C   UNL     1      -0.249  13.089  18.503  0.00  0.00    +0.000 C 
ATOM     29  O   UNL     1       0.960  12.937  18.434  0.00  0.00    +0.000 OA
BRANCH  28  30
ATOM     30  O   UNL     1      -1.065  12.854  17.451  0.00  0.00    +0.000 OA
ATOM     31  H   UNL     1      -1.934  13.295  17.496  0.00  0.00    +0.000 HD
ENDBRANCH  28  30
ENDBRANCH  27  28
ENDBRANCH  26  27
ENDBRANCH  18  19
ENDBRANCH   4  18
TORSDOF 7
ENDMDL
MODEL 4
REMARK VINA RESULT:      -7.6      0.879      1.458
REMARK  Name = 
REMARK  7 active torsions:
REMARK  status: ('A' for Active; 'I' for Inactive)
REMARK    1  A    between atoms: C_2  and  C_4
REMARK    2  A    between atoms: C_7  and  C_8
REMARK    3  A    between atoms: C_11  and  C_12
REMARK    4  A    between atoms: C_12  and  C_13
REMARK    5  A    between atoms: C_20  and  C_21
REMARK    6  A    between atoms: C_21  and  C_22
REMARK    7  A    between atoms: C_22  and  O_24
REMARK                            x       y       z     vdW  Elec       q    Type
REMARK                         _______ _______ _______ _____ _____    ______ ____
ROOT
ATOM      1  C   UNL     1       2.399   5.643  19.620  0.00  0.00    +0.000 C 
ATOM      2  N   UNL     1       1.593   4.644  19.447  0.00  0.00    +0.000 NA
ATOM      3  O   UNL     1       2.295   3.453  19.725  0.00  0.00    +0.000 OA
ATOM      4  C   UNL     1       3.639   3.768  20.125  0.00  0.00    +0.000 C 
ATOM      5  C   UNL     1       3.766   5.275  20.070  0.00  0.00    +0.000 C 
ENDROOT
BRANCH   1   9
ATOM      6  C   UNL     1       1.558   9.791  18.883  0.00  0.00    +0.000 A 
ATOM      7  C   UNL     1       2.089   8.977  17.876  0.00  0.00    +0.000 A 
ATOM      8  C   UNL     1       2.315   7.614  18.110  0.00  0.00    +0.000 A 
ATOM      9  C   UNL     1       2.009   7.046  19.350  0.00  0.00    +0.000 A 
ATOM     10  C   UNL     1       1.408   7.842  20.333  0.00  0.00    +0.000 A 
ATOM     11  C   UNL     1       1.189   9.209  20.101  0.00  0.00    +0.000 A 
BRANCH   6  13
ATOM     12  N   UNL     1       2.235  11.838  17.796  0.00  0.00    +0.000 NA
ATOM     13  C   UNL     1       1.445  11.263  18.642  0.00  0.00    +0.000 C 
ATOM     14  N   UNL     1       0.535  12.044  19.291  0.00  0.00    +0.000 N 
ATOM     15  H   UNL     1       1.964  12.825  17.726  0.00  0.00    +0.000 HD
ATOM     16  H   UNL     1       0.908  12.909  19.676  0.00  0.00    +0.000 HD
ATOM     17  H   UNL     1      -0.154  11.627  19.897  0.00  0.00    +0.000 HD
ENDBRANCH   6  13
ENDBRANCH   1   9
BRANCH   4  18
ATOM     18  C   UNL     1       4.602   3.036  19.188  0.00  0.00    +0.000 C 
BRANCH  18  19
ATOM     19  C   UNL     1       4.283   3.293  17.726  0.00  0.00    +0.000 C 
ATOM     20  O   UNL     1       3.419   2.632  17.149  0.00  0.00    +0.000 OA
ATOM     21  N   UNL     1       4.976   4.324  17.088  0.00  0.00    +0.000 N 
ATOM     22  C   UNL     1       4.637   4.620  15.689  0.00  0.00    +0.000 C 
ATOM     23  C   UNL     1       5.765   4.215  14.742  0.00  0.00    +0.000 C 
ATOM     24  C   UNL     1       7.116   4.770  15.190  0.00  0.00    +0.000 C 
ATOM     25  C   UNL     1       7.383   4.439  16.657  0.00  0.00    +0.000 C 
ATOM     26  C   UNL     1       6.243   4.919  17.580  0.00  0.00    +0.000 C 
BRANCH  26  27
ATOM     27  C   UNL     1       6.138   6.451  17.692  0.00  0.00    +0.000 C 
BRANCH  27  28
ATOM     28  C   UNL     1       7.496   7.095  17.809  0.00  0.00    +0.000 C 
ATOM     29  O   UNL     1       7.980   7.851  16.982  0.00  0.00    +0.000 OA
BRANCH  28  30
ATOM     30  O   UNL     1       8.162   6.732  18.929  0.00  0.00    +0.000 OA
ATOM     31  H   UNL     1       7.757   7.031  19.765  0.00  0.00    +0.000 HD
ENDBRANCH  28  30
ENDBRANCH  27  28
ENDBRANCH  26  27
ENDBRANCH  18  19
ENDBRANCH   4  18
TORSDOF 7
ENDMDL
MODEL 5
REMARK VINA RESULT:      -7.6      3.576      8.883
REMARK  Name = 
REMARK  7 active torsions:
REMARK  status: ('A' for Active; 'I' for Inactive)
REMARK    1  A    between atoms: C_2  and  C_4
REMARK    2  A    between atoms: C_7  and  C_8
REMARK    3  A    between atoms: C_11  and  C_12
REMARK    4  A    between atoms: C_12  and  C_13
REMARK    5  A    between atoms: C_20  and  C_21
REMARK    6  A    between atoms: C_21  and  C_22
REMARK    7  A    between atoms: C_22  and  O_24
REMARK                            x       y       z     vdW  Elec       q    Type
REMARK                         _______ _______ _______ _____ _____    ______ ____
ROOT
ATOM      1  C   UNL     1       2.374   7.750  18.787  0.00  0.00    +0.000 C 
ATOM      2  N   UNL     1       2.026   7.673  20.032  0.00  0.00    +0.000 NA
ATOM      3  O   UNL     1       1.017   8.630  20.271  0.00  0.00    +0.000 OA
ATOM      4  C   UNL     1       0.716   9.328  19.052  0.00  0.00    +0.000 C 
ATOM      5  C   UNL     1       1.628   8.758  17.989  0.00  0.00    +0.000 C 
ENDROOT
BRANCH   1   9
ATOM      6  C   UNL     1       5.339   5.301  16.873  0.00  0.00    +0.000 A 
ATOM      7  C   UNL     1       5.111   6.615  16.449  0.00  0.00    +0.000 A 
ATOM      8  C   UNL     1       4.177   7.424  17.110  0.00  0.00    +0.000 A 
ATOM      9  C   UNL     1       3.462   6.931  18.205  0.00  0.00    +0.000 A 
ATOM     10  C   UNL     1       3.742   5.643  18.677  0.00  0.00    +0.000 A 
ATOM     11  C   UNL     1       4.672   4.831  18.010  0.00  0.00    +0.000 A 
BRANCH   6  13
ATOM     12  N   UNL     1       7.397   4.881  15.681  0.00  0.00    +0.000 NA
ATOM     13  C   UNL     1       6.251   4.428  16.070  0.00  0.00    +0.000 C 
ATOM     14  N   UNL     1       5.919   3.154  15.716  0.00  0.00    +0.000 N 
ATOM     15  H   UNL     1       7.894   4.122  15.203  0.00  0.00    +0.000 HD
ATOM     16  H   UNL     1       6.086   2.922  14.739  0.00  0.00    +0.000 HD
ATOM     17  H   UNL     1       5.074   2.732  16.065  0.00  0.00    +0.000 HD
ENDBRANCH   6  13
ENDBRANCH   1   9
BRANCH   4  18
ATOM     18  C   UNL     1       0.917  10.826  19.295  0.00  0.00    +0.000 C 
BRANCH  18  19
ATOM     19  C   UNL     1      -0.389  11.596  19.228  0.00  0.00    +0.000 C 
ATOM     20  O   UNL     1      -0.867  11.924  18.141  0.00  0.00    +0.000 OA
ATOM     21  N   UNL     1      -1.035  11.876  20.434  0.00  0.00    +0.000 N 
ATOM     22  C   UNL     1      -2.328  12.572  20.380  0.00  0.00    +0.000 C 
ATOM     23  C   UNL     1      -2.218  14.000  20.909  0.00  0.00    +0.000 C 
ATOM     24  C   UNL     1      -1.535  14.053  22.276  0.00  0.00    +0.000 C 
ATOM     25  C   UNL     1      -0.212  13.291  22.254  0.00  0.00    +0.000 C 
ATOM     26  C   UNL     1      -0.384  11.836  21.767  0.00  0.00    +0.000 C 
BRANCH  26  27
ATOM     27  C   UNL     1      -1.165  10.942  22.747  0.00  0.00    +0.000 C 
BRANCH  27  28
ATOM     28  C   UNL     1      -0.380   9.710  23.122  0.00  0.00    +0.000 C 
ATOM     29  O   UNL     1       0.634   9.713  23.801  0.00  0.00    +0.000 OA
BRANCH  28  30
ATOM     30  O   UNL     1      -0.897   8.572  22.605  0.00  0.00    +0.000 OA
ATOM     31  H   UNL     1      -0.248   7.862  22.440  0.00  0.00    +0.000 HD
ENDBRANCH  28  30
ENDBRANCH  27  28
ENDBRANCH  26  27
ENDBRANCH  18  19
ENDBRANCH   4  18
TORSDOF 7
ENDMDL
MODEL 6
REMARK VINA RESULT:      -7.6      4.324      9.432
REMARK  Name = 
REMARK  7 active torsions:
REMARK  status: ('A' for Active; 'I' for Inactive)
REMARK    1  A    between atoms: C_2  and  C_4
REMARK    2  A    between atoms: C_7  and  C_8
REMARK    3  A    between atoms: C_11  and  C_12
REMARK    4  A    between atoms: C_12  and  C_13
REMARK    5  A    between atoms: C_20  and  C_21
REMARK    6  A    between atoms: C_21  and  C_22
REMARK    7  A    between atoms: C_22  and  O_24
REMARK                            x       y       z     vdW  Elec       q    Type
REMARK                         _______ _______ _______ _____ _____    ______ ____
ROOT
ATOM      1  C   UNL     1       1.844   7.830  19.825  0.00  0.00    +0.000 C 
ATOM      2  N   UNL     1       1.724   8.681  18.857  0.00  0.00    +0.000 NA
ATOM      3  O   UNL     1       1.179   9.873  19.378  0.00  0.00    +0.000 OA
ATOM      4  C   UNL     1       0.975   9.731  20.794  0.00  0.00    +0.000 C 
ATOM      5  C   UNL     1       1.421   8.332  21.158  0.00  0.00    +0.000 C 
ENDROOT
BRANCH   1   9
ATOM      6  C   UNL     1       3.006   3.768  19.046  0.00  0.00    +0.000 A 
ATOM      7  C   UNL     1       3.344   4.794  18.156  0.00  0.00    +0.000 A 
ATOM      8  C   UNL     1       3.004   6.123  18.441  0.00  0.00    +0.000 A 
ATOM      9  C   UNL     1       2.326   6.444  19.621  0.00  0.00    +0.000 A 
ATOM     10  C   UNL     1       2.054   5.430  20.547  0.00  0.00    +0.000 A 
ATOM     11  C   UNL     1       2.388   4.098  20.257  0.00  0.00    +0.000 A 
BRANCH   6  13
ATOM     12  N   UNL     1       4.322   1.744  19.106  0.00  0.00    +0.000 NA
ATOM     13  C   UNL     1       3.275   2.350  18.653  0.00  0.00    +0.000 C 
ATOM     14  N   UNL     1       2.454   1.655  17.814  0.00  0.00    +0.000 N 
ATOM     15  H   UNL     1       4.297   0.773  18.776  0.00  0.00    +0.000 HD
ATOM     16  H   UNL     1       2.929   1.149  17.070  0.00  0.00    +0.000 HD
ATOM     17  H   UNL     1       1.585   2.059  17.502  0.00  0.00    +0.000 HD
ENDBRANCH   6  13
ENDBRANCH   1   9
BRANCH   4  18
ATOM     18  C   UNL     1      -0.500  10.004  21.096  0.00  0.00    +0.000 C 
BRANCH  18  19
ATOM     19  C   UNL     1      -0.678  11.061  22.170  0.00  0.00    +0.000 C 
ATOM     20  O   UNL     1      -0.442  10.799  23.350  0.00  0.00    +0.000 OA
ATOM     21  N   UNL     1      -1.075  12.336  21.761  0.00  0.00    +0.000 N 
ATOM     22  C   UNL     1      -1.197  13.383  22.784  0.00  0.00    +0.000 C 
ATOM     23  C   UNL     1      -2.655  13.765  23.024  0.00  0.00    +0.000 C 
ATOM     24  C   UNL     1      -3.389  14.076  21.719  0.00  0.00    +0.000 C 
ATOM     25  C   UNL     1      -3.196  12.951  20.704  0.00  0.00    +0.000 C 
ATOM     26  C   UNL     1      -1.705  12.642  20.452  0.00  0.00    +0.000 C 
BRANCH  26  27
ATOM     27  C   UNL     1      -0.953  13.766  19.716  0.00  0.00    +0.000 C 
BRANCH  27  28
ATOM     28  C   UNL     1      -0.241  13.250  18.490  0.00  0.00    +0.000 C 
ATOM     29  O   UNL     1       0.971  13.200  18.361  0.00  0.00    +0.000 OA
BRANCH  28  30
ATOM     30  O   UNL     1      -1.087  12.862  17.509  0.00  0.00    +0.000 OA
ATOM     31  H   UNL     1      -0.928  11.965  17.159  0.00  0.00    +0.000 HD
ENDBRANCH  28  30
ENDBRANCH  27  28
ENDBRANCH  26  27
ENDBRANCH  18  19
ENDBRANCH   4  18
TORSDOF 7
ENDMDL
MODEL 7
REMARK VINA RESULT:      -7.5      4.568      6.831
REMARK  Name = 
REMARK  7 active torsions:
REMARK  status: ('A' for Active; 'I' for Inactive)
REMARK    1  A    between atoms: C_2  and  C_4
REMARK    2  A    between atoms: C_7  and  C_8
REMARK    3  A    between atoms: C_11  and  C_12
REMARK    4  A    between atoms: C_12  and  C_13
REMARK    5  A    between atoms: C_20  and  C_21
REMARK    6  A    between atoms: C_21  and  C_22
REMARK    7  A    between atoms: C_22  and  O_24
REMARK                            x       y       z     vdW  Elec       q    Type
REMARK                         _______ _______ _______ _____ _____    ______ ____
ROOT
ATOM      1  C   UNL     1       8.309   8.576  18.235  0.00  0.00    +0.000 C 
ATOM      2  N   UNL     1       8.639   7.708  19.137  0.00  0.00    +0.000 NA
ATOM      3  O   UNL     1       8.021   6.480  18.819  0.00  0.00    +0.000 OA
ATOM      4  C   UNL     1       7.271   6.619  17.601  0.00  0.00    +0.000 C 
ATOM      5  C   UNL     1       7.436   8.054  17.151  0.00  0.00    +0.000 C 
ENDROOT
BRANCH   1   9
ATOM      6  C   UNL     1       9.641  12.659  18.126  0.00  0.00    +0.000 A 
ATOM      7  C   UNL     1       8.431  12.283  17.530  0.00  0.00    +0.000 A 
ATOM      8  C   UNL     1       7.980  10.959  17.613  0.00  0.00    +0.000 A 
ATOM      9  C   UNL     1       8.730   9.995  18.294  0.00  0.00    +0.000 A 
ATOM     10  C   UNL     1       9.901  10.385  18.954  0.00  0.00    +0.000 A 
ATOM     11  C   UNL     1      10.356  11.710  18.864  0.00  0.00    +0.000 A 
BRANCH   6  13
ATOM     12  N   UNL     1      10.839  14.327  16.856  0.00  0.00    +0.000 NA
ATOM     13  C   UNL     1      10.152  14.049  17.914  0.00  0.00    +0.000 C 
ATOM     14  N   UNL     1       9.929  15.055  18.808  0.00  0.00    +0.000 N 
ATOM     15  H   UNL     1      11.043  15.333  16.863  0.00  0.00    +0.000 HD
ATOM     16  H   UNL     1      10.749  15.608  19.045  0.00  0.00    +0.000 HD
ATOM     17  H   UNL     1       9.332  14.904  19.605  0.00  0.00    +0.000 HD
ENDBRANCH   6  13
ENDBRANCH   1   9
BRANCH   4  18
ATOM     18  C   UNL     1       5.819   6.227  17.885  0.00  0.00    +0.000 C 
BRANCH  18  19
ATOM     19  C   UNL     1       5.706   4.822  18.445  0.00  0.00    +0.000 C 
ATOM     20  O   UNL     1       6.706   4.114  18.567  0.00  0.00    +0.000 OA
ATOM     21  N   UNL     1       4.440   4.389  18.847  0.00  0.00    +0.000 N 
ATOM     22  C   UNL     1       4.325   3.050  19.444  0.00  0.00    +0.000 C 
ATOM     23  C   UNL     1       3.596   2.084  18.513  0.00  0.00    +0.000 C 
ATOM     24  C   UNL     1       2.272   2.661  18.011  0.00  0.00    +0.000 C 
ATOM     25  C   UNL     1       2.473   4.058  17.427  0.00  0.00    +0.000 C 
ATOM     26  C   UNL     1       3.162   5.014  18.425  0.00  0.00    +0.000 C 
BRANCH  26  27
ATOM     27  C   UNL     1       2.288   5.380  19.638  0.00  0.00    +0.000 C 
BRANCH  27  28
ATOM     28  C   UNL     1       2.222   6.873  19.846  0.00  0.00    +0.000 C 
ATOM     29  O   UNL     1       2.469   7.705  18.989  0.00  0.00    +0.000 OA
BRANCH  28  30
ATOM     30  O   UNL     1       1.882   7.218  21.109  0.00  0.00    +0.000 OA
ATOM     31  H   UNL     1       1.636   8.155  21.228  0.00  0.00    +0.000 HD
ENDBRANCH  28  30
ENDBRANCH  27  28
ENDBRANCH  26  27
ENDBRANCH  18  19
ENDBRANCH   4  18
TORSDOF 7
ENDMDL
MODEL 8
REMARK VINA RESULT:      -7.4      1.781      2.881
REMARK  Name = 
REMARK  7 active torsions:
REMARK  status: ('A' for Active; 'I' for Inactive)
REMARK    1  A    between atoms: C_2  and  C_4
REMARK    2  A    between atoms: C_7  and  C_8
REMARK    3  A    between atoms: C_11  and  C_12
REMARK    4  A    between atoms: C_12  and  C_13
REMARK    5  A    between atoms: C_20  and  C_21
REMARK    6  A    between atoms: C_21  and  C_22
REMARK    7  A    between atoms: C_22  and  O_24
REMARK                            x       y       z     vdW  Elec       q    Type
REMARK                         _______ _______ _______ _____ _____    ______ ____
ROOT
ATOM      1  C   UNL     1       2.227   6.178  18.721  0.00  0.00    +0.000 C 
ATOM      2  N   UNL     1       1.589   5.455  17.857  0.00  0.00    +0.000 NA
ATOM      3  O   UNL     1       2.070   4.132  17.945  0.00  0.00    +0.000 OA
ATOM      4  C   UNL     1       3.071   4.049  18.972  0.00  0.00    +0.000 C 
ATOM      5  C   UNL     1       3.220   5.441  19.546  0.00  0.00    +0.000 C 
ENDROOT
BRANCH   1   9
ATOM      6  C   UNL     1       1.329  10.365  19.069  0.00  0.00    +0.000 A 
ATOM      7  C   UNL     1       1.173   9.505  20.162  0.00  0.00    +0.000 A 
ATOM      8  C   UNL     1       1.515   8.150  20.055  0.00  0.00    +0.000 A 
ATOM      9  C   UNL     1       2.019   7.639  18.855  0.00  0.00    +0.000 A 
ATOM     10  C   UNL     1       2.247   8.512  17.785  0.00  0.00    +0.000 A 
ATOM     11  C   UNL     1       1.897   9.868  17.891  0.00  0.00    +0.000 A 
BRANCH   6  13
ATOM     12  N   UNL     1       0.733  12.504  18.119  0.00  0.00    +0.000 NA
ATOM     13  C   UNL     1       0.840  11.775  19.181  0.00  0.00    +0.000 C 
ATOM     14  N   UNL     1       0.505  12.341  20.375  0.00  0.00    +0.000 N 
ATOM     15  H   UNL     1       0.328  13.407  18.392  0.00  0.00    +0.000 HD
ATOM     16  H   UNL     1       0.890  13.269  20.534  0.00  0.00    +0.000 HD
ATOM     17  H   UNL     1       0.496  11.786  21.216  0.00  0.00    +0.000 HD
ENDBRANCH   6  13
ENDBRANCH   1   9
BRANCH   4  18
ATOM     18  C   UNL     1       4.356   3.502  18.348  0.00  0.00    +0.000 C 
BRANCH  18  19
ATOM     19  C   UNL     1       5.598   4.139  18.944  0.00  0.00    +0.000 C 
ATOM     20  O   UNL     1       5.796   4.106  20.159  0.00  0.00    +0.000 OA
ATOM     21  N   UNL     1       6.510   4.721  18.061  0.00  0.00    +0.000 N 
ATOM     22  C   UNL     1       7.744   5.292  18.620  0.00  0.00    +0.000 C 
ATOM     23  C   UNL     1       7.745   6.816  18.529  0.00  0.00    +0.000 C 
ATOM     24  C   UNL     1       7.410   7.307  17.122  0.00  0.00    +0.000 C 
ATOM     25  C   UNL     1       6.130   6.652  16.606  0.00  0.00    +0.000 C 
ATOM     26  C   UNL     1       6.199   5.111  16.664  0.00  0.00    +0.000 C 
BRANCH  26  27
ATOM     27  C   UNL     1       7.203   4.497  15.671  0.00  0.00    +0.000 C 
BRANCH  27  28
ATOM     28  C   UNL     1       6.748   4.664  14.243  0.00  0.00    +0.000 C 
ATOM     29  O   UNL     1       5.772   4.117  13.757  0.00  0.00    +0.000 OA
BRANCH  28  30
ATOM     30  O   UNL     1       7.553   5.476  13.521  0.00  0.00    +0.000 OA
ATOM     31  H   UNL     1       8.378   5.062  13.203  0.00  0.00    +0.000 HD
ENDBRANCH  28  30
ENDBRANCH  27  28
ENDBRANCH  26  27
ENDBRANCH  18  19
ENDBRANCH   4  18
TORSDOF 7
ENDMDL
MODEL 9
REMARK VINA RESULT:      -7.4      3.225      5.448
REMARK  Name = 
REMARK  7 active torsions:
REMARK  status: ('A' for Active; 'I' for Inactive)
REMARK    1  A    between atoms: C_2  and  C_4
REMARK    2  A    between atoms: C_7  and  C_8
REMARK    3  A    between atoms: C_11  and  C_12
REMARK    4  A    between atoms: C_12  and  C_13
REMARK    5  A    between atoms: C_20  and  C_21
REMARK    6  A    between atoms: C_21  and  C_22
REMARK    7  A    between atoms: C_22  and  O_24
REMARK                            x       y       z     vdW  Elec       q    Type
REMARK                         _______ _______ _______ _____ _____    ______ ____
ROOT
ATOM      1  C   UNL     1      -0.021  10.096  18.125  0.00  0.00    +0.000 C 
ATOM      2  N   UNL     1       0.917  10.821  18.646  0.00  0.00    +0.000 NA
ATOM      3  O   UNL     1       2.142  10.141  18.491  0.00  0.00    +0.000 OA
ATOM      4  C   UNL     1       1.923   8.904  17.792  0.00  0.00    +0.000 C 
ATOM      5  C   UNL     1       0.438   8.822  17.513  0.00  0.00    +0.000 C 
ENDROOT
BRANCH   1   9
ATOM      6  C   UNL     1      -4.120  11.375  18.008  0.00  0.00    +0.000 A 
ATOM      7  C   UNL     1      -3.673  10.327  17.195  0.00  0.00    +0.000 A 
ATOM      8  C   UNL     1      -2.346   9.883  17.275  0.00  0.00    +0.000 A 
ATOM      9  C   UNL     1      -1.451  10.478  18.170  0.00  0.00    +0.000 A 
ATOM     10  C   UNL     1      -1.916  11.475  19.035  0.00  0.00    +0.000 A 
ATOM     11  C   UNL     1      -3.243  11.925  18.950  0.00  0.00    +0.000 A 
BRANCH   6  13
ATOM     12  N   UNL     1      -5.687  13.165  17.590  0.00  0.00    +0.000 NA
ATOM     13  C   UNL     1      -5.506  11.905  17.810  0.00  0.00    +0.000 C 
ATOM     14  N   UNL     1      -6.609  11.105  17.862  0.00  0.00    +0.000 N 
ATOM     15  H   UNL     1      -6.688  13.319  17.422  0.00  0.00    +0.000 HD
ATOM     16  H   UNL     1      -7.374  11.465  18.428  0.00  0.00    +0.000 HD
ATOM     17  H   UNL     1      -6.510  10.106  17.950  0.00  0.00    +0.000 HD
ENDBRANCH   6  13
ENDBRANCH   1   9
BRANCH   4  18
ATOM     18  C   UNL     1       2.448   7.761  18.664  0.00  0.00    +0.000 C 
BRANCH  18  19
ATOM     19  C   UNL     1       3.550   6.977  17.974  0.00  0.00    +0.000 C 
ATOM     20  O   UNL     1       4.325   7.538  17.198  0.00  0.00    +0.000 OA
ATOM     21  N   UNL     1       3.668   5.621  18.286  0.00  0.00    +0.000 N 
ATOM     22  C   UNL     1       4.765   4.863  17.669  0.00  0.00    +0.000 C 
ATOM     23  C   UNL     1       4.244   3.867  16.636  0.00  0.00    +0.000 C 
ATOM     24  C   UNL     1       3.120   2.996  17.196  0.00  0.00    +0.000 C 
ATOM     25  C   UNL     1       2.032   3.856  17.837  0.00  0.00    +0.000 C 
ATOM     26  C   UNL     1       2.600   4.805  18.915  0.00  0.00    +0.000 C 
BRANCH  26  27
ATOM     27  C   UNL     1       3.112   4.081  20.173  0.00  0.00    +0.000 C 
BRANCH  27  28
ATOM     28  C   UNL     1       1.977   3.652  21.069  0.00  0.00    +0.000 C 
ATOM     29  O   UNL     1       0.794   3.803  20.812  0.00  0.00    +0.000 OA
BRANCH  28  30
ATOM     30  O   UNL     1       2.397   3.094  22.227  0.00  0.00    +0.000 OA
ATOM     31  H   UNL     1       1.849   3.301  23.008  0.00  0.00    +0.000 HD
ENDBRANCH  28  30
ENDBRANCH  27  28
ENDBRANCH  26  27
ENDBRANCH  18  19
ENDBRANCH   4  18
TORSDOF 7
ENDMDL
