MODEL 1
REMARK VINA RESULT:      -7.0      0.000      0.000
REMARK  Name = 
REMARK  3 active torsions:
REMARK  status: ('A' for Active; 'I' for Inactive)
REMARK    1  A    between atoms: C_1  and  C_2
REMARK    2  A    between atoms: C_9  and  C_10
REMARK    3  A    between atoms: C_16  and  C_17
REMARK                            x       y       z     vdW  Elec       q    Type
REMARK                         _______ _______ _______ _____ _____    ______ ____
ROOT
ATOM      1  C   UNL     1      11.080  18.165  17.383  0.00  0.00    +0.000 C 
ATOM      2  C   UNL     1      10.979  17.608  18.772  0.00  0.00    +0.000 A 
ATOM      3  C   UNL     1      10.576  18.401  19.845  0.00  0.00    +0.000 A 
ATOM      4  C   UNL     1      10.444  17.852  21.125  0.00  0.00    +0.000 A 
ATOM      5  C   UNL     1      10.686  16.488  21.359  0.00  0.00    +0.000 A 
ATOM      6  C   UNL     1      11.089  15.681  20.280  0.00  0.00    +0.000 A 
ATOM      7  C   UNL     1      11.258  16.255  19.006  0.00  0.00    +0.000 A 
ATOM      8  N   UNL     1      11.265  14.292  20.425  0.00  0.00    +0.000 N 
ATOM      9  C   UNL     1      10.053  13.525  20.749  0.00  0.00    +0.000 C 
ATOM     10  C   UNL     1       9.430  13.803  22.097  0.00  0.00    +0.000 C 
ATOM     11  C   UNL     1       9.649  14.843  22.933  0.00  0.00    +0.000 C 
ATOM     12  C   UNL     1       9.031  14.869  24.333  0.00  0.00    +0.000 C 
ATOM     13  C   UNL     1       7.751  14.043  24.538  0.00  0.00    +0.000 C 
ATOM     14  C   UNL     1       7.489  13.768  26.039  0.00  0.00    +0.000 C 
ATOM     15  C   UNL     1       5.991  13.504  26.090  0.00  0.00    +0.000 C 
ATOM     16  C   UNL     1       5.454  14.644  25.247  0.00  0.00    +0.000 C 
ATOM     17  C   UNL     1       6.470  14.812  24.104  0.00  0.00    +0.000 C 
ATOM     18  C   UNL     1       7.863  12.684  23.842  0.00  0.00    +0.000 C 
ATOM     19  C   UNL     1       8.514  12.692  22.496  0.00  0.00    +0.000 C 
ATOM     20  O   UNL     1       8.332  11.730  21.744  0.00  0.00    +0.000 OA
ATOM     21  N   UNL     1      10.419  15.968  22.652  0.00  0.00    +0.000 N 
ATOM     22  H   UNL     1      11.749  13.897  19.628  0.00  0.00    +0.000 HD
ATOM     23  H   UNL     1      10.389  16.693  23.359  0.00  0.00    +0.000 HD
ENDROOT
BRANCH   9  24
ATOM     24  C   UNL     1       9.073  13.501  19.571  0.00  0.00    +0.000 A 
ATOM     25  C   UNL     1       8.053  14.476  19.517  0.00  0.00    +0.000 A 
ATOM     26  F   UNL     1       7.875  15.344  20.522  0.00  0.00    +0.000 F 
ATOM     27  C   UNL     1       7.161  14.569  18.455  0.00  0.00    +0.000 A 
ATOM     28  C   UNL     1       7.254  13.674  17.404  0.00  0.00    +0.000 A 
ATOM     29  C   UNL     1       8.214  12.668  17.445  0.00  0.00    +0.000 A 
ATOM     30  C   UNL     1       9.124  12.542  18.528  0.00  0.00    +0.000 A 
BRANCH  30  31
ATOM     31  C   UNL     1      10.016  11.313  18.473  0.00  0.00    +0.000 C 
ATOM     32  F   UNL     1      10.438  10.798  19.655  0.00  0.00    +0.000 F 
ATOM     33  F   UNL     1       9.414  10.277  17.818  0.00  0.00    +0.000 F 
ATOM     34  F   UNL     1      11.160  11.564  17.771  0.00  0.00    +0.000 F 
ENDBRANCH  30  31
ENDBRANCH   9  24
TORSDOF 2
ENDMDL
MODEL 2
REMARK VINA RESULT:      -6.9      9.676     11.662
REMARK  Name = 
REMARK  3 active torsions:
REMARK  status: ('A' for Active; 'I' for Inactive)
REMARK    1  A    between atoms: C_1  and  C_2
REMARK    2  A    between atoms: C_9  and  C_10
REMARK    3  A    between atoms: C_16  and  C_17
REMARK                            x       y       z     vdW  Elec       q    Type
REMARK                         _______ _______ _______ _____ _____    ______ ____
ROOT
ATOM      1  C   UNL     1       5.811   3.251  15.411  0.00  0.00    +0.000 C 
ATOM      2  C   UNL     1       5.420   4.535  16.079  0.00  0.00    +0.000 A 
ATOM      3  C   UNL     1       5.219   5.703  15.346  0.00  0.00    +0.000 A 
ATOM      4  C   UNL     1       4.809   6.881  15.983  0.00  0.00    +0.000 A 
ATOM      5  C   UNL     1       4.565   6.912  17.366  0.00  0.00    +0.000 A 
ATOM      6  C   UNL     1       4.763   5.736  18.111  0.00  0.00    +0.000 A 
ATOM      7  C   UNL     1       5.215   4.569  17.465  0.00  0.00    +0.000 A 
ATOM      8  N   UNL     1       4.456   5.673  19.484  0.00  0.00    +0.000 N 
ATOM      9  C   UNL     1       3.036   5.840  19.828  0.00  0.00    +0.000 C 
ATOM     10  C   UNL     1       2.435   7.194  19.536  0.00  0.00    +0.000 C 
ATOM     11  C   UNL     1       2.919   8.186  18.753  0.00  0.00    +0.000 C 
ATOM     12  C   UNL     1       2.234   9.553  18.705  0.00  0.00    +0.000 C 
ATOM     13  C   UNL     1       0.740   9.591  19.066  0.00  0.00    +0.000 C 
ATOM     14  C   UNL     1       0.282  11.024  19.432  0.00  0.00    +0.000 C 
ATOM     15  C   UNL     1      -1.217  10.988  19.175  0.00  0.00    +0.000 C 
ATOM     16  C   UNL     1      -1.276  10.312  17.819  0.00  0.00    +0.000 C 
ATOM     17  C   UNL     1      -0.174   9.239  17.856  0.00  0.00    +0.000 C 
ATOM     18  C   UNL     1       0.450   8.701  20.277  0.00  0.00    +0.000 C 
ATOM     19  C   UNL     1       1.174   7.392  20.312  0.00  0.00    +0.000 C 
ATOM     20  O   UNL     1       0.743   6.497  21.047  0.00  0.00    +0.000 OA
ATOM     21  N   UNL     1       4.038   8.102  17.931  0.00  0.00    +0.000 N 
ATOM     22  H   UNL     1       4.844   4.841  19.910  0.00  0.00    +0.000 HD
ATOM     23  H   UNL     1       4.193   8.910  17.338  0.00  0.00    +0.000 HD
ENDROOT
BRANCH   9  24
ATOM     24  C   UNL     1       2.202   4.643  19.362  0.00  0.00    +0.000 A 
ATOM     25  C   UNL     1       1.630   4.675  18.071  0.00  0.00    +0.000 A 
ATOM     26  F   UNL     1       1.724   5.770  17.303  0.00  0.00    +0.000 F 
ATOM     27  C   UNL     1       0.913   3.609  17.542  0.00  0.00    +0.000 A 
ATOM     28  C   UNL     1       0.733   2.464  18.297  0.00  0.00    +0.000 A 
ATOM     29  C   UNL     1       1.239   2.413  19.592  0.00  0.00    +0.000 A 
ATOM     30  C   UNL     1       1.959   3.496  20.160  0.00  0.00    +0.000 A 
BRANCH  30  31
ATOM     31  C   UNL     1       2.324   3.322  21.625  0.00  0.00    +0.000 C 
ATOM     32  F   UNL     1       2.650   4.440  22.322  0.00  0.00    +0.000 F 
ATOM     33  F   UNL     1       1.317   2.731  22.333  0.00  0.00    +0.000 F 
ATOM     34  F   UNL     1       3.400   2.493  21.771  0.00  0.00    +0.000 F 
ENDBRANCH  30  31
ENDBRANCH   9  24
TORSDOF 2
ENDMDL
MODEL 3
REMARK VINA RESULT:      -6.8      8.492     11.154
REMARK  Name = 
REMARK  3 active torsions:
REMARK  status: ('A' for Active; 'I' for Inactive)
REMARK    1  A    between atoms: C_1  and  C_2
REMARK    2  A    between atoms: C_9  and  C_10
REMARK    3  A    between atoms: C_16  and  C_17
REMARK                            x       y       z     vdW  Elec       q    Type
REMARK                         _______ _______ _______ _____ _____    ______ ____
ROOT
ATOM      1  C   UNL     1      -4.411  12.231  24.475  0.00  0.00    +0.000 C 
ATOM      2  C   UNL     1      -3.679  13.219  23.617  0.00  0.00    +0.000 A 
ATOM      3  C   UNL     1      -3.068  14.346  24.165  0.00  0.00    +0.000 A 
ATOM      4  C   UNL     1      -2.351  15.232  23.353  0.00  0.00    +0.000 A 
ATOM      5  C   UNL     1      -2.204  14.999  21.975  0.00  0.00    +0.000 A 
ATOM      6  C   UNL     1      -2.815  13.862  21.416  0.00  0.00    +0.000 A 
ATOM      7  C   UNL     1      -3.568  13.001  22.237  0.00  0.00    +0.000 A 
ATOM      8  N   UNL     1      -2.637  13.521  20.062  0.00  0.00    +0.000 N 
ATOM      9  C   UNL     1      -1.264  13.172  19.666  0.00  0.00    +0.000 C 
ATOM     10  C   UNL     1      -0.247  14.285  19.742  0.00  0.00    +0.000 C 
ATOM     11  C   UNL     1      -0.337  15.474  20.380  0.00  0.00    +0.000 C 
ATOM     12  C   UNL     1       0.747  16.541  20.211  0.00  0.00    +0.000 C 
ATOM     13  C   UNL     1       2.148  16.045  19.817  0.00  0.00    +0.000 C 
ATOM     14  C   UNL     1       3.011  17.191  19.234  0.00  0.00    +0.000 C 
ATOM     15  C   UNL     1       4.436  16.706  19.460  0.00  0.00    +0.000 C 
ATOM     16  C   UNL     1       4.369  16.234  20.900  0.00  0.00    +0.000 C 
ATOM     17  C   UNL     1       2.984  15.581  21.045  0.00  0.00    +0.000 C 
ATOM     18  C   UNL     1       2.058  14.956  18.744  0.00  0.00    +0.000 C 
ATOM     19  C   UNL     1       0.957  13.959  18.918  0.00  0.00    +0.000 C 
ATOM     20  O   UNL     1       1.030  12.884  18.315  0.00  0.00    +0.000 OA
ATOM     21  N   UNL     1      -1.366  15.868  21.230  0.00  0.00    +0.000 N 
ATOM     22  H   UNL     1      -3.297  12.810  19.771  0.00  0.00    +0.000 HD
ATOM     23  H   UNL     1      -1.217  16.754  21.699  0.00  0.00    +0.000 HD
ENDROOT
BRANCH   9  24
ATOM     24  C   UNL     1      -0.823  11.843  20.287  0.00  0.00    +0.000 A 
ATOM     25  C   UNL     1      -0.235  11.854  21.570  0.00  0.00    +0.000 A 
ATOM     26  F   UNL     1       0.031  13.009  22.196  0.00  0.00    +0.000 F 
ATOM     27  C   UNL     1       0.137  10.692  22.235  0.00  0.00    +0.000 A 
ATOM     28  C   UNL     1      -0.061   9.465  21.629  0.00  0.00    +0.000 A 
ATOM     29  C   UNL     1      -0.593   9.414  20.344  0.00  0.00    +0.000 A 
ATOM     30  C   UNL     1      -0.962  10.589  19.638  0.00  0.00    +0.000 A 
BRANCH  30  31
ATOM     31  C   UNL     1      -1.402  10.360  18.202  0.00  0.00    +0.000 C 
ATOM     32  F   UNL     1      -1.690  11.456  17.456  0.00  0.00    +0.000 F 
ATOM     33  F   UNL     1      -0.465   9.669  17.488  0.00  0.00    +0.000 F 
ATOM     34  F   UNL     1      -2.531   9.593  18.147  0.00  0.00    +0.000 F 
ENDBRANCH  30  31
ENDBRANCH   9  24
TORSDOF 2
ENDMDL
MODEL 4
REMARK VINA RESULT:      -6.7      2.965      6.080
REMARK  Name = 
REMARK  3 active torsions:
REMARK  status: ('A' for Active; 'I' for Inactive)
REMARK    1  A    between atoms: C_1  and  C_2
REMARK    2  A    between atoms: C_9  and  C_10
REMARK    3  A    between atoms: C_16  and  C_17
REMARK                            x       y       z     vdW  Elec       q    Type
REMARK                         _______ _______ _______ _____ _____    ______ ____
ROOT
ATOM      1  C   UNL     1      12.131  11.521  19.653  0.00  0.00    +0.000 C 
ATOM      2  C   UNL     1      10.953  12.184  19.003  0.00  0.00    +0.000 A 
ATOM      3  C   UNL     1       9.932  11.438  18.418  0.00  0.00    +0.000 A 
ATOM      4  C   UNL     1       8.819  12.074  17.857  0.00  0.00    +0.000 A 
ATOM      5  C   UNL     1       8.687  13.472  17.889  0.00  0.00    +0.000 A 
ATOM      6  C   UNL     1       9.712  14.231  18.481  0.00  0.00    +0.000 A 
ATOM      7  C   UNL     1      10.846  13.581  19.005  0.00  0.00    +0.000 A 
ATOM      8  N   UNL     1       9.606  15.627  18.625  0.00  0.00    +0.000 N 
ATOM      9  C   UNL     1       8.532  16.097  19.512  0.00  0.00    +0.000 C 
ATOM     10  C   UNL     1       7.120  15.822  19.052  0.00  0.00    +0.000 C 
ATOM     11  C   UNL     1       6.692  14.968  18.095  0.00  0.00    +0.000 C 
ATOM     12  C   UNL     1       5.224  14.941  17.664  0.00  0.00    +0.000 C 
ATOM     13  C   UNL     1       4.194  15.439  18.692  0.00  0.00    +0.000 C 
ATOM     14  C   UNL     1       2.850  15.802  18.015  0.00  0.00    +0.000 C 
ATOM     15  C   UNL     1       1.844  15.688  19.152  0.00  0.00    +0.000 C 
ATOM     16  C   UNL     1       2.242  14.364  19.776  0.00  0.00    +0.000 C 
ATOM     17  C   UNL     1       3.779  14.331  19.702  0.00  0.00    +0.000 C 
ATOM     18  C   UNL     1       4.698  16.698  19.401  0.00  0.00    +0.000 C 
ATOM     19  C   UNL     1       6.149  16.706  19.765  0.00  0.00    +0.000 C 
ATOM     20  O   UNL     1       6.540  17.504  20.622  0.00  0.00    +0.000 OA
ATOM     21  N   UNL     1       7.481  14.047  17.411  0.00  0.00    +0.000 N 
ATOM     22  H   UNL     1      10.496  16.041  18.872  0.00  0.00    +0.000 HD
ATOM     23  H   UNL     1       6.971  13.419  16.800  0.00  0.00    +0.000 HD
ENDROOT
BRANCH   9  24
ATOM     24  C   UNL     1       8.820  15.747  20.975  0.00  0.00    +0.000 A 
ATOM     25  C   UNL     1       8.197  14.612  21.537  0.00  0.00    +0.000 A 
ATOM     26  F   UNL     1       7.291  13.909  20.843  0.00  0.00    +0.000 F 
ATOM     27  C   UNL     1       8.448  14.183  22.835  0.00  0.00    +0.000 A 
ATOM     28  C   UNL     1       9.335  14.889  23.628  0.00  0.00    +0.000 A 
ATOM     29  C   UNL     1       9.932  16.042  23.127  0.00  0.00    +0.000 A 
ATOM     30  C   UNL     1       9.676  16.509  21.811  0.00  0.00    +0.000 A 
BRANCH  30  31
ATOM     31  C   UNL     1      10.307  17.849  21.475  0.00  0.00    +0.000 C 
ATOM     32  F   UNL     1       9.665  18.630  20.569  0.00  0.00    +0.000 F 
ATOM     33  F   UNL     1      10.462  18.631  22.584  0.00  0.00    +0.000 F 
ATOM     34  F   UNL     1      11.566  17.690  20.970  0.00  0.00    +0.000 F 
ENDBRANCH  30  31
ENDBRANCH   9  24
TORSDOF 2
ENDMDL
MODEL 5
REMARK VINA RESULT:      -6.6     10.978     13.656
REMARK  Name = 
REMARK  3 active torsions:
REMARK  status: ('A' for Active; 'I' for Inactive)
REMARK    1  A    between atoms: C_1  and  C_2
REMARK    2  A    between atoms: C_9  and  C_10
REMARK    3  A    between atoms: C_16  and  C_17
REMARK                            x       y       z     vdW  Elec       q    Type
REMARK                         _______ _______ _______ _____ _____    ______ ____
ROOT
ATOM      1  C   UNL     1      -1.750  16.366  26.019  0.00  0.00    +0.000 C 
ATOM      2  C   UNL     1      -2.851  15.719  25.233  0.00  0.00    +0.000 A 
ATOM      3  C   UNL     1      -4.049  16.383  24.978  0.00  0.00    +0.000 A 
ATOM      4  C   UNL     1      -5.047  15.780  24.204  0.00  0.00    +0.000 A 
ATOM      5  C   UNL     1      -4.860  14.506  23.643  0.00  0.00    +0.000 A 
ATOM      6  C   UNL     1      -3.652  13.831  23.892  0.00  0.00    +0.000 A 
ATOM      7  C   UNL     1      -2.673  14.432  24.707  0.00  0.00    +0.000 A 
ATOM      8  N   UNL     1      -3.363  12.590  23.292  0.00  0.00    +0.000 N 
ATOM      9  C   UNL     1      -3.234  12.605  21.827  0.00  0.00    +0.000 C 
ATOM     10  C   UNL     1      -4.489  12.931  21.052  0.00  0.00    +0.000 C 
ATOM     11  C   UNL     1      -5.640  13.484  21.496  0.00  0.00    +0.000 C 
ATOM     12  C   UNL     1      -6.862  13.596  20.582  0.00  0.00    +0.000 C 
ATOM     13  C   UNL     1      -6.592  13.623  19.069  0.00  0.00    +0.000 C 
ATOM     14  C   UNL     1      -7.865  13.273  18.260  0.00  0.00    +0.000 C 
ATOM     15  C   UNL     1      -7.601  13.903  16.901  0.00  0.00    +0.000 C 
ATOM     16  C   UNL     1      -7.102  15.279  17.297  0.00  0.00    +0.000 C 
ATOM     17  C   UNL     1      -6.242  15.049  18.552  0.00  0.00    +0.000 C 
ATOM     18  C   UNL     1      -5.519  12.600  18.689  0.00  0.00    +0.000 C 
ATOM     19  C   UNL     1      -4.363  12.487  19.631  0.00  0.00    +0.000 C 
ATOM     20  O   UNL     1      -3.321  11.959  19.229  0.00  0.00    +0.000 OA
ATOM     21  N   UNL     1      -5.858  14.000  22.770  0.00  0.00    +0.000 N 
ATOM     22  H   UNL     1      -2.564  12.147  23.728  0.00  0.00    +0.000 HD
ATOM     23  H   UNL     1      -6.749  14.467  22.895  0.00  0.00    +0.000 HD
ENDROOT
BRANCH   9  24
ATOM     24  C   UNL     1      -1.978  13.362  21.383  0.00  0.00    +0.000 A 
ATOM     25  C   UNL     1      -2.106  14.705  20.969  0.00  0.00    +0.000 A 
ATOM     26  F   UNL     1      -3.311  15.283  20.866  0.00  0.00    +0.000 F 
ATOM     27  C   UNL     1      -1.014  15.487  20.611  0.00  0.00    +0.000 A 
ATOM     28  C   UNL     1       0.257  14.942  20.645  0.00  0.00    +0.000 A 
ATOM     29  C   UNL     1       0.419  13.606  20.999  0.00  0.00    +0.000 A 
ATOM     30  C   UNL     1      -0.684  12.784  21.352  0.00  0.00    +0.000 A 
BRANCH  30  31
ATOM     31  C   UNL     1      -0.341  11.322  21.583  0.00  0.00    +0.000 C 
ATOM     32  F   UNL     1       0.956  10.954  21.430  0.00  0.00    +0.000 F 
ATOM     33  F   UNL     1      -0.691  10.911  22.838  0.00  0.00    +0.000 F 
ATOM     34  F   UNL     1      -1.039  10.511  20.734  0.00  0.00    +0.000 F 
ENDBRANCH  30  31
ENDBRANCH   9  24
TORSDOF 2
ENDMDL
MODEL 6
REMARK VINA RESULT:      -6.4     10.680     13.589
REMARK  Name = 
REMARK  3 active torsions:
REMARK  status: ('A' for Active; 'I' for Inactive)
REMARK    1  A    between atoms: C_1  and  C_2
REMARK    2  A    between atoms: C_9  and  C_10
REMARK    3  A    between atoms: C_16  and  C_17
REMARK                            x       y       z     vdW  Elec       q    Type
REMARK                         _______ _______ _______ _____ _____    ______ ____
ROOT
ATOM      1  C   UNL     1      -5.027  18.101  25.533  0.00  0.00    +0.000 C 
ATOM      2  C   UNL     1      -3.947  17.403  24.760  0.00  0.00    +0.000 A 
ATOM      3  C   UNL     1      -2.779  16.964  25.379  0.00  0.00    +0.000 A 
ATOM      4  C   UNL     1      -1.803  16.275  24.650  0.00  0.00    +0.000 A 
ATOM      5  C   UNL     1      -1.984  15.984  23.287  0.00  0.00    +0.000 A 
ATOM      6  C   UNL     1      -3.163  16.421  22.657  0.00  0.00    +0.000 A 
ATOM      7  C   UNL     1      -4.118  17.150  23.392  0.00  0.00    +0.000 A 
ATOM      8  N   UNL     1      -3.448  16.092  21.318  0.00  0.00    +0.000 N 
ATOM      9  C   UNL     1      -3.645  14.660  21.042  0.00  0.00    +0.000 C 
ATOM     10  C   UNL     1      -2.436  13.775  21.227  0.00  0.00    +0.000 C 
ATOM     11  C   UNL     1      -1.279  14.044  21.874  0.00  0.00    +0.000 C 
ATOM     12  C   UNL     1      -0.103  13.066  21.821  0.00  0.00    +0.000 C 
ATOM     13  C   UNL     1      -0.443  11.592  21.546  0.00  0.00    +0.000 C 
ATOM     14  C   UNL     1       0.800  10.806  21.062  0.00  0.00    +0.000 C 
ATOM     15  C   UNL     1       0.458   9.364  21.407  0.00  0.00    +0.000 C 
ATOM     16  C   UNL     1      -0.056   9.507  22.827  0.00  0.00    +0.000 C 
ATOM     17  C   UNL     1      -0.851  10.824  22.836  0.00  0.00    +0.000 C 
ATOM     18  C   UNL     1      -1.507  11.474  20.452  0.00  0.00    +0.000 C 
ATOM     19  C   UNL     1      -2.616  12.477  20.509  0.00  0.00    +0.000 C 
ATOM     20  O   UNL     1      -3.661  12.239  19.897  0.00  0.00    +0.000 OA
ATOM     21  N   UNL     1      -1.015  15.179  22.635  0.00  0.00    +0.000 N 
ATOM     22  H   UNL     1      -4.215  16.645  20.958  0.00  0.00    +0.000 HD
ATOM     23  H   UNL     1      -0.131  15.165  23.130  0.00  0.00    +0.000 HD
ENDROOT
BRANCH   9  24
ATOM     24  C   UNL     1      -4.938  14.139  21.677  0.00  0.00    +0.000 A 
ATOM     25  C   UNL     1      -4.869  13.515  22.941  0.00  0.00    +0.000 A 
ATOM     26  F   UNL     1      -3.689  13.286  23.534  0.00  0.00    +0.000 F 
ATOM     27  C   UNL     1      -5.998  13.069  23.620  0.00  0.00    +0.000 A 
ATOM     28  C   UNL     1      -7.246  13.227  23.046  0.00  0.00    +0.000 A 
ATOM     29  C   UNL     1      -7.351  13.793  21.779  0.00  0.00    +0.000 A 
ATOM     30  C   UNL     1      -6.211  14.238  21.060  0.00  0.00    +0.000 A 
BRANCH  30  31
ATOM     31  C   UNL     1      -6.493  14.708  19.643  0.00  0.00    +0.000 C 
ATOM     32  F   UNL     1      -7.789  14.722  19.238  0.00  0.00    +0.000 F 
ATOM     33  F   UNL     1      -6.030  15.974  19.426  0.00  0.00    +0.000 F 
ATOM     34  F   UNL     1      -5.848  13.928  18.726  0.00  0.00    +0.000 F 
ENDBRANCH  30  31
ENDBRANCH   9  24
TORSDOF 2
ENDMDL
MODEL 7
REMARK VINA RESULT:      -6.4     10.037     12.465
REMARK  Name = 
REMARK  3 active torsions:
REMARK  status: ('A' for Active; 'I' for Inactive)
REMARK    1  A    between atoms: C_1  and  C_2
REMARK    2  A    between atoms: C_9  and  C_10
REMARK    3  A    between atoms: C_16  and  C_17
REMARK                            x       y       z     vdW  Elec       q    Type
REMARK                         _______ _______ _______ _____ _____    ______ ____
ROOT
ATOM      1  C   UNL     1      -0.345  16.821  25.245  0.00  0.00    +0.000 C 
ATOM      2  C   UNL     1      -1.355  15.837  24.735  0.00  0.00    +0.000 A 
ATOM      3  C   UNL     1      -2.723  16.054  24.889  0.00  0.00    +0.000 A 
ATOM      4  C   UNL     1      -3.650  15.146  24.367  0.00  0.00    +0.000 A 
ATOM      5  C   UNL     1      -3.233  14.010  23.654  0.00  0.00    +0.000 A 
ATOM      6  C   UNL     1      -1.854  13.786  23.492  0.00  0.00    +0.000 A 
ATOM      7  C   UNL     1      -0.931  14.686  24.058  0.00  0.00    +0.000 A 
ATOM      8  N   UNL     1      -1.367  12.716  22.717  0.00  0.00    +0.000 N 
ATOM      9  C   UNL     1      -1.686  12.770  21.282  0.00  0.00    +0.000 C 
ATOM     10  C   UNL     1      -3.147  12.649  20.921  0.00  0.00    +0.000 C 
ATOM     11  C   UNL     1      -4.232  12.779  21.718  0.00  0.00    +0.000 C 
ATOM     12  C   UNL     1      -5.635  12.466  21.194  0.00  0.00    +0.000 C 
ATOM     13  C   UNL     1      -5.846  12.580  19.676  0.00  0.00    +0.000 C 
ATOM     14  C   UNL     1      -7.113  11.816  19.221  0.00  0.00    +0.000 C 
ATOM     15  C   UNL     1      -7.480  12.496  17.910  0.00  0.00    +0.000 C 
ATOM     16  C   UNL     1      -7.363  13.961  18.285  0.00  0.00    +0.000 C 
ATOM     17  C   UNL     1      -6.147  14.039  19.224  0.00  0.00    +0.000 C 
ATOM     18  C   UNL     1      -4.660  11.982  18.915  0.00  0.00    +0.000 C 
ATOM     19  C   UNL     1      -3.307  12.270  19.484  0.00  0.00    +0.000 C 
ATOM     20  O   UNL     1      -2.317  12.127  18.760  0.00  0.00    +0.000 OA
ATOM     21  N   UNL     1      -4.222  13.193  23.047  0.00  0.00    +0.000 N 
ATOM     22  H   UNL     1      -0.377  12.571  22.869  0.00  0.00    +0.000 HD
ATOM     23  H   UNL     1      -5.138  13.330  23.458  0.00  0.00    +0.000 HD
ENDROOT
BRANCH   9  24
ATOM     24  C   UNL     1      -0.934  13.907  20.584  0.00  0.00    +0.000 A 
ATOM     25  C   UNL     1      -1.580  15.153  20.428  0.00  0.00    +0.000 A 
ATOM     26  F   UNL     1      -2.860  15.316  20.789  0.00  0.00    +0.000 F 
ATOM     27  C   UNL     1      -0.953  16.258  19.864  0.00  0.00    +0.000 A 
ATOM     28  C   UNL     1       0.354  16.150  19.423  0.00  0.00    +0.000 A 
ATOM     29  C   UNL     1       1.008  14.925  19.514  0.00  0.00    +0.000 A 
ATOM     30  C   UNL     1       0.381  13.779  20.069  0.00  0.00    +0.000 A 
BRANCH  30  31
ATOM     31  C   UNL     1       1.191  12.497  19.970  0.00  0.00    +0.000 C 
ATOM     32  F   UNL     1       1.406  11.806  21.118  0.00  0.00    +0.000 F 
ATOM     33  F   UNL     1       0.623  11.603  19.107  0.00  0.00    +0.000 F 
ATOM     34  F   UNL     1       2.437  12.738  19.467  0.00  0.00    +0.000 F 
ENDBRANCH  30  31
ENDBRANCH   9  24
TORSDOF 2
ENDMDL
MODEL 8
REMARK VINA RESULT:      -6.4      9.336     11.212
REMARK  Name = 
REMARK  3 active torsions:
REMARK  status: ('A' for Active; 'I' for Inactive)
REMARK    1  A    between atoms: C_1  and  C_2
REMARK    2  A    between atoms: C_9  and  C_10
REMARK    3  A    between atoms: C_16  and  C_17
REMARK                            x       y       z     vdW  Elec       q    Type
REMARK                         _______ _______ _______ _____ _____    ______ ____
ROOT
ATOM      1  C   UNL     1       2.628  14.942  18.121  0.00  0.00    +0.000 C 
ATOM      2  C   UNL     1       1.660  15.296  19.211  0.00  0.00    +0.000 A 
ATOM      3  C   UNL     1       0.894  16.459  19.152  0.00  0.00    +0.000 A 
ATOM      4  C   UNL     1      -0.036  16.748  20.157  0.00  0.00    +0.000 A 
ATOM      5  C   UNL     1      -0.242  15.869  21.233  0.00  0.00    +0.000 A 
ATOM      6  C   UNL     1       0.526  14.692  21.297  0.00  0.00    +0.000 A 
ATOM      7  C   UNL     1       1.487  14.433  20.301  0.00  0.00    +0.000 A 
ATOM      8  N   UNL     1       0.312  13.727  22.299  0.00  0.00    +0.000 N 
ATOM      9  C   UNL     1      -0.997  13.058  22.271  0.00  0.00    +0.000 C 
ATOM     10  C   UNL     1      -2.197  13.930  22.556  0.00  0.00    +0.000 C 
ATOM     11  C   UNL     1      -2.282  15.280  22.557  0.00  0.00    +0.000 C 
ATOM     12  C   UNL     1      -3.556  15.987  23.023  0.00  0.00    +0.000 C 
ATOM     13  C   UNL     1      -4.865  15.187  22.923  0.00  0.00    +0.000 C 
ATOM     14  C   UNL     1      -5.969  15.793  23.824  0.00  0.00    +0.000 C 
ATOM     15  C   UNL     1      -7.257  15.297  23.182  0.00  0.00    +0.000 C 
ATOM     16  C   UNL     1      -6.993  15.583  21.716  0.00  0.00    +0.000 C 
ATOM     17  C   UNL     1      -5.503  15.263  21.506  0.00  0.00    +0.000 C 
ATOM     18  C   UNL     1      -4.656  13.740  23.377  0.00  0.00    +0.000 C 
ATOM     19  C   UNL     1      -3.377  13.098  22.940  0.00  0.00    +0.000 C 
ATOM     20  O   UNL     1      -3.294  11.867  22.964  0.00  0.00    +0.000 OA
ATOM     21  N   UNL     1      -1.282  16.160  22.153  0.00  0.00    +0.000 N 
ATOM     22  H   UNL     1       1.069  13.055  22.331  0.00  0.00    +0.000 HD
ATOM     23  H   UNL     1      -1.558  17.135  22.125  0.00  0.00    +0.000 HD
ENDROOT
BRANCH   9  24
ATOM     24  C   UNL     1      -1.133  12.142  21.051  0.00  0.00    +0.000 A 
ATOM     25  C   UNL     1      -1.737  12.654  19.882  0.00  0.00    +0.000 A 
ATOM     26  F   UNL     1      -2.275  13.881  19.865  0.00  0.00    +0.000 F 
ATOM     27  C   UNL     1      -1.845  11.916  18.709  0.00  0.00    +0.000 A 
ATOM     28  C   UNL     1      -1.356  10.623  18.667  0.00  0.00    +0.000 A 
ATOM     29  C   UNL     1      -0.798  10.065  19.814  0.00  0.00    +0.000 A 
ATOM     30  C   UNL     1      -0.694  10.794  21.028  0.00  0.00    +0.000 A 
BRANCH  30  31
ATOM     31  C   UNL     1      -0.182   9.991  22.212  0.00  0.00    +0.000 C 
ATOM     32  F   UNL     1      -0.572  10.389  23.450  0.00  0.00    +0.000 F 
ATOM     33  F   UNL     1      -0.535   8.674  22.125  0.00  0.00    +0.000 F 
ATOM     34  F   UNL     1       1.183   9.993  22.257  0.00  0.00    +0.000 F 
ENDBRANCH  30  31
ENDBRANCH   9  24
TORSDOF 2
ENDMDL
MODEL 9
REMARK VINA RESULT:      -6.4     11.494     13.993
REMARK  Name = 
REMARK  3 active torsions:
REMARK  status: ('A' for Active; 'I' for Inactive)
REMARK    1  A    between atoms: C_1  and  C_2
REMARK    2  A    between atoms: C_9  and  C_10
REMARK    3  A    between atoms: C_16  and  C_17
REMARK                            x       y       z     vdW  Elec       q    Type
REMARK                         _______ _______ _______ _____ _____    ______ ____
ROOT
ATOM      1  C   UNL     1      -7.369  17.011  23.559  0.00  0.00    +0.000 C 
ATOM      2  C   UNL     1      -5.994  16.563  23.161  0.00  0.00    +0.000 A 
ATOM      3  C   UNL     1      -4.976  16.423  24.102  0.00  0.00    +0.000 A 
ATOM      4  C   UNL     1      -3.712  15.960  23.717  0.00  0.00    +0.000 A 
ATOM      5  C   UNL     1      -3.443  15.601  22.386  0.00  0.00    +0.000 A 
ATOM      6  C   UNL     1      -4.468  15.738  21.432  0.00  0.00    +0.000 A 
ATOM      7  C   UNL     1      -5.722  16.243  21.825  0.00  0.00    +0.000 A 
ATOM      8  N   UNL     1      -4.294  15.317  20.100  0.00  0.00    +0.000 N 
ATOM      9  C   UNL     1      -4.093  13.873  19.908  0.00  0.00    +0.000 C 
ATOM     10  C   UNL     1      -2.820  13.297  20.481  0.00  0.00    +0.000 C 
ATOM     11  C   UNL     1      -1.973  13.842  21.383  0.00  0.00    +0.000 C 
ATOM     12  C   UNL     1      -0.647  13.163  21.727  0.00  0.00    +0.000 C 
ATOM     13  C   UNL     1      -0.571  11.644  21.502  0.00  0.00    +0.000 C 
ATOM     14  C   UNL     1       0.897  11.154  21.433  0.00  0.00    +0.000 C 
ATOM     15  C   UNL     1       0.793   9.682  21.801  0.00  0.00    +0.000 C 
ATOM     16  C   UNL     1      -0.111   9.737  23.017  0.00  0.00    +0.000 C 
ATOM     17  C   UNL     1      -1.143  10.834  22.702  0.00  0.00    +0.000 C 
ATOM     18  C   UNL     1      -1.240  11.255  20.181  0.00  0.00    +0.000 C 
ATOM     19  C   UNL     1      -2.511  11.974  19.858  0.00  0.00    +0.000 C 
ATOM     20  O   UNL     1      -3.270  11.486  19.016  0.00  0.00    +0.000 OA
ATOM     21  N   UNL     1      -2.181  15.027  22.084  0.00  0.00    +0.000 N 
ATOM     22  H   UNL     1      -5.033  15.669  19.503  0.00  0.00    +0.000 HD
ATOM     23  H   UNL     1      -1.487  15.230  22.794  0.00  0.00    +0.000 HD
ENDROOT
BRANCH   9  24
ATOM     24  C   UNL     1      -5.367  13.083  20.224  0.00  0.00    +0.000 A 
ATOM     25  C   UNL     1      -5.553  12.592  21.534  0.00  0.00    +0.000 A 
ATOM     26  F   UNL     1      -4.595  12.721  22.462  0.00  0.00    +0.000 F 
ATOM     27  C   UNL     1      -6.706  11.920  21.926  0.00  0.00    +0.000 A 
ATOM     28  C   UNL     1      -7.718  11.706  21.008  0.00  0.00    +0.000 A 
ATOM     29  C   UNL     1      -7.550  12.131  19.694  0.00  0.00    +0.000 A 
ATOM     30  C   UNL     1      -6.375  12.803  19.266  0.00  0.00    +0.000 A 
BRANCH  30  31
ATOM     31  C   UNL     1      -6.303  13.078  17.773  0.00  0.00    +0.000 C 
ATOM     32  F   UNL     1      -5.220  12.608  17.104  0.00  0.00    +0.000 F 
ATOM     33  F   UNL     1      -7.387  12.575  17.112  0.00  0.00    +0.000 F 
ATOM     34  F   UNL     1      -6.318  14.419  17.517  0.00  0.00    +0.000 F 
ENDBRANCH  30  31
ENDBRANCH   9  24
TORSDOF 2
ENDMDL
