MODEL 1
REMARK VINA RESULT:      -7.6      0.000      0.000
REMARK  Name = 
REMARK  2 active torsions:
REMARK  status: ('A' for Active; 'I' for Inactive)
REMARK    1  A    between atoms: C_1  and  N_2
REMARK    2  A    between atoms: C_21  and  O_22
REMARK                            x       y       z     vdW  Elec       q    Type
REMARK                         _______ _______ _______ _____ _____    ______ ____
ROOT
ATOM      1  C   UNL     1       1.415   8.621  20.581  0.00  0.00    +0.000 C 
ATOM      2  N   UNL     1       0.371   9.576  20.862  0.00  0.00    +0.000 N 
ATOM      3  C   UNL     1       0.002  10.374  19.805  0.00  0.00    +0.000 A 
ATOM      4  O   UNL     1       0.023  10.053  18.628  0.00  0.00    +0.000 OA
ATOM      5  C   UNL     1      -0.251  11.614  20.454  0.00  0.00    +0.000 A 
ATOM      6  C   UNL     1       0.325  12.806  20.024  0.00  0.00    +0.000 A 
ATOM      7  O   UNL     1       1.121  12.776  18.907  0.00  0.00    +0.000 OA
ATOM      8  C   UNL     1       2.172  13.650  18.952  0.00  0.00    +0.000 A 
ATOM      9  C   UNL     1       3.253  13.394  18.114  0.00  0.00    +0.000 A 
ATOM     10  C   UNL     1       4.319  14.288  18.094  0.00  0.00    +0.000 A 
ATOM     11  C   UNL     1       4.301  15.417  18.918  0.00  0.00    +0.000 A 
ATOM     12  C   UNL     1       3.227  15.648  19.784  0.00  0.00    +0.000 A 
ATOM     13  C   UNL     1       2.161  14.758  19.802  0.00  0.00    +0.000 A 
ATOM     14  O   UNL     1       1.116  14.989  20.673  0.00  0.00    +0.000 OA
ATOM     15  C   UNL     1       0.354  13.871  20.919  0.00  0.00    +0.000 A 
ATOM     16  C   UNL     1      -0.435  13.747  22.061  0.00  0.00    +0.000 A 
ATOM     17  N   UNL     1      -0.961  14.662  22.937  0.00  0.00    +0.000 N 
ATOM     18  C   UNL     1      -2.088  14.111  23.528  0.00  0.00    +0.000 A 
ATOM     19  C   UNL     1      -3.151  14.766  24.178  0.00  0.00    +0.000 A 
ATOM     20  C   UNL     1      -4.233  13.995  24.600  0.00  0.00    +0.000 A 
ATOM     21  C   UNL     1      -4.230  12.618  24.403  0.00  0.00    +0.000 A 
ATOM     22  C   UNL     1      -3.153  11.956  23.777  0.00  0.00    +0.000 A 
ATOM     23  C   UNL     1      -2.065  12.717  23.310  0.00  0.00    +0.000 A 
ATOM     24  C   UNL     1      -0.907  12.545  22.532  0.00  0.00    +0.000 A 
ATOM     25  C   UNL     1      -0.584  11.367  21.793  0.00  0.00    +0.000 A 
ATOM     26  C   UNL     1       0.125  10.149  22.124  0.00  0.00    +0.000 A 
ATOM     27  O   UNL     1       0.656   9.777  23.163  0.00  0.00    +0.000 OA
ATOM     28  H   UNL     1      -0.775  15.654  22.900  0.00  0.00    +0.000 HD
ENDROOT
BRANCH  21  29
ATOM     29  O   UNL     1      -5.306  11.868  24.791  0.00  0.00    +0.000 OA
ATOM     30  H   UNL     1      -5.071  10.926  24.717  0.00  0.00    +0.000 HD
ENDBRANCH  21  29
TORSDOF 1
ENDMDL
MODEL 2
REMARK VINA RESULT:      -7.3      2.982      4.830
REMARK  Name = 
REMARK  2 active torsions:
REMARK  status: ('A' for Active; 'I' for Inactive)
REMARK    1  A    between atoms: C_1  and  N_2
REMARK    2  A    between atoms: C_21  and  O_22
REMARK                            x       y       z     vdW  Elec       q    Type
REMARK                         _______ _______ _______ _____ _____    ______ ____
ROOT
ATOM      1  C   UNL     1       2.531  12.705  18.415  0.00  0.00    +0.000 C 
ATOM      2  N   UNL     1       1.610  12.708  19.523  0.00  0.00    +0.000 N 
ATOM      3  C   UNL     1       0.955  11.520  19.748  0.00  0.00    +0.000 A 
ATOM      4  O   UNL     1       1.401  10.407  19.528  0.00  0.00    +0.000 OA
ATOM      5  C   UNL     1      -0.335  11.972  20.146  0.00  0.00    +0.000 A 
ATOM      6  C   UNL     1      -1.501  11.499  19.552  0.00  0.00    +0.000 A 
ATOM      7  O   UNL     1      -1.391  10.529  18.588  0.00  0.00    +0.000 OA
ATOM      8  C   UNL     1      -2.320  10.632  17.590  0.00  0.00    +0.000 A 
ATOM      9  C   UNL     1      -2.032  10.006  16.381  0.00  0.00    +0.000 A 
ATOM     10  C   UNL     1      -2.975  10.045  15.358  0.00  0.00    +0.000 A 
ATOM     11  C   UNL     1      -4.186  10.718  15.548  0.00  0.00    +0.000 A 
ATOM     12  C   UNL     1      -4.452  11.375  16.754  0.00  0.00    +0.000 A 
ATOM     13  C   UNL     1      -3.513  11.334  17.776  0.00  0.00    +0.000 A 
ATOM     14  O   UNL     1      -3.782  12.000  18.954  0.00  0.00    +0.000 OA
ATOM     15  C   UNL     1      -2.658  12.256  19.705  0.00  0.00    +0.000 A 
ATOM     16  C   UNL     1      -2.618  13.269  20.660  0.00  0.00    +0.000 A 
ATOM     17  N   UNL     1      -3.595  13.940  21.352  0.00  0.00    +0.000 N 
ATOM     18  C   UNL     1      -3.052  14.412  22.537  0.00  0.00    +0.000 A 
ATOM     19  C   UNL     1      -3.717  14.809  23.714  0.00  0.00    +0.000 A 
ATOM     20  C   UNL     1      -2.939  15.147  24.820  0.00  0.00    +0.000 A 
ATOM     21  C   UNL     1      -1.551  15.116  24.736  0.00  0.00    +0.000 A 
ATOM     22  C   UNL     1      -0.883  14.746  23.550  0.00  0.00    +0.000 A 
ATOM     23  C   UNL     1      -1.646  14.365  22.430  0.00  0.00    +0.000 A 
ATOM     24  C   UNL     1      -1.452  13.801  21.157  0.00  0.00    +0.000 A 
ATOM     25  C   UNL     1      -0.219  13.263  20.679  0.00  0.00    +0.000 A 
ATOM     26  C   UNL     1       0.915  13.841  19.987  0.00  0.00    +0.000 A 
ATOM     27  O   UNL     1       1.140  14.985  19.616  0.00  0.00    +0.000 OA
ATOM     28  H   UNL     1      -4.585  13.816  21.198  0.00  0.00    +0.000 HD
ENDROOT
BRANCH  21  29
ATOM     29  O   UNL     1      -0.792  15.420  25.832  0.00  0.00    +0.000 OA
ATOM     30  H   UNL     1      -0.816  14.665  26.446  0.00  0.00    +0.000 HD
ENDBRANCH  21  29
TORSDOF 1
ENDMDL
MODEL 3
REMARK VINA RESULT:      -7.2      1.760      6.487
REMARK  Name = 
REMARK  2 active torsions:
REMARK  status: ('A' for Active; 'I' for Inactive)
REMARK    1  A    between atoms: C_1  and  N_2
REMARK    2  A    between atoms: C_21  and  O_22
REMARK                            x       y       z     vdW  Elec       q    Type
REMARK                         _______ _______ _______ _____ _____    ______ ____
ROOT
ATOM      1  C   UNL     1      -0.699   8.500  21.466  0.00  0.00    +0.000 C 
ATOM      2  N   UNL     1      -0.029   9.765  21.293  0.00  0.00    +0.000 N 
ATOM      3  C   UNL     1       0.047  10.550  22.419  0.00  0.00    +0.000 A 
ATOM      4  O   UNL     1       0.125  10.146  23.567  0.00  0.00    +0.000 OA
ATOM      5  C   UNL     1      -0.121  11.854  21.873  0.00  0.00    +0.000 A 
ATOM      6  C   UNL     1      -1.063  12.749  22.372  0.00  0.00    +0.000 A 
ATOM      7  O   UNL     1      -1.811  12.367  23.457  0.00  0.00    +0.000 OA
ATOM      8  C   UNL     1      -3.092  12.846  23.442  0.00  0.00    +0.000 A 
ATOM      9  C   UNL     1      -4.032  12.180  24.222  0.00  0.00    +0.000 A 
ATOM     10  C   UNL     1      -5.335  12.668  24.274  0.00  0.00    +0.000 A 
ATOM     11  C   UNL     1      -5.687  13.803  23.538  0.00  0.00    +0.000 A 
ATOM     12  C   UNL     1      -4.744  14.445  22.728  0.00  0.00    +0.000 A 
ATOM     13  C   UNL     1      -3.443  13.961  22.678  0.00  0.00    +0.000 A 
ATOM     14  O   UNL     1      -2.528  14.594  21.863  0.00  0.00    +0.000 OA
ATOM     15  C   UNL     1      -1.437  13.814  21.559  0.00  0.00    +0.000 A 
ATOM     16  C   UNL     1      -0.644  14.051  20.438  0.00  0.00    +0.000 A 
ATOM     17  N   UNL     1      -0.445  15.157  19.651  0.00  0.00    +0.000 N 
ATOM     18  C   UNL     1       0.804  15.059  19.058  0.00  0.00    +0.000 A 
ATOM     19  C   UNL     1       1.595  16.079  18.494  0.00  0.00    +0.000 A 
ATOM     20  C   UNL     1       2.874  15.746  18.053  0.00  0.00    +0.000 A 
ATOM     21  C   UNL     1       3.326  14.433  18.145  0.00  0.00    +0.000 A 
ATOM     22  C   UNL     1       2.526  13.404  18.684  0.00  0.00    +0.000 A 
ATOM     23  C   UNL     1       1.244  13.723  19.170  0.00  0.00    +0.000 A 
ATOM     24  C   UNL     1       0.203  13.115  19.894  0.00  0.00    +0.000 A 
ATOM     25  C   UNL     1       0.284  11.840  20.532  0.00  0.00    +0.000 A 
ATOM     26  C   UNL     1       0.021  10.488  20.086  0.00  0.00    +0.000 A 
ATOM     27  O   UNL     1      -0.350  10.049  19.006  0.00  0.00    +0.000 OA
ATOM     28  H   UNL     1      -0.950  16.026  19.756  0.00  0.00    +0.000 HD
ENDROOT
BRANCH  21  29
ATOM     29  O   UNL     1       4.592  14.115  17.738  0.00  0.00    +0.000 OA
ATOM     30  H   UNL     1       4.535  13.646  16.886  0.00  0.00    +0.000 HD
ENDBRANCH  21  29
TORSDOF 1
ENDMDL
MODEL 4
REMARK VINA RESULT:      -7.2      7.488     10.645
REMARK  Name = 
REMARK  2 active torsions:
REMARK  status: ('A' for Active; 'I' for Inactive)
REMARK    1  A    between atoms: C_1  and  N_2
REMARK    2  A    between atoms: C_21  and  O_22
REMARK                            x       y       z     vdW  Elec       q    Type
REMARK                         _______ _______ _______ _____ _____    ______ ____
ROOT
ATOM      1  C   UNL     1       7.406  17.506  23.994  0.00  0.00    +0.000 C 
ATOM      2  N   UNL     1       7.402  16.409  23.058  0.00  0.00    +0.000 N 
ATOM      3  C   UNL     1       6.244  15.669  23.023  0.00  0.00    +0.000 A 
ATOM      4  O   UNL     1       5.120  16.092  23.234  0.00  0.00    +0.000 OA
ATOM      5  C   UNL     1       6.748  14.354  22.819  0.00  0.00    +0.000 A 
ATOM      6  C   UNL     1       6.376  13.285  23.630  0.00  0.00    +0.000 A 
ATOM      7  O   UNL     1       5.455  13.512  24.621  0.00  0.00    +0.000 OA
ATOM      8  C   UNL     1       5.666  12.773  25.752  0.00  0.00    +0.000 A 
ATOM      9  C   UNL     1       5.091  13.233  26.932  0.00  0.00    +0.000 A 
ATOM     10  C   UNL     1       5.240  12.482  28.095  0.00  0.00    +0.000 A 
ATOM     11  C   UNL     1       5.971  11.291  28.069  0.00  0.00    +0.000 A 
ATOM     12  C   UNL     1       6.576  10.854  26.886  0.00  0.00    +0.000 A 
ATOM     13  C   UNL     1       6.425  11.601  25.725  0.00  0.00    +0.000 A 
ATOM     14  O   UNL     1       7.042  11.167  24.570  0.00  0.00    +0.000 OA
ATOM     15  C   UNL     1       7.190  12.157  23.626  0.00  0.00    +0.000 A 
ATOM     16  C   UNL     1       8.146  12.081  22.615  0.00  0.00    +0.000 A 
ATOM     17  N   UNL     1       8.835  11.034  22.057  0.00  0.00    +0.000 N 
ATOM     18  C   UNL     1       9.210  11.388  20.769  0.00  0.00    +0.000 A 
ATOM     19  C   UNL     1       9.581  10.552  19.699  0.00  0.00    +0.000 A 
ATOM     20  C   UNL     1       9.812  11.143  18.458  0.00  0.00    +0.000 A 
ATOM     21  C   UNL     1       9.705  12.522  18.309  0.00  0.00    +0.000 A 
ATOM     22  C   UNL     1       9.361  13.365  19.387  0.00  0.00    +0.000 A 
ATOM     23  C   UNL     1       9.087  12.788  20.641  0.00  0.00    +0.000 A 
ATOM     24  C   UNL     1       8.581  13.169  21.897  0.00  0.00    +0.000 A 
ATOM     25  C   UNL     1       8.000  14.439  22.194  0.00  0.00    +0.000 A 
ATOM     26  C   UNL     1       8.547  15.701  22.647  0.00  0.00    +0.000 A 
ATOM     27  O   UNL     1       9.694  16.041  22.903  0.00  0.00    +0.000 OA
ATOM     28  H   UNL     1       8.777  10.080  22.382  0.00  0.00    +0.000 HD
ENDROOT
BRANCH  21  29
ATOM     29  O   UNL     1       9.904  13.097  17.085  0.00  0.00    +0.000 OA
ATOM     30  H   UNL     1       9.065  13.075  16.591  0.00  0.00    +0.000 HD
ENDBRANCH  21  29
TORSDOF 1
ENDMDL
MODEL 5
REMARK VINA RESULT:      -7.0      3.943      5.944
REMARK  Name = 
REMARK  2 active torsions:
REMARK  status: ('A' for Active; 'I' for Inactive)
REMARK    1  A    between atoms: C_1  and  N_2
REMARK    2  A    between atoms: C_21  and  O_22
REMARK                            x       y       z     vdW  Elec       q    Type
REMARK                         _______ _______ _______ _____ _____    ______ ____
ROOT
ATOM      1  C   UNL     1      -7.916  11.028  21.981  0.00  0.00    +0.000 C 
ATOM      2  N   UNL     1      -7.189  12.270  22.060  0.00  0.00    +0.000 N 
ATOM      3  C   UNL     1      -6.927  12.877  20.854  0.00  0.00    +0.000 A 
ATOM      4  O   UNL     1      -7.632  12.823  19.861  0.00  0.00    +0.000 OA
ATOM      5  C   UNL     1      -5.629  13.415  21.078  0.00  0.00    +0.000 A 
ATOM      6  C   UNL     1      -4.571  13.185  20.203  0.00  0.00    +0.000 A 
ATOM      7  O   UNL     1      -4.815  12.457  19.067  0.00  0.00    +0.000 OA
ATOM      8  C   UNL     1      -3.768  11.667  18.680  0.00  0.00    +0.000 A 
ATOM      9  C   UNL     1      -4.053  10.593  17.842  0.00  0.00    +0.000 A 
ATOM     10  C   UNL     1      -3.007   9.796  17.385  0.00  0.00    +0.000 A 
ATOM     11  C   UNL     1      -1.694  10.071  17.779  0.00  0.00    +0.000 A 
ATOM     12  C   UNL     1      -1.421  11.131  18.650  0.00  0.00    +0.000 A 
ATOM     13  C   UNL     1      -2.463  11.929  19.104  0.00  0.00    +0.000 A 
ATOM     14  O   UNL     1      -2.182  12.960  19.976  0.00  0.00    +0.000 OA
ATOM     15  C   UNL     1      -3.280  13.396  20.679  0.00  0.00    +0.000 A 
ATOM     16  C   UNL     1      -3.165  14.077  21.889  0.00  0.00    +0.000 A 
ATOM     17  N   UNL     1      -2.143  14.785  22.469  0.00  0.00    +0.000 N 
ATOM     18  C   UNL     1      -2.688  15.704  23.353  0.00  0.00    +0.000 A 
ATOM     19  C   UNL     1      -2.104  16.873  23.879  0.00  0.00    +0.000 A 
ATOM     20  C   UNL     1      -2.899  17.700  24.671  0.00  0.00    +0.000 A 
ATOM     21  C   UNL     1      -4.216  17.349  24.948  0.00  0.00    +0.000 A 
ATOM     22  C   UNL     1      -4.795  16.164  24.444  0.00  0.00    +0.000 A 
ATOM     23  C   UNL     1      -4.024  15.331  23.612  0.00  0.00    +0.000 A 
ATOM     24  C   UNL     1      -4.194  14.201  22.792  0.00  0.00    +0.000 A 
ATOM     25  C   UNL     1      -5.451  13.616  22.454  0.00  0.00    +0.000 A 
ATOM     26  C   UNL     1      -6.276  12.602  23.079  0.00  0.00    +0.000 A 
ATOM     27  O   UNL     1      -6.121  11.951  24.103  0.00  0.00    +0.000 OA
ATOM     28  H   UNL     1      -1.215  14.864  22.079  0.00  0.00    +0.000 HD
ENDROOT
BRANCH  21  29
ATOM     29  O   UNL     1      -5.002  18.176  25.701  0.00  0.00    +0.000 OA
ATOM     30  H   UNL     1      -5.534  18.730  25.102  0.00  0.00    +0.000 HD
ENDBRANCH  21  29
TORSDOF 1
ENDMDL
MODEL 6
REMARK VINA RESULT:      -7.0      7.392     11.217
REMARK  Name = 
REMARK  2 active torsions:
REMARK  status: ('A' for Active; 'I' for Inactive)
REMARK    1  A    between atoms: C_1  and  N_2
REMARK    2  A    between atoms: C_21  and  O_22
REMARK                            x       y       z     vdW  Elec       q    Type
REMARK                         _______ _______ _______ _____ _____    ______ ____
ROOT
ATOM      1  C   UNL     1       6.673  17.942  21.325  0.00  0.00    +0.000 C 
ATOM      2  N   UNL     1       7.176  16.740  20.707  0.00  0.00    +0.000 N 
ATOM      3  C   UNL     1       6.363  15.637  20.817  0.00  0.00    +0.000 A 
ATOM      4  O   UNL     1       5.144  15.651  20.864  0.00  0.00    +0.000 OA
ATOM      5  C   UNL     1       7.315  14.592  20.983  0.00  0.00    +0.000 A 
ATOM      6  C   UNL     1       7.233  13.676  22.028  0.00  0.00    +0.000 A 
ATOM      7  O   UNL     1       6.167  13.764  22.887  0.00  0.00    +0.000 OA
ATOM      8  C   UNL     1       6.468  13.433  24.179  0.00  0.00    +0.000 A 
ATOM      9  C   UNL     1       5.617  13.903  25.174  0.00  0.00    +0.000 A 
ATOM     10  C   UNL     1       5.861  13.545  26.497  0.00  0.00    +0.000 A 
ATOM     11  C   UNL     1       6.957  12.737  26.812  0.00  0.00    +0.000 A 
ATOM     12  C   UNL     1       7.829  12.299  25.810  0.00  0.00    +0.000 A 
ATOM     13  C   UNL     1       7.584  12.652  24.489  0.00  0.00    +0.000 A 
ATOM     14  O   UNL     1       8.461  12.227  23.513  0.00  0.00    +0.000 OA
ATOM     15  C   UNL     1       8.381  12.959  22.351  0.00  0.00    +0.000 A 
ATOM     16  C   UNL     1       9.430  13.015  21.435  0.00  0.00    +0.000 A 
ATOM     17  N   UNL     1      10.507  12.200  21.197  0.00  0.00    +0.000 N 
ATOM     18  C   UNL     1      10.904  12.365  19.879  0.00  0.00    +0.000 A 
ATOM     19  C   UNL     1      11.681  11.506  19.079  0.00  0.00    +0.000 A 
ATOM     20  C   UNL     1      11.856  11.843  17.738  0.00  0.00    +0.000 A 
ATOM     21  C   UNL     1      11.298  13.013  17.231  0.00  0.00    +0.000 A 
ATOM     22  C   UNL     1      10.541  13.889  18.038  0.00  0.00    +0.000 A 
ATOM     23  C   UNL     1      10.320  13.552  19.386  0.00  0.00    +0.000 A 
ATOM     24  C   UNL     1       9.551  13.994  20.477  0.00  0.00    +0.000 A 
ATOM     25  C   UNL     1       8.531  14.990  20.410  0.00  0.00    +0.000 A 
ATOM     26  C   UNL     1       8.540  16.432  20.542  0.00  0.00    +0.000 A 
ATOM     27  O   UNL     1       9.452  17.221  20.747  0.00  0.00    +0.000 OA
ATOM     28  H   UNL     1      10.741  11.393  21.757  0.00  0.00    +0.000 HD
ENDROOT
BRANCH  21  29
ATOM     29  O   UNL     1      11.447  13.326  15.909  0.00  0.00    +0.000 OA
ATOM     30  H   UNL     1      12.347  13.080  15.631  0.00  0.00    +0.000 HD
ENDBRANCH  21  29
TORSDOF 1
ENDMDL
MODEL 7
REMARK VINA RESULT:      -6.9      3.631      5.155
REMARK  Name = 
REMARK  2 active torsions:
REMARK  status: ('A' for Active; 'I' for Inactive)
REMARK    1  A    between atoms: C_1  and  N_2
REMARK    2  A    between atoms: C_21  and  O_22
REMARK                            x       y       z     vdW  Elec       q    Type
REMARK                         _______ _______ _______ _____ _____    ______ ____
ROOT
ATOM      1  C   UNL     1      -6.697  10.294  18.822  0.00  0.00    +0.000 C 
ATOM      2  N   UNL     1      -6.349  11.565  19.407  0.00  0.00    +0.000 N 
ATOM      3  C   UNL     1      -5.357  12.261  18.757  0.00  0.00    +0.000 A 
ATOM      4  O   UNL     1      -5.135  12.233  17.558  0.00  0.00    +0.000 OA
ATOM      5  C   UNL     1      -4.658  12.851  19.846  0.00  0.00    +0.000 A 
ATOM      6  C   UNL     1      -3.278  12.734  19.991  0.00  0.00    +0.000 A 
ATOM      7  O   UNL     1      -2.578  12.067  19.018  0.00  0.00    +0.000 OA
ATOM      8  C   UNL     1      -1.507  11.361  19.491  0.00  0.00    +0.000 A 
ATOM      9  C   UNL     1      -1.020  10.329  18.696  0.00  0.00    +0.000 A 
ATOM     10  C   UNL     1       0.100   9.619  19.120  0.00  0.00    +0.000 A 
ATOM     11  C   UNL     1       0.710   9.937  20.336  0.00  0.00    +0.000 A 
ATOM     12  C   UNL     1       0.192  10.952  21.147  0.00  0.00    +0.000 A 
ATOM     13  C   UNL     1      -0.923  11.663  20.723  0.00  0.00    +0.000 A 
ATOM     14  O   UNL     1      -1.434  12.650  21.541  0.00  0.00    +0.000 OA
ATOM     15  C   UNL     1      -2.736  12.982  21.248  0.00  0.00    +0.000 A 
ATOM     16  C   UNL     1      -3.575  13.589  22.180  0.00  0.00    +0.000 A 
ATOM     17  N   UNL     1      -3.336  14.311  23.322  0.00  0.00    +0.000 N 
ATOM     18  C   UNL     1      -4.421  15.143  23.555  0.00  0.00    +0.000 A 
ATOM     19  C   UNL     1      -4.486  16.304  24.348  0.00  0.00    +0.000 A 
ATOM     20  C   UNL     1      -5.673  17.036  24.337  0.00  0.00    +0.000 A 
ATOM     21  C   UNL     1      -6.758  16.599  23.585  0.00  0.00    +0.000 A 
ATOM     22  C   UNL     1      -6.704  15.420  22.812  0.00  0.00    +0.000 A 
ATOM     23  C   UNL     1      -5.505  14.684  22.777  0.00  0.00    +0.000 A 
ATOM     24  C   UNL     1      -4.946  13.601  22.075  0.00  0.00    +0.000 A 
ATOM     25  C   UNL     1      -5.532  12.973  20.935  0.00  0.00    +0.000 A 
ATOM     26  C   UNL     1      -6.467  11.879  20.774  0.00  0.00    +0.000 A 
ATOM     27  O   UNL     1      -7.036  11.173  21.595  0.00  0.00    +0.000 OA
ATOM     28  H   UNL     1      -2.418  14.464  23.714  0.00  0.00    +0.000 HD
ENDROOT
BRANCH  21  29
ATOM     29  O   UNL     1      -7.911  17.334  23.555  0.00  0.00    +0.000 OA
ATOM     30  H   UNL     1      -8.669  16.724  23.577  0.00  0.00    +0.000 HD
ENDBRANCH  21  29
TORSDOF 1
ENDMDL
MODEL 8
REMARK VINA RESULT:      -6.9      6.868      8.940
REMARK  Name = 
REMARK  2 active torsions:
REMARK  status: ('A' for Active; 'I' for Inactive)
REMARK    1  A    between atoms: C_1  and  N_2
REMARK    2  A    between atoms: C_21  and  O_22
REMARK                            x       y       z     vdW  Elec       q    Type
REMARK                         _______ _______ _______ _____ _____    ______ ____
ROOT
ATOM      1  C   UNL     1       5.935  16.811  19.039  0.00  0.00    +0.000 C 
ATOM      2  N   UNL     1       6.316  16.253  20.312  0.00  0.00    +0.000 N 
ATOM      3  C   UNL     1       7.646  16.380  20.638  0.00  0.00    +0.000 A 
ATOM      4  O   UNL     1       8.377  17.297  20.304  0.00  0.00    +0.000 OA
ATOM      5  C   UNL     1       7.900  15.147  21.302  0.00  0.00    +0.000 A 
ATOM      6  C   UNL     1       8.962  14.320  20.947  0.00  0.00    +0.000 A 
ATOM      7  O   UNL     1       9.813  14.744  19.958  0.00  0.00    +0.000 OA
ATOM      8  C   UNL     1      10.298  13.734  19.174  0.00  0.00    +0.000 A 
ATOM      9  C   UNL     1      10.785  14.078  17.917  0.00  0.00    +0.000 A 
ATOM     10  C   UNL     1      11.334  13.086  17.110  0.00  0.00    +0.000 A 
ATOM     11  C   UNL     1      11.377  11.763  17.559  0.00  0.00    +0.000 A 
ATOM     12  C   UNL     1      10.852  11.420  18.809  0.00  0.00    +0.000 A 
ATOM     13  C   UNL     1      10.307  12.410  19.617  0.00  0.00    +0.000 A 
ATOM     14  O   UNL     1       9.778  12.054  20.841  0.00  0.00    +0.000 OA
ATOM     15  C   UNL     1       8.909  12.990  21.352  0.00  0.00    +0.000 A 
ATOM     16  C   UNL     1       7.944  12.665  22.303  0.00  0.00    +0.000 A 
ATOM     17  N   UNL     1       7.823  11.631  23.196  0.00  0.00    +0.000 N 
ATOM     18  C   UNL     1       7.035  12.052  24.257  0.00  0.00    +0.000 A 
ATOM     19  C   UNL     1       6.941  11.511  25.553  0.00  0.00    +0.000 A 
ATOM     20  C   UNL     1       6.152  12.182  26.485  0.00  0.00    +0.000 A 
ATOM     21  C   UNL     1       5.461  13.333  26.118  0.00  0.00    +0.000 A 
ATOM     22  C   UNL     1       5.532  13.861  24.812  0.00  0.00    +0.000 A 
ATOM     23  C   UNL     1       6.351  13.222  23.863  0.00  0.00    +0.000 A 
ATOM     24  C   UNL     1       6.841  13.443  22.564  0.00  0.00    +0.000 A 
ATOM     25  C   UNL     1       6.697  14.660  21.830  0.00  0.00    +0.000 A 
ATOM     26  C   UNL     1       5.676  15.165  20.936  0.00  0.00    +0.000 A 
ATOM     27  O   UNL     1       4.620  14.678  20.554  0.00  0.00    +0.000 OA
ATOM     28  H   UNL     1       8.459  10.848  23.245  0.00  0.00    +0.000 HD
ENDROOT
BRANCH  21  29
ATOM     29  O   UNL     1       4.711  14.005  27.043  0.00  0.00    +0.000 OA
ATOM     30  H   UNL     1       4.712  13.497  27.873  0.00  0.00    +0.000 HD
ENDBRANCH  21  29
TORSDOF 1
ENDMDL
MODEL 9
REMARK VINA RESULT:      -6.9      8.577     11.246
REMARK  Name = 
REMARK  2 active torsions:
REMARK  status: ('A' for Active; 'I' for Inactive)
REMARK    1  A    between atoms: C_1  and  N_2
REMARK    2  A    between atoms: C_21  and  O_22
REMARK                            x       y       z     vdW  Elec       q    Type
REMARK                         _______ _______ _______ _____ _____    ______ ____
ROOT
ATOM      1  C   UNL     1       6.555   8.860  17.359  0.00  0.00    +0.000 C 
ATOM      2  N   UNL     1       6.125   7.582  17.869  0.00  0.00    +0.000 N 
ATOM      3  C   UNL     1       7.017   6.549  17.699  0.00  0.00    +0.000 A 
ATOM      4  O   UNL     1       8.233   6.651  17.688  0.00  0.00    +0.000 OA
ATOM      5  C   UNL     1       6.147   5.457  17.428  0.00  0.00    +0.000 A 
ATOM      6  C   UNL     1       6.318   4.632  16.320  0.00  0.00    +0.000 A 
ATOM      7  O   UNL     1       7.394   4.860  15.500  0.00  0.00    +0.000 OA
ATOM      8  C   UNL     1       7.147   4.610  14.179  0.00  0.00    +0.000 A 
ATOM      9  C   UNL     1       7.985   5.214  13.246  0.00  0.00    +0.000 A 
ATOM     10  C   UNL     1       7.798   4.943  11.894  0.00  0.00    +0.000 A 
ATOM     11  C   UNL     1       6.770   4.088  11.488  0.00  0.00    +0.000 A 
ATOM     12  C   UNL     1       5.909   3.514  12.429  0.00  0.00    +0.000 A 
ATOM     13  C   UNL     1       6.098   3.780  13.779  0.00  0.00    +0.000 A 
ATOM     14  O   UNL     1       5.231   3.221  14.695  0.00  0.00    +0.000 OA
ATOM     15  C   UNL     1       5.232   3.865  15.911  0.00  0.00    +0.000 A 
ATOM     16  C   UNL     1       4.161   3.777  16.798  0.00  0.00    +0.000 A 
ATOM     17  N   UNL     1       3.139   2.873  16.943  0.00  0.00    +0.000 N 
ATOM     18  C   UNL     1       2.702   2.907  18.258  0.00  0.00    +0.000 A 
ATOM     19  C   UNL     1       1.969   1.937  18.969  0.00  0.00    +0.000 A 
ATOM     20  C   UNL     1       1.740   2.156  20.326  0.00  0.00    +0.000 A 
ATOM     21  C   UNL     1       2.202   3.319  20.935  0.00  0.00    +0.000 A 
ATOM     22  C   UNL     1       2.912   4.305  20.219  0.00  0.00    +0.000 A 
ATOM     23  C   UNL     1       3.187   4.090  18.855  0.00  0.00    +0.000 A 
ATOM     24  C   UNL     1       3.948   4.667  17.823  0.00  0.00    +0.000 A 
ATOM     25  C   UNL     1       4.893   5.724  17.994  0.00  0.00    +0.000 A 
ATOM     26  C   UNL     1       4.784   7.168  17.972  0.00  0.00    +0.000 A 
ATOM     27  O   UNL     1       3.822   7.905  17.801  0.00  0.00    +0.000 OA
ATOM     28  H   UNL     1       2.977   2.097  16.318  0.00  0.00    +0.000 HD
ENDROOT
BRANCH  21  29
ATOM     29  O   UNL     1       2.000   3.517  22.273  0.00  0.00    +0.000 OA
ATOM     30  H   UNL     1       1.637   2.700  22.657  0.00  0.00    +0.000 HD
ENDBRANCH  21  29
TORSDOF 1
ENDMDL
