MODEL 1
REMARK VINA RESULT:      -7.9      0.000      0.000
REMARK  Name = 
REMARK  11 active torsions:
REMARK  status: ('A' for Active; 'I' for Inactive)
REMARK    1  A    between atoms: C_1  and  C_2
REMARK    2  A    between atoms: C_3  and  C_4
REMARK    3  A    between atoms: C_4  and  C_5
REMARK    4  A    between atoms: C_15  and  C_16
REMARK    5  A    between atoms: C_17  and  O_18
REMARK    6  A    between atoms: O_18  and  C_19
REMARK    7  A    between atoms: C_19  and  C_20
REMARK    8  A    between atoms: N_22  and  C_23
REMARK    9  A    between atoms: C_23  and  C_24
REMARK   10  A    between atoms: C_27  and  C_28
REMARK   11  A    between atoms: C_28  and  O_30
REMARK                            x       y       z     vdW  Elec       q    Type
REMARK                         _______ _______ _______ _____ _____    ______ ____
ROOT
ATOM      1  C   UNL     1       1.711   5.643  20.518  0.00  0.00    +0.000 C 
ATOM      2  C   UNL     1       1.782   7.002  19.865  0.00  0.00    +0.000 A 
ATOM      3  C   UNL     1       2.358   7.224  18.667  0.00  0.00    +0.000 A 
ATOM      4  C   UNL     1       2.345   8.585  18.042  0.00  0.00    +0.000 A 
ATOM      5  O   UNL     1       2.838   8.805  16.945  0.00  0.00    +0.000 OA
ATOM      6  O   UNL     1       1.743   9.603  18.757  0.00  0.00    +0.000 OA
ATOM      7  C   UNL     1       1.223   9.414  20.049  0.00  0.00    +0.000 A 
ATOM      8  C   UNL     1       0.746  10.551  20.726  0.00  0.00    +0.000 A 
ATOM      9  C   UNL     1       0.733  11.910  20.079  0.00  0.00    +0.000 C 
ATOM     10  C   UNL     1       0.282  10.388  22.038  0.00  0.00    +0.000 A 
ATOM     11  C   UNL     1       0.254   9.117  22.614  0.00  0.00    +0.000 A 
ATOM     12  C   UNL     1       0.713   8.006  21.909  0.00  0.00    +0.000 A 
ATOM     13  C   UNL     1       1.218   8.137  20.616  0.00  0.00    +0.000 A 
ENDROOT
BRANCH   3  14
ATOM     14  C   UNL     1       3.166   6.205  17.904  0.00  0.00    +0.000 C 
BRANCH  14  15
ATOM     15  C   UNL     1       4.663   6.239  18.107  0.00  0.00    +0.000 A 
ATOM     16  C   UNL     1       5.259   5.600  19.202  0.00  0.00    +0.000 A 
ATOM     17  C   UNL     1       6.647   5.485  19.292  0.00  0.00    +0.000 A 
ATOM     18  C   UNL     1       7.458   6.010  18.289  0.00  0.00    +0.000 A 
ATOM     19  C   UNL     1       6.883   6.681  17.214  0.00  0.00    +0.000 A 
ATOM     20  C   UNL     1       5.494   6.798  17.124  0.00  0.00    +0.000 A 
ENDBRANCH  14  15
ENDBRANCH   3  14
BRANCH  10  21
ATOM     21  O   UNL     1      -0.164  11.513  22.684  0.00  0.00    +0.000 OA
BRANCH  21  22
ATOM     22  C   UNL     1      -1.537  11.474  23.061  0.00  0.00    +0.000 C 
BRANCH  22  23
ATOM     23  C   UNL     1      -2.343  12.541  22.352  0.00  0.00    +0.000 C 
ATOM     24  O   UNL     1      -1.902  13.679  22.194  0.00  0.00    +0.000 OA
ATOM     25  N   UNL     1      -3.554  12.111  21.854  0.00  0.00    +0.000 N 
ATOM     26  H   UNL     1      -3.798  11.139  21.980  0.00  0.00    +0.000 HD
BRANCH  25  27
ATOM     27  C   UNL     1      -4.247  12.918  20.896  0.00  0.00    +0.000 C 
BRANCH  27  28
ATOM     28  C   UNL     1      -3.935  12.624  19.425  0.00  0.00    +0.000 C 
ATOM     29  C   UNL     1      -2.578  11.964  19.118  0.00  0.00    +0.000 C 
ATOM     30  C   UNL     1      -2.451  11.636  17.617  0.00  0.00    +0.000 C 
ATOM     31  C   UNL     1      -3.635  10.803  17.100  0.00  0.00    +0.000 C 
ATOM     32  C   UNL     1      -4.971  11.457  17.449  0.00  0.00    +0.000 C 
ATOM     33  C   UNL     1      -5.069  11.714  18.936  0.00  0.00    +0.000 C 
BRANCH  31  34
ATOM     34  C   UNL     1      -3.598  10.611  15.596  0.00  0.00    +0.000 C 
ATOM     35  O   UNL     1      -4.143   9.702  14.990  0.00  0.00    +0.000 OA
BRANCH  34  36
ATOM     36  O   UNL     1      -2.825  11.532  14.972  0.00  0.00    +0.000 OA
ATOM     37  H   UNL     1      -2.299  12.089  15.579  0.00  0.00    +0.000 HD
ENDBRANCH  34  36
ENDBRANCH  31  34
ENDBRANCH  27  28
ENDBRANCH  25  27
ENDBRANCH  22  23
ENDBRANCH  21  22
ENDBRANCH  10  21
TORSDOF 9
ENDMDL
MODEL 2
REMARK VINA RESULT:      -7.8      1.374      2.375
REMARK  Name = 
REMARK  11 active torsions:
REMARK  status: ('A' for Active; 'I' for Inactive)
REMARK    1  A    between atoms: C_1  and  C_2
REMARK    2  A    between atoms: C_3  and  C_4
REMARK    3  A    between atoms: C_4  and  C_5
REMARK    4  A    between atoms: C_15  and  C_16
REMARK    5  A    between atoms: C_17  and  O_18
REMARK    6  A    between atoms: O_18  and  C_19
REMARK    7  A    between atoms: C_19  and  C_20
REMARK    8  A    between atoms: N_22  and  C_23
REMARK    9  A    between atoms: C_23  and  C_24
REMARK   10  A    between atoms: C_27  and  C_28
REMARK   11  A    between atoms: C_28  and  O_30
REMARK                            x       y       z     vdW  Elec       q    Type
REMARK                         _______ _______ _______ _____ _____    ______ ____
ROOT
ATOM      1  C   UNL     1       2.327   9.155  17.458  0.00  0.00    +0.000 C 
ATOM      2  C   UNL     1       1.979   8.611  18.822  0.00  0.00    +0.000 A 
ATOM      3  C   UNL     1       2.195   7.334  19.193  0.00  0.00    +0.000 A 
ATOM      4  C   UNL     1       1.884   6.866  20.581  0.00  0.00    +0.000 A 
ATOM      5  O   UNL     1       2.096   5.719  20.947  0.00  0.00    +0.000 OA
ATOM      6  O   UNL     1       1.343   7.792  21.453  0.00  0.00    +0.000 OA
ATOM      7  C   UNL     1       1.019   9.102  21.059  0.00  0.00    +0.000 A 
ATOM      8  C   UNL     1       0.359   9.915  21.999  0.00  0.00    +0.000 A 
ATOM      9  C   UNL     1       0.062   9.431  23.392  0.00  0.00    +0.000 C 
ATOM     10  C   UNL     1      -0.024  11.202  21.599  0.00  0.00    +0.000 A 
ATOM     11  C   UNL     1       0.297  11.659  20.320  0.00  0.00    +0.000 A 
ATOM     12  C   UNL     1       0.971  10.837  19.419  0.00  0.00    +0.000 A 
ATOM     13  C   UNL     1       1.334   9.537  19.769  0.00  0.00    +0.000 A 
ENDROOT
BRANCH   3  14
ATOM     14  C   UNL     1       2.633   6.234  18.258  0.00  0.00    +0.000 C 
BRANCH  14  15
ATOM     15  C   UNL     1       4.122   6.070  18.057  0.00  0.00    +0.000 A 
ATOM     16  C   UNL     1       4.798   6.782  17.058  0.00  0.00    +0.000 A 
ATOM     17  C   UNL     1       6.192   6.762  16.988  0.00  0.00    +0.000 A 
ATOM     18  C   UNL     1       6.928   6.027  17.914  0.00  0.00    +0.000 A 
ATOM     19  C   UNL     1       6.269   5.285  18.890  0.00  0.00    +0.000 A 
ATOM     20  C   UNL     1       4.874   5.303  18.960  0.00  0.00    +0.000 A 
ENDBRANCH  14  15
ENDBRANCH   3  14
BRANCH  10  21
ATOM     21  O   UNL     1      -0.679  11.971  22.527  0.00  0.00    +0.000 OA
BRANCH  21  22
ATOM     22  C   UNL     1      -0.762  13.354  22.197  0.00  0.00    +0.000 C 
BRANCH  22  23
ATOM     23  C   UNL     1      -2.080  13.695  21.536  0.00  0.00    +0.000 C 
ATOM     24  O   UNL     1      -2.344  14.845  21.186  0.00  0.00    +0.000 OA
ATOM     25  N   UNL     1      -2.906  12.615  21.308  0.00  0.00    +0.000 N 
ATOM     26  H   UNL     1      -2.570  11.700  21.575  0.00  0.00    +0.000 HD
BRANCH  25  27
ATOM     27  C   UNL     1      -4.012  12.753  20.410  0.00  0.00    +0.000 C 
BRANCH  27  28
ATOM     28  C   UNL     1      -3.967  11.874  19.156  0.00  0.00    +0.000 C 
ATOM     29  C   UNL     1      -4.993  12.185  18.051  0.00  0.00    +0.000 C 
ATOM     30  C   UNL     1      -4.760  11.292  16.815  0.00  0.00    +0.000 C 
ATOM     31  C   UNL     1      -3.312  11.369  16.305  0.00  0.00    +0.000 C 
ATOM     32  C   UNL     1      -2.312  11.095  17.426  0.00  0.00    +0.000 C 
ATOM     33  C   UNL     1      -2.548  12.027  18.594  0.00  0.00    +0.000 C 
BRANCH  31  34
ATOM     34  C   UNL     1      -3.035  10.378  15.191  0.00  0.00    +0.000 C 
ATOM     35  O   UNL     1      -3.317  10.545  14.015  0.00  0.00    +0.000 OA
BRANCH  34  36
ATOM     36  O   UNL     1      -2.486   9.225  15.644  0.00  0.00    +0.000 OA
ATOM     37  H   UNL     1      -2.985   8.805  16.371  0.00  0.00    +0.000 HD
ENDBRANCH  34  36
ENDBRANCH  31  34
ENDBRANCH  27  28
ENDBRANCH  25  27
ENDBRANCH  22  23
ENDBRANCH  21  22
ENDBRANCH  10  21
TORSDOF 9
ENDMDL
MODEL 3
REMARK VINA RESULT:      -7.7      3.155      9.748
REMARK  Name = 
REMARK  11 active torsions:
REMARK  status: ('A' for Active; 'I' for Inactive)
REMARK    1  A    between atoms: C_1  and  C_2
REMARK    2  A    between atoms: C_3  and  C_4
REMARK    3  A    between atoms: C_4  and  C_5
REMARK    4  A    between atoms: C_15  and  C_16
REMARK    5  A    between atoms: C_17  and  O_18
REMARK    6  A    between atoms: O_18  and  C_19
REMARK    7  A    between atoms: C_19  and  C_20
REMARK    8  A    between atoms: N_22  and  C_23
REMARK    9  A    between atoms: C_23  and  C_24
REMARK   10  A    between atoms: C_27  and  C_28
REMARK   11  A    between atoms: C_28  and  O_30
REMARK                            x       y       z     vdW  Elec       q    Type
REMARK                         _______ _______ _______ _____ _____    ______ ____
ROOT
ATOM      1  C   UNL     1      -1.471  11.456  22.729  0.00  0.00    +0.000 C 
ATOM      2  C   UNL     1      -0.951  11.515  21.313  0.00  0.00    +0.000 A 
ATOM      3  C   UNL     1      -1.316  12.458  20.423  0.00  0.00    +0.000 A 
ATOM      4  C   UNL     1      -0.720  12.499  19.050  0.00  0.00    +0.000 A 
ATOM      5  O   UNL     1      -1.016  13.361  18.235  0.00  0.00    +0.000 OA
ATOM      6  O   UNL     1       0.196  11.515  18.729  0.00  0.00    +0.000 OA
ATOM      7  C   UNL     1       0.518  10.466  19.607  0.00  0.00    +0.000 A 
ATOM      8  C   UNL     1       1.369   9.456  19.124  0.00  0.00    +0.000 A 
ATOM      9  C   UNL     1       1.966   9.518  17.743  0.00  0.00    +0.000 C 
ATOM     10  C   UNL     1       1.649   8.373  19.968  0.00  0.00    +0.000 A 
ATOM     11  C   UNL     1       1.129   8.346  21.263  0.00  0.00    +0.000 A 
ATOM     12  C   UNL     1       0.306   9.374  21.720  0.00  0.00    +0.000 A 
ATOM     13  C   UNL     1      -0.025  10.448  20.895  0.00  0.00    +0.000 A 
ENDROOT
BRANCH   3  14
ATOM     14  C   UNL     1      -2.418  13.464  20.645  0.00  0.00    +0.000 C 
BRANCH  14  15
ATOM     15  C   UNL     1      -3.828  12.923  20.691  0.00  0.00    +0.000 A 
ATOM     16  C   UNL     1      -4.604  13.027  21.852  0.00  0.00    +0.000 A 
ATOM     17  C   UNL     1      -5.958  12.687  21.838  0.00  0.00    +0.000 A 
ATOM     18  C   UNL     1      -6.552  12.235  20.663  0.00  0.00    +0.000 A 
ATOM     19  C   UNL     1      -5.786  12.090  19.511  0.00  0.00    +0.000 A 
ATOM     20  C   UNL     1      -4.430  12.429  19.524  0.00  0.00    +0.000 A 
ENDBRANCH  14  15
ENDBRANCH   3  14
BRANCH  10  21
ATOM     21  O   UNL     1       2.468   7.393  19.469  0.00  0.00    +0.000 OA
BRANCH  21  22
ATOM     22  C   UNL     1       1.849   6.118  19.330  0.00  0.00    +0.000 C 
BRANCH  22  23
ATOM     23  C   UNL     1       2.829   4.990  19.569  0.00  0.00    +0.000 C 
ATOM     24  O   UNL     1       2.467   3.814  19.570  0.00  0.00    +0.000 OA
ATOM     25  N   UNL     1       4.141   5.389  19.715  0.00  0.00    +0.000 N 
ATOM     26  H   UNL     1       4.346   6.375  19.635  0.00  0.00    +0.000 HD
BRANCH  25  27
ATOM     27  C   UNL     1       5.186   4.416  19.617  0.00  0.00    +0.000 C 
BRANCH  27  28
ATOM     28  C   UNL     1       5.832   4.267  18.235  0.00  0.00    +0.000 C 
ATOM     29  C   UNL     1       5.033   3.490  17.173  0.00  0.00    +0.000 C 
ATOM     30  C   UNL     1       5.757   3.512  15.812  0.00  0.00    +0.000 C 
ATOM     31  C   UNL     1       6.099   4.939  15.357  0.00  0.00    +0.000 C 
ATOM     32  C   UNL     1       6.858   5.703  16.440  0.00  0.00    +0.000 C 
ATOM     33  C   UNL     1       6.085   5.697  17.740  0.00  0.00    +0.000 C 
BRANCH  31  34
ATOM     34  C   UNL     1       6.949   4.961  14.100  0.00  0.00    +0.000 C 
ATOM     35  O   UNL     1       6.641   4.450  13.035  0.00  0.00    +0.000 OA
BRANCH  34  36
ATOM     36  O   UNL     1       8.148   5.562  14.292  0.00  0.00    +0.000 OA
ATOM     37  H   UNL     1       8.270   5.930  15.189  0.00  0.00    +0.000 HD
ENDBRANCH  34  36
ENDBRANCH  31  34
ENDBRANCH  27  28
ENDBRANCH  25  27
ENDBRANCH  22  23
ENDBRANCH  21  22
ENDBRANCH  10  21
TORSDOF 9
ENDMDL
MODEL 4
REMARK VINA RESULT:      -7.7      3.509      5.418
REMARK  Name = 
REMARK  11 active torsions:
REMARK  status: ('A' for Active; 'I' for Inactive)
REMARK    1  A    between atoms: C_1  and  C_2
REMARK    2  A    between atoms: C_3  and  C_4
REMARK    3  A    between atoms: C_4  and  C_5
REMARK    4  A    between atoms: C_15  and  C_16
REMARK    5  A    between atoms: C_17  and  O_18
REMARK    6  A    between atoms: O_18  and  C_19
REMARK    7  A    between atoms: C_19  and  C_20
REMARK    8  A    between atoms: N_22  and  C_23
REMARK    9  A    between atoms: C_23  and  C_24
REMARK   10  A    between atoms: C_27  and  C_28
REMARK   11  A    between atoms: C_28  and  O_30
REMARK                            x       y       z     vdW  Elec       q    Type
REMARK                         _______ _______ _______ _____ _____    ______ ____
ROOT
ATOM      1  C   UNL     1       3.584   7.133  17.058  0.00  0.00    +0.000 C 
ATOM      2  C   UNL     1       2.876   6.941  18.378  0.00  0.00    +0.000 A 
ATOM      3  C   UNL     1       2.864   5.776  19.054  0.00  0.00    +0.000 A 
ATOM      4  C   UNL     1       2.195   5.662  20.389  0.00  0.00    +0.000 A 
ATOM      5  O   UNL     1       2.194   4.623  21.033  0.00  0.00    +0.000 OA
ATOM      6  O   UNL     1       1.570   6.793  20.881  0.00  0.00    +0.000 OA
ATOM      7  C   UNL     1       1.487   7.990  20.149  0.00  0.00    +0.000 A 
ATOM      8  C   UNL     1       0.720   9.033  20.699  0.00  0.00    +0.000 A 
ATOM      9  C   UNL     1       0.061   8.904  22.046  0.00  0.00    +0.000 C 
ATOM     10  C   UNL     1       0.578  10.209  19.951  0.00  0.00    +0.000 A 
ATOM     11  C   UNL     1       1.231  10.338  18.724  0.00  0.00    +0.000 A 
ATOM     12  C   UNL     1       2.002   9.294  18.216  0.00  0.00    +0.000 A 
ATOM     13  C   UNL     1       2.134   8.095  18.914  0.00  0.00    +0.000 A 
ENDROOT
BRANCH   3  14
ATOM     14  C   UNL     1       3.385   4.468  18.515  0.00  0.00    +0.000 C 
BRANCH  14  15
ATOM     15  C   UNL     1       4.829   4.446  18.070  0.00  0.00    +0.000 A 
ATOM     16  C   UNL     1       5.176   4.087  16.761  0.00  0.00    +0.000 A 
ATOM     17  C   UNL     1       6.487   4.235  16.305  0.00  0.00    +0.000 A 
ATOM     18  C   UNL     1       7.468   4.742  17.153  0.00  0.00    +0.000 A 
ATOM     19  C   UNL     1       7.147   5.067  18.467  0.00  0.00    +0.000 A 
ATOM     20  C   UNL     1       5.836   4.918  18.925  0.00  0.00    +0.000 A 
ENDBRANCH  14  15
ENDBRANCH   3  14
BRANCH  10  21
ATOM     21  O   UNL     1      -0.187  11.206  20.501  0.00  0.00    +0.000 OA
BRANCH  21  22
ATOM     22  C   UNL     1      -1.302  11.602  19.709  0.00  0.00    +0.000 C 
BRANCH  22  23
ATOM     23  C   UNL     1      -1.474  13.105  19.694  0.00  0.00    +0.000 C 
ATOM     24  O   UNL     1      -2.415  13.649  20.272  0.00  0.00    +0.000 OA
ATOM     25  N   UNL     1      -0.469  13.793  19.048  0.00  0.00    +0.000 N 
ATOM     26  H   UNL     1       0.295  13.258  18.660  0.00  0.00    +0.000 HD
BRANCH  25  27
ATOM     27  C   UNL     1      -0.344  15.205  19.247  0.00  0.00    +0.000 C 
BRANCH  27  28
ATOM     28  C   UNL     1       1.032  15.803  18.940  0.00  0.00    +0.000 C 
ATOM     29  C   UNL     1       1.640  16.737  20.003  0.00  0.00    +0.000 C 
ATOM     30  C   UNL     1       3.063  17.175  19.604  0.00  0.00    +0.000 C 
ATOM     31  C   UNL     1       3.975  15.979  19.289  0.00  0.00    +0.000 C 
ATOM     32  C   UNL     1       3.336  15.047  18.261  0.00  0.00    +0.000 C 
ATOM     33  C   UNL     1       1.965  14.605  18.720  0.00  0.00    +0.000 C 
BRANCH  31  34
ATOM     34  C   UNL     1       5.325  16.405  18.745  0.00  0.00    +0.000 C 
ATOM     35  O   UNL     1       5.762  17.545  18.761  0.00  0.00    +0.000 OA
BRANCH  34  36
ATOM     36  O   UNL     1       5.998  15.383  18.163  0.00  0.00    +0.000 OA
ATOM     37  H   UNL     1       6.915  15.276  18.483  0.00  0.00    +0.000 HD
ENDBRANCH  34  36
ENDBRANCH  31  34
ENDBRANCH  27  28
ENDBRANCH  25  27
ENDBRANCH  22  23
ENDBRANCH  21  22
ENDBRANCH  10  21
TORSDOF 9
ENDMDL
MODEL 5
REMARK VINA RESULT:      -7.7      3.585      5.773
REMARK  Name = 
REMARK  11 active torsions:
REMARK  status: ('A' for Active; 'I' for Inactive)
REMARK    1  A    between atoms: C_1  and  C_2
REMARK    2  A    between atoms: C_3  and  C_4
REMARK    3  A    between atoms: C_4  and  C_5
REMARK    4  A    between atoms: C_15  and  C_16
REMARK    5  A    between atoms: C_17  and  O_18
REMARK    6  A    between atoms: O_18  and  C_19
REMARK    7  A    between atoms: C_19  and  C_20
REMARK    8  A    between atoms: N_22  and  C_23
REMARK    9  A    between atoms: C_23  and  C_24
REMARK   10  A    between atoms: C_27  and  C_28
REMARK   11  A    between atoms: C_28  and  O_30
REMARK                            x       y       z     vdW  Elec       q    Type
REMARK                         _______ _______ _______ _____ _____    ______ ____
ROOT
ATOM      1  C   UNL     1       3.473   7.394  16.980  0.00  0.00    +0.000 C 
ATOM      2  C   UNL     1       2.778   7.228  18.310  0.00  0.00    +0.000 A 
ATOM      3  C   UNL     1       2.773   6.076  19.010  0.00  0.00    +0.000 A 
ATOM      4  C   UNL     1       2.116   5.989  20.353  0.00  0.00    +0.000 A 
ATOM      5  O   UNL     1       2.122   4.962  21.017  0.00  0.00    +0.000 OA
ATOM      6  O   UNL     1       1.496   7.129  20.828  0.00  0.00    +0.000 OA
ATOM      7  C   UNL     1       1.405   8.311  20.073  0.00  0.00    +0.000 A 
ATOM      8  C   UNL     1       0.642   9.364  20.610  0.00  0.00    +0.000 A 
ATOM      9  C   UNL     1      -0.004   9.262  21.965  0.00  0.00    +0.000 C 
ATOM     10  C   UNL     1       0.492  10.525  19.840  0.00  0.00    +0.000 A 
ATOM     11  C   UNL     1       1.133  10.630  18.605  0.00  0.00    +0.000 A 
ATOM     12  C   UNL     1       1.900   9.577  18.110  0.00  0.00    +0.000 A 
ATOM     13  C   UNL     1       2.040   8.391  18.830  0.00  0.00    +0.000 A 
ENDROOT
BRANCH   3  14
ATOM     14  C   UNL     1       3.290   4.758  18.492  0.00  0.00    +0.000 C 
BRANCH  14  15
ATOM     15  C   UNL     1       4.773   4.674  18.214  0.00  0.00    +0.000 A 
ATOM     16  C   UNL     1       5.252   4.224  16.977  0.00  0.00    +0.000 A 
ATOM     17  C   UNL     1       6.609   4.313  16.663  0.00  0.00    +0.000 A 
ATOM     18  C   UNL     1       7.505   4.849  17.585  0.00  0.00    +0.000 A 
ATOM     19  C   UNL     1       7.050   5.264  18.832  0.00  0.00    +0.000 A 
ATOM     20  C   UNL     1       5.692   5.175  19.148  0.00  0.00    +0.000 A 
ENDBRANCH  14  15
ENDBRANCH   3  14
BRANCH  10  21
ATOM     21  O   UNL     1      -0.268  11.532  20.377  0.00  0.00    +0.000 OA
BRANCH  21  22
ATOM     22  C   UNL     1      -0.331  12.714  19.584  0.00  0.00    +0.000 C 
BRANCH  22  23
ATOM     23  C   UNL     1       0.218  13.915  20.323  0.00  0.00    +0.000 C 
ATOM     24  O   UNL     1       0.309  13.927  21.550  0.00  0.00    +0.000 OA
ATOM     25  N   UNL     1       0.656  14.939  19.511  0.00  0.00    +0.000 N 
ATOM     26  H   UNL     1       0.597  14.807  18.511  0.00  0.00    +0.000 HD
BRANCH  25  27
ATOM     27  C   UNL     1       1.483  15.969  20.063  0.00  0.00    +0.000 C 
BRANCH  27  28
ATOM     28  C   UNL     1       2.958  15.935  19.649  0.00  0.00    +0.000 C 
ATOM     29  C   UNL     1       3.910  15.105  20.529  0.00  0.00    +0.000 C 
ATOM     30  C   UNL     1       5.332  15.080  19.932  0.00  0.00    +0.000 C 
ATOM     31  C   UNL     1       5.340  14.619  18.466  0.00  0.00    +0.000 C 
ATOM     32  C   UNL     1       4.361  15.430  17.620  0.00  0.00    +0.000 C 
ATOM     33  C   UNL     1       2.973  15.383  18.217  0.00  0.00    +0.000 C 
BRANCH  31  34
ATOM     34  C   UNL     1       6.710  14.742  17.826  0.00  0.00    +0.000 C 
ATOM     35  O   UNL     1       7.366  15.771  17.761  0.00  0.00    +0.000 OA
BRANCH  34  36
ATOM     36  O   UNL     1       7.126  13.585  17.257  0.00  0.00    +0.000 OA
ATOM     37  H   UNL     1       7.015  13.556  16.287  0.00  0.00    +0.000 HD
ENDBRANCH  34  36
ENDBRANCH  31  34
ENDBRANCH  27  28
ENDBRANCH  25  27
ENDBRANCH  22  23
ENDBRANCH  21  22
ENDBRANCH  10  21
TORSDOF 9
ENDMDL
MODEL 6
REMARK VINA RESULT:      -7.7      3.352      5.414
REMARK  Name = 
REMARK  11 active torsions:
REMARK  status: ('A' for Active; 'I' for Inactive)
REMARK    1  A    between atoms: C_1  and  C_2
REMARK    2  A    between atoms: C_3  and  C_4
REMARK    3  A    between atoms: C_4  and  C_5
REMARK    4  A    between atoms: C_15  and  C_16
REMARK    5  A    between atoms: C_17  and  O_18
REMARK    6  A    between atoms: O_18  and  C_19
REMARK    7  A    between atoms: C_19  and  C_20
REMARK    8  A    between atoms: N_22  and  C_23
REMARK    9  A    between atoms: C_23  and  C_24
REMARK   10  A    between atoms: C_27  and  C_28
REMARK   11  A    between atoms: C_28  and  O_30
REMARK                            x       y       z     vdW  Elec       q    Type
REMARK                         _______ _______ _______ _____ _____    ______ ____
ROOT
ATOM      1  C   UNL     1       5.192   3.584  18.608  0.00  0.00    +0.000 C 
ATOM      2  C   UNL     1       4.789   4.885  17.956  0.00  0.00    +0.000 A 
ATOM      3  C   UNL     1       5.366   5.370  16.840  0.00  0.00    +0.000 A 
ATOM      4  C   UNL     1       4.883   6.637  16.205  0.00  0.00    +0.000 A 
ATOM      5  O   UNL     1       5.374   7.083  15.178  0.00  0.00    +0.000 OA
ATOM      6  O   UNL     1       3.840   7.298  16.827  0.00  0.00    +0.000 OA
ATOM      7  C   UNL     1       3.288   6.862  18.044  0.00  0.00    +0.000 A 
ATOM      8  C   UNL     1       2.316   7.683  18.644  0.00  0.00    +0.000 A 
ATOM      9  C   UNL     1       1.836   8.949  17.988  0.00  0.00    +0.000 C 
ATOM     10  C   UNL     1       1.802   7.291  19.888  0.00  0.00    +0.000 A 
ATOM     11  C   UNL     1       2.219   6.092  20.467  0.00  0.00    +0.000 A 
ATOM     12  C   UNL     1       3.167   5.289  19.837  0.00  0.00    +0.000 A 
ATOM     13  C   UNL     1       3.729   5.666  18.618  0.00  0.00    +0.000 A 
ENDROOT
BRANCH   3  14
ATOM     14  C   UNL     1       6.602   4.793  16.196  0.00  0.00    +0.000 C 
BRANCH  14  15
ATOM     15  C   UNL     1       6.529   4.528  14.710  0.00  0.00    +0.000 A 
ATOM     16  C   UNL     1       7.487   5.056  13.834  0.00  0.00    +0.000 A 
ATOM     17  C   UNL     1       7.518   4.668  12.494  0.00  0.00    +0.000 A 
ATOM     18  C   UNL     1       6.590   3.750  12.010  0.00  0.00    +0.000 A 
ATOM     19  C   UNL     1       5.608   3.246  12.859  0.00  0.00    +0.000 A 
ATOM     20  C   UNL     1       5.576   3.634  14.200  0.00  0.00    +0.000 A 
ENDBRANCH  14  15
ENDBRANCH   3  14
BRANCH  10  21
ATOM     21  O   UNL     1       0.868   8.115  20.460  0.00  0.00    +0.000 OA
BRANCH  21  22
ATOM     22  C   UNL     1       1.264   8.685  21.705  0.00  0.00    +0.000 C 
BRANCH  22  23
ATOM     23  C   UNL     1       0.542   9.986  21.981  0.00  0.00    +0.000 C 
ATOM     24  O   UNL     1       0.332  10.372  23.130  0.00  0.00    +0.000 OA
ATOM     25  N   UNL     1       0.212  10.710  20.855  0.00  0.00    +0.000 N 
ATOM     26  H   UNL     1       0.485  10.337  19.956  0.00  0.00    +0.000 HD
BRANCH  25  27
ATOM     27  C   UNL     1      -0.167  12.084  20.990  0.00  0.00    +0.000 C 
BRANCH  27  28
ATOM     28  C   UNL     1       0.768  13.103  20.331  0.00  0.00    +0.000 C 
ATOM     29  C   UNL     1       2.083  13.419  21.068  0.00  0.00    +0.000 C 
ATOM     30  C   UNL     1       2.963  14.376  20.238  0.00  0.00    +0.000 C 
ATOM     31  C   UNL     1       3.203  13.858  18.812  0.00  0.00    +0.000 C 
ATOM     32  C   UNL     1       1.888  13.514  18.114  0.00  0.00    +0.000 C 
ATOM     33  C   UNL     1       1.085  12.536  18.941  0.00  0.00    +0.000 C 
BRANCH  31  34
ATOM     34  C   UNL     1       3.933  14.864  17.943  0.00  0.00    +0.000 C 
ATOM     35  O   UNL     1       3.416  15.550  17.074  0.00  0.00    +0.000 OA
BRANCH  34  36
ATOM     36  O   UNL     1       5.267  14.888  18.181  0.00  0.00    +0.000 OA
ATOM     37  H   UNL     1       5.791  15.309  17.472  0.00  0.00    +0.000 HD
ENDBRANCH  34  36
ENDBRANCH  31  34
ENDBRANCH  27  28
ENDBRANCH  25  27
ENDBRANCH  22  23
ENDBRANCH  21  22
ENDBRANCH  10  21
TORSDOF 9
ENDMDL
MODEL 7
REMARK VINA RESULT:      -7.7      3.752      6.100
REMARK  Name = 
REMARK  11 active torsions:
REMARK  status: ('A' for Active; 'I' for Inactive)
REMARK    1  A    between atoms: C_1  and  C_2
REMARK    2  A    between atoms: C_3  and  C_4
REMARK    3  A    between atoms: C_4  and  C_5
REMARK    4  A    between atoms: C_15  and  C_16
REMARK    5  A    between atoms: C_17  and  O_18
REMARK    6  A    between atoms: O_18  and  C_19
REMARK    7  A    between atoms: C_19  and  C_20
REMARK    8  A    between atoms: N_22  and  C_23
REMARK    9  A    between atoms: C_23  and  C_24
REMARK   10  A    between atoms: C_27  and  C_28
REMARK   11  A    between atoms: C_28  and  O_30
REMARK                            x       y       z     vdW  Elec       q    Type
REMARK                         _______ _______ _______ _____ _____    ______ ____
ROOT
ATOM      1  C   UNL     1       3.374   7.496  17.025  0.00  0.00    +0.000 C 
ATOM      2  C   UNL     1       2.712   7.281  18.365  0.00  0.00    +0.000 A 
ATOM      3  C   UNL     1       2.792   6.130  19.060  0.00  0.00    +0.000 A 
ATOM      4  C   UNL     1       2.163   5.996  20.412  0.00  0.00    +0.000 A 
ATOM      5  O   UNL     1       2.246   4.970  21.073  0.00  0.00    +0.000 OA
ATOM      6  O   UNL     1       1.477   7.092  20.901  0.00  0.00    +0.000 OA
ATOM      7  C   UNL     1       1.298   8.268  20.152  0.00  0.00    +0.000 A 
ATOM      8  C   UNL     1       0.477   9.268  20.705  0.00  0.00    +0.000 A 
ATOM      9  C   UNL     1      -0.140   9.120  22.069  0.00  0.00    +0.000 C 
ATOM     10  C   UNL     1       0.241  10.419  19.942  0.00  0.00    +0.000 A 
ATOM     11  C   UNL     1       0.855  10.569  18.697  0.00  0.00    +0.000 A 
ATOM     12  C   UNL     1       1.680   9.569  18.187  0.00  0.00    +0.000 A 
ATOM     13  C   UNL     1       1.908   8.393  18.901  0.00  0.00    +0.000 A 
ENDROOT
BRANCH   3  14
ATOM     14  C   UNL     1       3.385   4.849  18.529  0.00  0.00    +0.000 C 
BRANCH  14  15
ATOM     15  C   UNL     1       4.836   4.898  18.109  0.00  0.00    +0.000 A 
ATOM     16  C   UNL     1       5.832   5.318  19.000  0.00  0.00    +0.000 A 
ATOM     17  C   UNL     1       7.182   5.197  18.668  0.00  0.00    +0.000 A 
ATOM     18  C   UNL     1       7.554   4.657  17.439  0.00  0.00    +0.000 A 
ATOM     19  C   UNL     1       6.575   4.270  16.528  0.00  0.00    +0.000 A 
ATOM     20  C   UNL     1       5.224   4.392  16.859  0.00  0.00    +0.000 A 
ENDBRANCH  14  15
ENDBRANCH   3  14
BRANCH  10  21
ATOM     21  O   UNL     1      -0.575  11.373  20.494  0.00  0.00    +0.000 OA
BRANCH  21  22
ATOM     22  C   UNL     1      -0.479  12.658  19.886  0.00  0.00    +0.000 C 
BRANCH  22  23
ATOM     23  C   UNL     1       0.499  13.552  20.616  0.00  0.00    +0.000 C 
ATOM     24  O   UNL     1       0.836  13.322  21.777  0.00  0.00    +0.000 OA
ATOM     25  N   UNL     1       1.015  14.581  19.857  0.00  0.00    +0.000 N 
ATOM     26  H   UNL     1       0.723  14.648  18.892  0.00  0.00    +0.000 HD
BRANCH  25  27
ATOM     27  C   UNL     1       2.174  15.282  20.319  0.00  0.00    +0.000 C 
BRANCH  27  28
ATOM     28  C   UNL     1       3.516  14.787  19.771  0.00  0.00    +0.000 C 
ATOM     29  C   UNL     1       3.763  14.968  18.262  0.00  0.00    +0.000 C 
ATOM     30  C   UNL     1       5.188  14.521  17.878  0.00  0.00    +0.000 C 
ATOM     31  C   UNL     1       6.264  15.209  18.732  0.00  0.00    +0.000 C 
ATOM     32  C   UNL     1       5.979  15.050  20.224  0.00  0.00    +0.000 C 
ATOM     33  C   UNL     1       4.591  15.547  20.559  0.00  0.00    +0.000 C 
BRANCH  31  34
ATOM     34  C   UNL     1       7.654  14.660  18.469  0.00  0.00    +0.000 C 
ATOM     35  O   UNL     1       8.601  14.750  19.235  0.00  0.00    +0.000 OA
BRANCH  34  36
ATOM     36  O   UNL     1       7.769  14.098  17.242  0.00  0.00    +0.000 OA
ATOM     37  H   UNL     1       8.197  14.674  16.579  0.00  0.00    +0.000 HD
ENDBRANCH  34  36
ENDBRANCH  31  34
ENDBRANCH  27  28
ENDBRANCH  25  27
ENDBRANCH  22  23
ENDBRANCH  21  22
ENDBRANCH  10  21
TORSDOF 9
ENDMDL
MODEL 8
REMARK VINA RESULT:      -7.7      3.551      9.700
REMARK  Name = 
REMARK  11 active torsions:
REMARK  status: ('A' for Active; 'I' for Inactive)
REMARK    1  A    between atoms: C_1  and  C_2
REMARK    2  A    between atoms: C_3  and  C_4
REMARK    3  A    between atoms: C_4  and  C_5
REMARK    4  A    between atoms: C_15  and  C_16
REMARK    5  A    between atoms: C_17  and  O_18
REMARK    6  A    between atoms: O_18  and  C_19
REMARK    7  A    between atoms: C_19  and  C_20
REMARK    8  A    between atoms: N_22  and  C_23
REMARK    9  A    between atoms: C_23  and  C_24
REMARK   10  A    between atoms: C_27  and  C_28
REMARK   11  A    between atoms: C_28  and  O_30
REMARK                            x       y       z     vdW  Elec       q    Type
REMARK                         _______ _______ _______ _____ _____    ______ ____
ROOT
ATOM      1  C   UNL     1      -0.346  10.207  23.008  0.00  0.00    +0.000 C 
ATOM      2  C   UNL     1       0.173  10.422  21.606  0.00  0.00    +0.000 A 
ATOM      3  C   UNL     1       0.043  11.581  20.933  0.00  0.00    +0.000 A 
ATOM      4  C   UNL     1       0.631  11.754  19.567  0.00  0.00    +0.000 A 
ATOM      5  O   UNL     1       0.549  12.805  18.947  0.00  0.00    +0.000 OA
ATOM      6  O   UNL     1       1.287  10.667  19.019  0.00  0.00    +0.000 OA
ATOM      7  C   UNL     1       1.349   9.419  19.663  0.00  0.00    +0.000 A 
ATOM      8  C   UNL     1       1.935   8.355  18.954  0.00  0.00    +0.000 A 
ATOM      9  C   UNL     1       2.529   8.548  17.585  0.00  0.00    +0.000 C 
ATOM     10  C   UNL     1       1.949   7.091  19.560  0.00  0.00    +0.000 A 
ATOM     11  C   UNL     1       1.438   6.930  20.849  0.00  0.00    +0.000 A 
ATOM     12  C   UNL     1       0.884   8.010  21.534  0.00  0.00    +0.000 A 
ATOM     13  C   UNL     1       0.818   9.273  20.948  0.00  0.00    +0.000 A 
ENDROOT
BRANCH   3  14
ATOM     14  C   UNL     1      -0.787  12.752  21.396  0.00  0.00    +0.000 C 
BRANCH  14  15
ATOM     15  C   UNL     1      -2.287  12.599  21.295  0.00  0.00    +0.000 A 
ATOM     16  C   UNL     1      -3.093  12.611  22.441  0.00  0.00    +0.000 A 
ATOM     17  C   UNL     1      -4.484  12.646  22.334  0.00  0.00    +0.000 A 
ATOM     18  C   UNL     1      -5.088  12.666  21.080  0.00  0.00    +0.000 A 
ATOM     19  C   UNL     1      -4.302  12.617  19.932  0.00  0.00    +0.000 A 
ATOM     20  C   UNL     1      -2.910  12.580  20.038  0.00  0.00    +0.000 A 
ENDBRANCH  14  15
ENDBRANCH   3  14
BRANCH  10  21
ATOM     21  O   UNL     1       2.511   6.065  18.844  0.00  0.00    +0.000 OA
BRANCH  21  22
ATOM     22  C   UNL     1       3.038   5.007  19.639  0.00  0.00    +0.000 C 
BRANCH  22  23
ATOM     23  C   UNL     1       4.489   4.728  19.310  0.00  0.00    +0.000 C 
ATOM     24  O   UNL     1       5.040   3.689  19.673  0.00  0.00    +0.000 OA
ATOM     25  N   UNL     1       5.097   5.688  18.530  0.00  0.00    +0.000 N 
ATOM     26  H   UNL     1       4.539   6.475  18.230  0.00  0.00    +0.000 HD
BRANCH  25  27
ATOM     27  C   UNL     1       6.340   5.387  17.887  0.00  0.00    +0.000 C 
BRANCH  27  28
ATOM     28  C   UNL     1       6.291   5.273  16.360  0.00  0.00    +0.000 C 
ATOM     29  C   UNL     1       7.625   5.004  15.639  0.00  0.00    +0.000 C 
ATOM     30  C   UNL     1       7.404   4.812  14.125  0.00  0.00    +0.000 C 
ATOM     31  C   UNL     1       6.349   3.736  13.822  0.00  0.00    +0.000 C 
ATOM     32  C   UNL     1       5.048   4.002  14.578  0.00  0.00    +0.000 C 
ATOM     33  C   UNL     1       5.309   4.133  16.062  0.00  0.00    +0.000 C 
BRANCH  31  34
ATOM     34  C   UNL     1       6.012   3.651  12.346  0.00  0.00    +0.000 C 
ATOM     35  O   UNL     1       5.046   3.069  11.877  0.00  0.00    +0.000 OA
BRANCH  34  36
ATOM     36  O   UNL     1       6.945   4.245  11.563  0.00  0.00    +0.000 OA
ATOM     37  H   UNL     1       6.936   5.222  11.604  0.00  0.00    +0.000 HD
ENDBRANCH  34  36
ENDBRANCH  31  34
ENDBRANCH  27  28
ENDBRANCH  25  27
ENDBRANCH  22  23
ENDBRANCH  21  22
ENDBRANCH  10  21
TORSDOF 9
ENDMDL
MODEL 9
REMARK VINA RESULT:      -7.6      3.964      6.434
REMARK  Name = 
REMARK  11 active torsions:
REMARK  status: ('A' for Active; 'I' for Inactive)
REMARK    1  A    between atoms: C_1  and  C_2
REMARK    2  A    between atoms: C_3  and  C_4
REMARK    3  A    between atoms: C_4  and  C_5
REMARK    4  A    between atoms: C_15  and  C_16
REMARK    5  A    between atoms: C_17  and  O_18
REMARK    6  A    between atoms: O_18  and  C_19
REMARK    7  A    between atoms: C_19  and  C_20
REMARK    8  A    between atoms: N_22  and  C_23
REMARK    9  A    between atoms: C_23  and  C_24
REMARK   10  A    between atoms: C_27  and  C_28
REMARK   11  A    between atoms: C_28  and  O_30
REMARK                            x       y       z     vdW  Elec       q    Type
REMARK                         _______ _______ _______ _____ _____    ______ ____
ROOT
ATOM      1  C   UNL     1       3.614   7.202  16.980  0.00  0.00    +0.000 C 
ATOM      2  C   UNL     1       2.894   7.050  18.299  0.00  0.00    +0.000 A 
ATOM      3  C   UNL     1       2.868   5.903  19.005  0.00  0.00    +0.000 A 
ATOM      4  C   UNL     1       2.188   5.829  20.337  0.00  0.00    +0.000 A 
ATOM      5  O   UNL     1       2.173   4.806  21.008  0.00  0.00    +0.000 OA
ATOM      6  O   UNL     1       1.568   6.977  20.795  0.00  0.00    +0.000 OA
ATOM      7  C   UNL     1       1.499   8.154  20.031  0.00  0.00    +0.000 A 
ATOM      8  C   UNL     1       0.737   9.217  20.548  0.00  0.00    +0.000 A 
ATOM      9  C   UNL     1       0.066   9.128  21.893  0.00  0.00    +0.000 C 
ATOM     10  C   UNL     1       0.609  10.375  19.769  0.00  0.00    +0.000 A 
ATOM     11  C   UNL     1       1.273  10.467  18.544  0.00  0.00    +0.000 A 
ATOM     12  C   UNL     1       2.039   9.404  18.070  0.00  0.00    +0.000 A 
ATOM     13  C   UNL     1       2.157   8.222  18.800  0.00  0.00    +0.000 A 
ENDROOT
BRANCH   3  14
ATOM     14  C   UNL     1       3.383   4.577  18.505  0.00  0.00    +0.000 C 
BRANCH  14  15
ATOM     15  C   UNL     1       4.837   4.525  18.098  0.00  0.00    +0.000 A 
ATOM     16  C   UNL     1       5.211   4.177  16.794  0.00  0.00    +0.000 A 
ATOM     17  C   UNL     1       6.537   4.300  16.376  0.00  0.00    +0.000 A 
ATOM     18  C   UNL     1       7.507   4.769  17.258  0.00  0.00    +0.000 A 
ATOM     19  C   UNL     1       7.159   5.083  18.568  0.00  0.00    +0.000 A 
ATOM     20  C   UNL     1       5.832   4.959  18.988  0.00  0.00    +0.000 A 
ENDBRANCH  14  15
ENDBRANCH   3  14
BRANCH  10  21
ATOM     21  O   UNL     1      -0.152  11.391  20.287  0.00  0.00    +0.000 OA
BRANCH  21  22
ATOM     22  C   UNL     1       0.008  12.644  19.629  0.00  0.00    +0.000 C 
BRANCH  22  23
ATOM     23  C   UNL     1       0.938  13.563  20.391  0.00  0.00    +0.000 C 
ATOM     24  O   UNL     1       1.263  13.327  21.554  0.00  0.00    +0.000 OA
ATOM     25  N   UNL     1       1.426  14.624  19.657  0.00  0.00    +0.000 N 
ATOM     26  H   UNL     1       1.149  14.695  18.688  0.00  0.00    +0.000 HD
BRANCH  25  27
ATOM     27  C   UNL     1       2.550  15.361  20.151  0.00  0.00    +0.000 C 
BRANCH  27  28
ATOM     28  C   UNL     1       3.926  14.860  19.703  0.00  0.00    +0.000 C 
ATOM     29  C   UNL     1       4.356  15.196  18.263  0.00  0.00    +0.000 C 
ATOM     30  C   UNL     1       5.798  14.720  17.992  0.00  0.00    +0.000 C 
ATOM     31  C   UNL     1       6.792  15.251  19.037  0.00  0.00    +0.000 C 
ATOM     32  C   UNL     1       6.327  14.940  20.458  0.00  0.00    +0.000 C 
ATOM     33  C   UNL     1       4.930  15.469  20.691  0.00  0.00    +0.000 C 
BRANCH  31  34
ATOM     34  C   UNL     1       8.180  14.661  18.870  0.00  0.00    +0.000 C 
ATOM     35  O   UNL     1       8.821  14.656  17.830  0.00  0.00    +0.000 OA
BRANCH  34  36
ATOM     36  O   UNL     1       8.633  14.065  19.999  0.00  0.00    +0.000 OA
ATOM     37  H   UNL     1       8.434  13.110  20.052  0.00  0.00    +0.000 HD
ENDBRANCH  34  36
ENDBRANCH  31  34
ENDBRANCH  27  28
ENDBRANCH  25  27
ENDBRANCH  22  23
ENDBRANCH  21  22
ENDBRANCH  10  21
TORSDOF 9
ENDMDL
