MODEL 1
REMARK VINA RESULT:      -8.5      0.000      0.000
REMARK  Name = 
REMARK  4 active torsions:
REMARK  status: ('A' for Active; 'I' for Inactive)
REMARK    1  A    between atoms: C_1  and  C_2
REMARK    2  A    between atoms: C_5  and  C_6
REMARK    3  A    between atoms: N_13  and  C_14
REMARK    4  A    between atoms: C_14  and  C_15
REMARK                            x       y       z     vdW  Elec       q    Type
REMARK                         _______ _______ _______ _____ _____    ______ ____
ROOT
ATOM      1  C   UNL     1       3.186   6.342  17.725  0.00  0.00    +0.000 C 
ATOM      2  C   UNL     1       4.661   6.268  18.188  0.00  0.00    +0.000 C 
ATOM      3  C   UNL     1       5.300   4.903  17.922  0.00  0.00    +0.000 C 
ATOM      4  C   UNL     1       4.939   3.859  19.005  0.00  0.00    +0.000 C 
ATOM      5  C   UNL     1       3.897   2.959  18.350  0.00  0.00    +0.000 C 
ATOM      6  C   UNL     1       3.428   3.816  17.181  0.00  0.00    +0.000 C 
ATOM      7  C   UNL     1       2.496   4.957  17.730  0.00  0.00    +0.000 C 
ATOM      8  N   UNL     1       4.692   4.402  16.668  0.00  0.00    +0.000 NA
ENDROOT
BRANCH   1  13
ATOM      9  C   UNL     1       0.070  10.356  20.610  0.00  0.00    +0.000 C 
ATOM     10  C   UNL     1       0.936   9.370  19.881  0.00  0.00    +0.000 A 
ATOM     11  C   UNL     1       1.434   8.239  20.531  0.00  0.00    +0.000 A 
ATOM     12  C   UNL     1       2.208   7.306  19.833  0.00  0.00    +0.000 A 
ATOM     13  C   UNL     1       2.491   7.472  18.469  0.00  0.00    +0.000 A 
ATOM     14  C   UNL     1       2.005   8.618  17.826  0.00  0.00    +0.000 A 
ATOM     15  C   UNL     1       1.236   9.558  18.526  0.00  0.00    +0.000 A 
ENDBRANCH   1  13
BRANCH   8  16
ATOM     16  C   UNL     1       5.638   3.481  15.999  0.00  0.00    +0.000 C 
BRANCH  16  17
ATOM     17  C   UNL     1       6.174   3.916  14.658  0.00  0.00    +0.000 A 
ATOM     18  C   UNL     1       5.713   3.390  13.445  0.00  0.00    +0.000 A 
ATOM     19  C   UNL     1       6.292   3.789  12.236  0.00  0.00    +0.000 A 
ATOM     20  C   UNL     1       7.309   4.745  12.224  0.00  0.00    +0.000 A 
ATOM     21  C   UNL     1       7.714   5.338  13.415  0.00  0.00    +0.000 A 
ATOM     22  C   UNL     1       7.136   4.932  14.614  0.00  0.00    +0.000 A 
ATOM     23  F   UNL     1       7.522   5.538  15.747  0.00  0.00    +0.000 F 
ENDBRANCH  16  17
ENDBRANCH   8  16
TORSDOF 3
ENDMDL
MODEL 2
REMARK VINA RESULT:      -8.3      0.194      1.021
REMARK  Name = 
REMARK  4 active torsions:
REMARK  status: ('A' for Active; 'I' for Inactive)
REMARK    1  A    between atoms: C_1  and  C_2
REMARK    2  A    between atoms: C_5  and  C_6
REMARK    3  A    between atoms: N_13  and  C_14
REMARK    4  A    between atoms: C_14  and  C_15
REMARK                            x       y       z     vdW  Elec       q    Type
REMARK                         _______ _______ _______ _____ _____    ______ ____
ROOT
ATOM      1  C   UNL     1       3.080   6.198  17.741  0.00  0.00    +0.000 C 
ATOM      2  C   UNL     1       4.539   6.164  18.256  0.00  0.00    +0.000 C 
ATOM      3  C   UNL     1       5.234   4.826  17.987  0.00  0.00    +0.000 C 
ATOM      4  C   UNL     1       4.870   3.749  19.035  0.00  0.00    +0.000 C 
ATOM      5  C   UNL     1       3.884   2.828  18.325  0.00  0.00    +0.000 C 
ATOM      6  C   UNL     1       3.427   3.693  17.156  0.00  0.00    +0.000 C 
ATOM      7  C   UNL     1       2.438   4.790  17.694  0.00  0.00    +0.000 C 
ATOM      8  N   UNL     1       4.689   4.332  16.702  0.00  0.00    +0.000 NA
ENDROOT
BRANCH   1  13
ATOM      9  C   UNL     1       0.621  10.692  20.551  0.00  0.00    +0.000 C 
ATOM     10  C   UNL     1       1.180   9.504  19.823  0.00  0.00    +0.000 A 
ATOM     11  C   UNL     1       1.415   9.555  18.447  0.00  0.00    +0.000 A 
ATOM     12  C   UNL     1       1.972   8.456  17.784  0.00  0.00    +0.000 A 
ATOM     13  C   UNL     1       2.321   7.288  18.480  0.00  0.00    +0.000 A 
ATOM     14  C   UNL     1       2.065   7.236  19.856  0.00  0.00    +0.000 A 
ATOM     15  C   UNL     1       1.499   8.333  20.520  0.00  0.00    +0.000 A 
ENDBRANCH   1  13
BRANCH   8  16
ATOM     16  C   UNL     1       5.689   3.457  16.050  0.00  0.00    +0.000 C 
BRANCH  16  17
ATOM     17  C   UNL     1       6.207   3.904  14.706  0.00  0.00    +0.000 A 
ATOM     18  C   UNL     1       5.761   3.358  13.496  0.00  0.00    +0.000 A 
ATOM     19  C   UNL     1       6.324   3.771  12.284  0.00  0.00    +0.000 A 
ATOM     20  C   UNL     1       7.309   4.759  12.266  0.00  0.00    +0.000 A 
ATOM     21  C   UNL     1       7.697   5.371  13.453  0.00  0.00    +0.000 A 
ATOM     22  C   UNL     1       7.135   4.951  14.655  0.00  0.00    +0.000 A 
ATOM     23  F   UNL     1       7.504   5.574  15.785  0.00  0.00    +0.000 F 
ENDBRANCH  16  17
ENDBRANCH   8  16
TORSDOF 3
ENDMDL
MODEL 3
REMARK VINA RESULT:      -8.2      1.353      2.214
REMARK  Name = 
REMARK  4 active torsions:
REMARK  status: ('A' for Active; 'I' for Inactive)
REMARK    1  A    between atoms: C_1  and  C_2
REMARK    2  A    between atoms: C_5  and  C_6
REMARK    3  A    between atoms: N_13  and  C_14
REMARK    4  A    between atoms: C_14  and  C_15
REMARK                            x       y       z     vdW  Elec       q    Type
REMARK                         _______ _______ _______ _____ _____    ______ ____
ROOT
ATOM      1  C   UNL     1       4.049   6.354  17.853  0.00  0.00    +0.000 C 
ATOM      2  C   UNL     1       4.878   7.309  16.961  0.00  0.00    +0.000 C 
ATOM      3  C   UNL     1       6.279   6.771  16.655  0.00  0.00    +0.000 C 
ATOM      4  C   UNL     1       7.277   7.029  17.808  0.00  0.00    +0.000 C 
ATOM      5  C   UNL     1       7.436   5.679  18.498  0.00  0.00    +0.000 C 
ATOM      6  C   UNL     1       6.209   4.923  18.003  0.00  0.00    +0.000 C 
ATOM      7  C   UNL     1       4.940   5.466  18.755  0.00  0.00    +0.000 C 
ATOM      8  N   UNL     1       6.143   5.299  16.567  0.00  0.00    +0.000 NA
ENDROOT
BRANCH   1  13
ATOM      9  C   UNL     1       0.165   9.798  20.535  0.00  0.00    +0.000 C 
ATOM     10  C   UNL     1       1.102   8.866  19.824  0.00  0.00    +0.000 A 
ATOM     11  C   UNL     1       1.543   9.148  18.528  0.00  0.00    +0.000 A 
ATOM     12  C   UNL     1       2.446   8.293  17.888  0.00  0.00    +0.000 A 
ATOM     13  C   UNL     1       2.941   7.146  18.529  0.00  0.00    +0.000 A 
ATOM     14  C   UNL     1       2.481   6.859  19.820  0.00  0.00    +0.000 A 
ATOM     15  C   UNL     1       1.570   7.710  20.460  0.00  0.00    +0.000 A 
ENDBRANCH   1  13
BRANCH   8  16
ATOM     16  C   UNL     1       7.200   4.761  15.681  0.00  0.00    +0.000 C 
BRANCH  16  17
ATOM     17  C   UNL     1       6.786   4.395  14.278  0.00  0.00    +0.000 A 
ATOM     18  C   UNL     1       5.626   3.666  13.991  0.00  0.00    +0.000 A 
ATOM     19  C   UNL     1       5.327   3.303  12.674  0.00  0.00    +0.000 A 
ATOM     20  C   UNL     1       6.162   3.697  11.628  0.00  0.00    +0.000 A 
ATOM     21  C   UNL     1       7.271   4.495  11.892  0.00  0.00    +0.000 A 
ATOM     22  C   UNL     1       7.563   4.848  13.205  0.00  0.00    +0.000 A 
ATOM     23  F   UNL     1       8.621   5.641  13.433  0.00  0.00    +0.000 F 
ENDBRANCH  16  17
ENDBRANCH   8  16
TORSDOF 3
ENDMDL
MODEL 4
REMARK VINA RESULT:      -7.9      1.689      3.139
REMARK  Name = 
REMARK  4 active torsions:
REMARK  status: ('A' for Active; 'I' for Inactive)
REMARK    1  A    between atoms: C_1  and  C_2
REMARK    2  A    between atoms: C_5  and  C_6
REMARK    3  A    between atoms: N_13  and  C_14
REMARK    4  A    between atoms: C_14  and  C_15
REMARK                            x       y       z     vdW  Elec       q    Type
REMARK                         _______ _______ _______ _____ _____    ______ ____
ROOT
ATOM      1  C   UNL     1       2.092   7.433  20.028  0.00  0.00    +0.000 C 
ATOM      2  C   UNL     1       2.042   6.129  20.859  0.00  0.00    +0.000 C 
ATOM      3  C   UNL     1       2.521   4.905  20.073  0.00  0.00    +0.000 C 
ATOM      4  C   UNL     1       1.423   4.325  19.152  0.00  0.00    +0.000 C 
ATOM      5  C   UNL     1       1.810   4.776  17.748  0.00  0.00    +0.000 C 
ATOM      6  C   UNL     1       2.777   5.917  18.037  0.00  0.00    +0.000 C 
ATOM      7  C   UNL     1       1.956   7.172  18.509  0.00  0.00    +0.000 C 
ATOM      8  N   UNL     1       3.586   5.391  19.166  0.00  0.00    +0.000 NA
ENDROOT
BRANCH   1  13
ATOM      9  C   UNL     1      -1.099  11.670  22.481  0.00  0.00    +0.000 C 
ATOM     10  C   UNL     1      -0.347  10.545  21.830  0.00  0.00    +0.000 A 
ATOM     11  C   UNL     1       0.139  10.671  20.527  0.00  0.00    +0.000 A 
ATOM     12  C   UNL     1       0.871   9.632  19.943  0.00  0.00    +0.000 A 
ATOM     13  C   UNL     1       1.147   8.450  20.649  0.00  0.00    +0.000 A 
ATOM     14  C   UNL     1       0.640   8.323  21.949  0.00  0.00    +0.000 A 
ATOM     15  C   UNL     1      -0.101   9.359  22.532  0.00  0.00    +0.000 A 
ENDBRANCH   1  13
BRANCH   8  16
ATOM     16  C   UNL     1       4.518   4.281  18.866  0.00  0.00    +0.000 C 
BRANCH  16  17
ATOM     17  C   UNL     1       5.374   4.429  17.633  0.00  0.00    +0.000 A 
ATOM     18  C   UNL     1       5.103   3.764  16.431  0.00  0.00    +0.000 A 
ATOM     19  C   UNL     1       5.969   3.894  15.341  0.00  0.00    +0.000 A 
ATOM     20  C   UNL     1       7.091   4.718  15.426  0.00  0.00    +0.000 A 
ATOM     21  C   UNL     1       7.323   5.453  16.585  0.00  0.00    +0.000 A 
ATOM     22  C   UNL     1       6.459   5.314  17.667  0.00  0.00    +0.000 A 
ATOM     23  F   UNL     1       6.686   6.053  18.764  0.00  0.00    +0.000 F 
ENDBRANCH  16  17
ENDBRANCH   8  16
TORSDOF 3
ENDMDL
MODEL 5
REMARK VINA RESULT:      -7.9      1.868      3.196
REMARK  Name = 
REMARK  4 active torsions:
REMARK  status: ('A' for Active; 'I' for Inactive)
REMARK    1  A    between atoms: C_1  and  C_2
REMARK    2  A    between atoms: C_5  and  C_6
REMARK    3  A    between atoms: N_13  and  C_14
REMARK    4  A    between atoms: C_14  and  C_15
REMARK                            x       y       z     vdW  Elec       q    Type
REMARK                         _______ _______ _______ _____ _____    ______ ____
ROOT
ATOM      1  C   UNL     1       2.149   7.451  20.149  0.00  0.00    +0.000 C 
ATOM      2  C   UNL     1       1.931   6.150  20.958  0.00  0.00    +0.000 C 
ATOM      3  C   UNL     1       2.293   4.890  20.167  0.00  0.00    +0.000 C 
ATOM      4  C   UNL     1       1.164   4.447  19.207  0.00  0.00    +0.000 C 
ATOM      5  C   UNL     1       1.639   4.869  17.822  0.00  0.00    +0.000 C 
ATOM      6  C   UNL     1       2.719   5.892  18.154  0.00  0.00    +0.000 C 
ATOM      7  C   UNL     1       2.028   7.224  18.623  0.00  0.00    +0.000 C 
ATOM      8  N   UNL     1       3.431   5.265  19.296  0.00  0.00    +0.000 NA
ENDROOT
BRANCH   1  13
ATOM      9  C   UNL     1      -1.451  11.316  22.647  0.00  0.00    +0.000 C 
ATOM     10  C   UNL     1      -0.472  10.381  21.999  0.00  0.00    +0.000 A 
ATOM     11  C   UNL     1       0.323   9.531  22.772  0.00  0.00    +0.000 A 
ATOM     12  C   UNL     1       1.205   8.636  22.157  0.00  0.00    +0.000 A 
ATOM     13  C   UNL     1       1.305   8.559  20.759  0.00  0.00    +0.000 A 
ATOM     14  C   UNL     1       0.520   9.427  19.990  0.00  0.00    +0.000 A 
ATOM     15  C   UNL     1      -0.359  10.330  20.605  0.00  0.00    +0.000 A 
ENDBRANCH   1  13
BRANCH   8  16
ATOM     16  C   UNL     1       4.243   4.062  19.005  0.00  0.00    +0.000 C 
BRANCH  16  17
ATOM     17  C   UNL     1       5.241   4.174  17.880  0.00  0.00    +0.000 A 
ATOM     18  C   UNL     1       4.960   3.775  16.568  0.00  0.00    +0.000 A 
ATOM     19  C   UNL     1       5.948   3.847  15.580  0.00  0.00    +0.000 A 
ATOM     20  C   UNL     1       7.212   4.352  15.884  0.00  0.00    +0.000 A 
ATOM     21  C   UNL     1       7.475   4.833  17.163  0.00  0.00    +0.000 A 
ATOM     22  C   UNL     1       6.488   4.754  18.140  0.00  0.00    +0.000 A 
ATOM     23  F   UNL     1       6.755   5.249  19.358  0.00  0.00    +0.000 F 
ENDBRANCH  16  17
ENDBRANCH   8  16
TORSDOF 3
ENDMDL
MODEL 6
REMARK VINA RESULT:      -7.9      2.625      7.590
REMARK  Name = 
REMARK  4 active torsions:
REMARK  status: ('A' for Active; 'I' for Inactive)
REMARK    1  A    between atoms: C_1  and  C_2
REMARK    2  A    between atoms: C_5  and  C_6
REMARK    3  A    between atoms: N_13  and  C_14
REMARK    4  A    between atoms: C_14  and  C_15
REMARK                            x       y       z     vdW  Elec       q    Type
REMARK                         _______ _______ _______ _____ _____    ______ ____
ROOT
ATOM      1  C   UNL     1       4.997   5.015  15.244  0.00  0.00    +0.000 C 
ATOM      2  C   UNL     1       4.780   3.898  16.293  0.00  0.00    +0.000 C 
ATOM      3  C   UNL     1       4.647   4.439  17.719  0.00  0.00    +0.000 C 
ATOM      4  C   UNL     1       6.018   4.741  18.368  0.00  0.00    +0.000 C 
ATOM      5  C   UNL     1       6.147   6.259  18.321  0.00  0.00    +0.000 C 
ATOM      6  C   UNL     1       5.110   6.634  17.269  0.00  0.00    +0.000 C 
ATOM      7  C   UNL     1       5.675   6.268  15.848  0.00  0.00    +0.000 C 
ATOM      8  N   UNL     1       3.965   5.748  17.599  0.00  0.00    +0.000 NA
ENDROOT
BRANCH   1  13
ATOM      9  C   UNL     1       7.409   2.200  10.728  0.00  0.00    +0.000 C 
ATOM     10  C   UNL     1       6.781   2.987  11.841  0.00  0.00    +0.000 A 
ATOM     11  C   UNL     1       5.422   2.851  12.133  0.00  0.00    +0.000 A 
ATOM     12  C   UNL     1       4.853   3.560  13.197  0.00  0.00    +0.000 A 
ATOM     13  C   UNL     1       5.629   4.409  14.001  0.00  0.00    +0.000 A 
ATOM     14  C   UNL     1       6.988   4.556  13.691  0.00  0.00    +0.000 A 
ATOM     15  C   UNL     1       7.557   3.853  12.621  0.00  0.00    +0.000 A 
ENDBRANCH   1  13
BRANCH   8  16
ATOM     16  C   UNL     1       3.232   6.035  18.853  0.00  0.00    +0.000 C 
BRANCH  16  17
ATOM     17  C   UNL     1       2.492   4.882  19.484  0.00  0.00    +0.000 A 
ATOM     18  C   UNL     1       2.664   4.505  20.821  0.00  0.00    +0.000 A 
ATOM     19  C   UNL     1       1.995   3.388  21.332  0.00  0.00    +0.000 A 
ATOM     20  C   UNL     1       1.120   2.661  20.525  0.00  0.00    +0.000 A 
ATOM     21  C   UNL     1       0.874   3.079  19.220  0.00  0.00    +0.000 A 
ATOM     22  C   UNL     1       1.547   4.188  18.719  0.00  0.00    +0.000 A 
ATOM     23  F   UNL     1       1.273   4.589  17.468  0.00  0.00    +0.000 F 
ENDBRANCH  16  17
ENDBRANCH   8  16
TORSDOF 3
ENDMDL
MODEL 7
REMARK VINA RESULT:      -7.8      1.844      3.439
REMARK  Name = 
REMARK  4 active torsions:
REMARK  status: ('A' for Active; 'I' for Inactive)
REMARK    1  A    between atoms: C_1  and  C_2
REMARK    2  A    between atoms: C_5  and  C_6
REMARK    3  A    between atoms: N_13  and  C_14
REMARK    4  A    between atoms: C_14  and  C_15
REMARK                            x       y       z     vdW  Elec       q    Type
REMARK                         _______ _______ _______ _____ _____    ______ ____
ROOT
ATOM      1  C   UNL     1       2.069   7.573  20.127  0.00  0.00    +0.000 C 
ATOM      2  C   UNL     1       2.023   6.262  20.947  0.00  0.00    +0.000 C 
ATOM      3  C   UNL     1       2.567   5.058  20.174  0.00  0.00    +0.000 C 
ATOM      4  C   UNL     1       1.522   4.454  19.207  0.00  0.00    +0.000 C 
ATOM      5  C   UNL     1       1.952   4.925  17.822  0.00  0.00    +0.000 C 
ATOM      6  C   UNL     1       2.875   6.091  18.156  0.00  0.00    +0.000 C 
ATOM      7  C   UNL     1       2.001   7.318  18.602  0.00  0.00    +0.000 C 
ATOM      8  N   UNL     1       3.653   5.579  19.313  0.00  0.00    +0.000 NA
ENDROOT
BRANCH   1  13
ATOM      9  C   UNL     1      -1.345  11.726  22.417  0.00  0.00    +0.000 C 
ATOM     10  C   UNL     1      -0.534  10.616  21.813  0.00  0.00    +0.000 A 
ATOM     11  C   UNL     1      -0.101  10.688  20.487  0.00  0.00    +0.000 A 
ATOM     12  C   UNL     1       0.687   9.668  19.944  0.00  0.00    +0.000 A 
ATOM     13  C   UNL     1       1.072   8.559  20.715  0.00  0.00    +0.000 A 
ATOM     14  C   UNL     1       0.619   8.484  22.038  0.00  0.00    +0.000 A 
ATOM     15  C   UNL     1      -0.177   9.501  22.581  0.00  0.00    +0.000 A 
ENDBRANCH   1  13
BRANCH   8  16
ATOM     16  C   UNL     1       4.627   4.498  19.044  0.00  0.00    +0.000 C 
BRANCH  16  17
ATOM     17  C   UNL     1       5.474   4.642  17.804  0.00  0.00    +0.000 A 
ATOM     18  C   UNL     1       6.510   5.577  17.692  0.00  0.00    +0.000 A 
ATOM     19  C   UNL     1       7.220   5.705  16.494  0.00  0.00    +0.000 A 
ATOM     20  C   UNL     1       6.929   4.875  15.411  0.00  0.00    +0.000 A 
ATOM     21  C   UNL     1       5.962   3.884  15.540  0.00  0.00    +0.000 A 
ATOM     22  C   UNL     1       5.257   3.766  16.733  0.00  0.00    +0.000 A 
ATOM     23  F   UNL     1       4.349   2.785  16.845  0.00  0.00    +0.000 F 
ENDBRANCH  16  17
ENDBRANCH   8  16
TORSDOF 3
ENDMDL
MODEL 8
REMARK VINA RESULT:      -7.7      2.833      4.045
REMARK  Name = 
REMARK  4 active torsions:
REMARK  status: ('A' for Active; 'I' for Inactive)
REMARK    1  A    between atoms: C_1  and  C_2
REMARK    2  A    between atoms: C_5  and  C_6
REMARK    3  A    between atoms: N_13  and  C_14
REMARK    4  A    between atoms: C_14  and  C_15
REMARK                            x       y       z     vdW  Elec       q    Type
REMARK                         _______ _______ _______ _____ _____    ______ ____
ROOT
ATOM      1  C   UNL     1       5.168   4.263  18.413  0.00  0.00    +0.000 C 
ATOM      2  C   UNL     1       4.465   5.155  17.363  0.00  0.00    +0.000 C 
ATOM      3  C   UNL     1       5.450   5.974  16.524  0.00  0.00    +0.000 C 
ATOM      4  C   UNL     1       5.925   7.255  17.250  0.00  0.00    +0.000 C 
ATOM      5  C   UNL     1       7.339   6.936  17.721  0.00  0.00    +0.000 C 
ATOM      6  C   UNL     1       7.363   5.414  17.646  0.00  0.00    +0.000 C 
ATOM      7  C   UNL     1       6.538   4.834  18.852  0.00  0.00    +0.000 C 
ATOM      8  N   UNL     1       6.658   5.132  16.370  0.00  0.00    +0.000 NA
ENDROOT
BRANCH   1  13
ATOM      9  C   UNL     1       1.111   2.575  22.265  0.00  0.00    +0.000 C 
ATOM     10  C   UNL     1       2.192   3.045  21.335  0.00  0.00    +0.000 A 
ATOM     11  C   UNL     1       3.249   2.202  20.985  0.00  0.00    +0.000 A 
ATOM     12  C   UNL     1       4.231   2.636  20.088  0.00  0.00    +0.000 A 
ATOM     13  C   UNL     1       4.174   3.913  19.510  0.00  0.00    +0.000 A 
ATOM     14  C   UNL     1       3.122   4.761  19.880  0.00  0.00    +0.000 A 
ATOM     15  C   UNL     1       2.142   4.331  20.784  0.00  0.00    +0.000 A 
ENDBRANCH   1  13
BRANCH   8  16
ATOM     16  C   UNL     1       7.357   5.501  15.119  0.00  0.00    +0.000 C 
BRANCH  16  17
ATOM     17  C   UNL     1       6.947   4.761  13.870  0.00  0.00    +0.000 A 
ATOM     18  C   UNL     1       5.839   3.907  13.819  0.00  0.00    +0.000 A 
ATOM     19  C   UNL     1       5.545   3.199  12.649  0.00  0.00    +0.000 A 
ATOM     20  C   UNL     1       6.332   3.367  11.509  0.00  0.00    +0.000 A 
ATOM     21  C   UNL     1       7.383   4.279  11.521  0.00  0.00    +0.000 A 
ATOM     22  C   UNL     1       7.671   4.975  12.691  0.00  0.00    +0.000 A 
ATOM     23  F   UNL     1       8.671   5.869  12.672  0.00  0.00    +0.000 F 
ENDBRANCH  16  17
ENDBRANCH   8  16
TORSDOF 3
ENDMDL
MODEL 9
REMARK VINA RESULT:      -7.6      1.011      1.419
REMARK  Name = 
REMARK  4 active torsions:
REMARK  status: ('A' for Active; 'I' for Inactive)
REMARK    1  A    between atoms: C_1  and  C_2
REMARK    2  A    between atoms: C_5  and  C_6
REMARK    3  A    between atoms: N_13  and  C_14
REMARK    4  A    between atoms: C_14  and  C_15
REMARK                            x       y       z     vdW  Elec       q    Type
REMARK                         _______ _______ _______ _____ _____    ______ ____
ROOT
ATOM      1  C   UNL     1       3.160   6.311  17.569  0.00  0.00    +0.000 C 
ATOM      2  C   UNL     1       4.687   6.344  17.811  0.00  0.00    +0.000 C 
ATOM      3  C   UNL     1       5.363   5.000  17.530  0.00  0.00    +0.000 C 
ATOM      4  C   UNL     1       5.227   4.010  18.711  0.00  0.00    +0.000 C 
ATOM      5  C   UNL     1       4.158   3.017  18.269  0.00  0.00    +0.000 C 
ATOM      6  C   UNL     1       3.473   3.772  17.136  0.00  0.00    +0.000 C 
ATOM      7  C   UNL     1       2.563   4.895  17.753  0.00  0.00    +0.000 C 
ATOM      8  N   UNL     1       4.611   4.389  16.410  0.00  0.00    +0.000 NA
ENDROOT
BRANCH   1  13
ATOM      9  C   UNL     1       0.212  10.372  20.563  0.00  0.00    +0.000 C 
ATOM     10  C   UNL     1       1.036   9.371  19.807  0.00  0.00    +0.000 A 
ATOM     11  C   UNL     1       1.486   8.203  20.426  0.00  0.00    +0.000 A 
ATOM     12  C   UNL     1       2.221   7.257  19.703  0.00  0.00    +0.000 A 
ATOM     13  C   UNL     1       2.512   7.449  18.343  0.00  0.00    +0.000 A 
ATOM     14  C   UNL     1       2.074   8.631  17.733  0.00  0.00    +0.000 A 
ATOM     15  C   UNL     1       1.345   9.583  18.458  0.00  0.00    +0.000 A 
ENDBRANCH   1  13
BRANCH   8  16
ATOM     16  C   UNL     1       5.505   3.477  15.660  0.00  0.00    +0.000 C 
BRANCH  16  17
ATOM     17  C   UNL     1       6.315   4.088  14.544  0.00  0.00    +0.000 A 
ATOM     18  C   UNL     1       7.300   5.059  14.760  0.00  0.00    +0.000 A 
ATOM     19  C   UNL     1       7.976   5.633  13.679  0.00  0.00    +0.000 A 
ATOM     20  C   UNL     1       7.701   5.218  12.375  0.00  0.00    +0.000 A 
ATOM     21  C   UNL     1       6.786   4.192  12.155  0.00  0.00    +0.000 A 
ATOM     22  C   UNL     1       6.116   3.629  13.236  0.00  0.00    +0.000 A 
ATOM     23  F   UNL     1       5.259   2.623  13.003  0.00  0.00    +0.000 F 
ENDBRANCH  16  17
ENDBRANCH   8  16
TORSDOF 3
ENDMDL
