MODEL 1
REMARK VINA RESULT:      -6.6      0.000      0.000
REMARK  Name = 
REMARK  11 active torsions:
REMARK  status: ('A' for Active; 'I' for Inactive)
REMARK    1  A    between atoms: C_1  and  C_2
REMARK    2  A    between atoms: C_2  and  C_3
REMARK    3  A    between atoms: C_3  and  C_4
REMARK    4  A    between atoms: C_4  and  C_5
REMARK    5  A    between atoms: C_5  and  C_6
REMARK    6  A    between atoms: C_5  and  N_7
REMARK    7  A    between atoms: N_7  and  C_8
REMARK    8  A    between atoms: N_7  and  S_17
REMARK    9  A    between atoms: C_14  and  C_15
REMARK   10  A    between atoms: C_15  and  O_16
REMARK   11  A    between atoms: S_17  and  C_20
REMARK                            x       y       z     vdW  Elec       q    Type
REMARK                         _______ _______ _______ _____ _____    ______ ____
ROOT
ATOM      1  N   UNL     1       5.919   4.933  16.805  0.00  0.00    +0.000 N 
ENDROOT
BRANCH   1   2
ATOM      2  C   UNL     1       4.551   4.810  17.291  0.00  0.00    +0.000 A 
ATOM      3  C   UNL     1       4.083   3.494  17.438  0.00  0.00    +0.000 A 
ATOM      4  C   UNL     1       2.781   3.241  17.868  0.00  0.00    +0.000 A 
ATOM      5 CL   UNL     1       2.214   1.622  17.985  0.00  0.00    +0.000 Cl
ATOM      6  C   UNL     1       1.932   4.291  18.192  0.00  0.00    +0.000 A 
ATOM      7  C   UNL     1       2.376   5.600  18.026  0.00  0.00    +0.000 A 
ATOM      8  C   UNL     1       3.669   5.883  17.531  0.00  0.00    +0.000 A 
BRANCH   8   9
ATOM      9  C   UNL     1       3.979   7.334  17.273  0.00  0.00    +0.000 C 
BRANCH   9  10
ATOM     10  O   UNL     1       2.765   8.077  17.196  0.00  0.00    +0.000 OA
ATOM     11  H   UNL     1       2.919   8.920  17.659  0.00  0.00    +0.000 HD
ENDBRANCH   9  10
ENDBRANCH   8   9
ENDBRANCH   1   2
BRANCH   1  12
ATOM     12  S   UNL     1       7.074   5.005  18.106  0.00  0.00    +0.000 S 
ATOM     13  O   UNL     1       6.393   4.781  19.369  0.00  0.00    +0.000 OA
ATOM     14  O   UNL     1       8.206   4.184  17.724  0.00  0.00    +0.000 OA
BRANCH  12  15
ATOM     15  C   UNL     1       7.623   6.703  18.151  0.00  0.00    +0.000 A 
ATOM     16  C   UNL     1       7.150   7.614  17.199  0.00  0.00    +0.000 A 
ATOM     17  C   UNL     1       7.566   8.950  17.255  0.00  0.00    +0.000 A 
ATOM     18  C   UNL     1       8.452   9.365  18.252  0.00  0.00    +0.000 A 
ATOM     19 CL   UNL     1       8.960  11.010  18.317  0.00  0.00    +0.000 Cl
ATOM     20  C   UNL     1       8.923   8.461  19.203  0.00  0.00    +0.000 A 
ATOM     21  C   UNL     1       8.492   7.132  19.167  0.00  0.00    +0.000 A 
ENDBRANCH  12  15
ENDBRANCH   1  12
BRANCH   1  22
ATOM     22  C   UNL     1       6.313   4.187  15.533  0.00  0.00    +0.000 C 
ATOM     23  C   UNL     1       7.490   4.884  14.844  0.00  0.00    +0.000 C 
BRANCH  22  24
ATOM     24  C   UNL     1       5.127   4.075  14.534  0.00  0.00    +0.000 C 
BRANCH  24  25
ATOM     25  C   UNL     1       5.528   4.297  13.064  0.00  0.00    +0.000 C 
BRANCH  25  27
ATOM     26  C   UNL     1       4.116   3.220  11.283  0.00  0.00    +0.000 C 
ATOM     27  C   UNL     1       5.311   3.049  12.210  0.00  0.00    +0.000 C 
ENDBRANCH  25  27
ENDBRANCH  24  25
ENDBRANCH  22  24
ENDBRANCH   1  22
TORSDOF 9
ENDMDL
MODEL 2
REMARK VINA RESULT:      -6.6      1.688      2.477
REMARK  Name = 
REMARK  11 active torsions:
REMARK  status: ('A' for Active; 'I' for Inactive)
REMARK    1  A    between atoms: C_1  and  C_2
REMARK    2  A    between atoms: C_2  and  C_3
REMARK    3  A    between atoms: C_3  and  C_4
REMARK    4  A    between atoms: C_4  and  C_5
REMARK    5  A    between atoms: C_5  and  C_6
REMARK    6  A    between atoms: C_5  and  N_7
REMARK    7  A    between atoms: N_7  and  C_8
REMARK    8  A    between atoms: N_7  and  S_17
REMARK    9  A    between atoms: C_14  and  C_15
REMARK   10  A    between atoms: C_15  and  O_16
REMARK   11  A    between atoms: S_17  and  C_20
REMARK                            x       y       z     vdW  Elec       q    Type
REMARK                         _______ _______ _______ _____ _____    ______ ____
ROOT
ATOM      1  N   UNL     1       5.840   5.083  16.986  0.00  0.00    +0.000 N 
ENDROOT
BRANCH   1   2
ATOM      2  C   UNL     1       4.446   5.069  17.409  0.00  0.00    +0.000 A 
ATOM      3  C   UNL     1       3.825   6.328  17.469  0.00  0.00    +0.000 A 
ATOM      4  C   UNL     1       2.500   6.454  17.888  0.00  0.00    +0.000 A 
ATOM      5 CL   UNL     1       1.782   8.011  18.008  0.00  0.00    +0.000 Cl
ATOM      6  C   UNL     1       1.760   5.328  18.223  0.00  0.00    +0.000 A 
ATOM      7  C   UNL     1       2.372   4.078  18.191  0.00  0.00    +0.000 A 
ATOM      8  C   UNL     1       3.732   3.931  17.832  0.00  0.00    +0.000 A 
BRANCH   8   9
ATOM      9  C   UNL     1       4.308   2.546  17.966  0.00  0.00    +0.000 C 
BRANCH   9  10
ATOM     10  O   UNL     1       4.927   2.407  19.242  0.00  0.00    +0.000 OA
ATOM     11  H   UNL     1       5.769   1.936  19.099  0.00  0.00    +0.000 HD
ENDBRANCH   9  10
ENDBRANCH   8   9
ENDBRANCH   1   2
BRANCH   1  12
ATOM     12  S   UNL     1       6.935   5.199  18.334  0.00  0.00    +0.000 S 
ATOM     13  O   UNL     1       6.189   5.071  19.575  0.00  0.00    +0.000 OA
ATOM     14  O   UNL     1       8.056   4.324  18.056  0.00  0.00    +0.000 OA
BRANCH  12  15
ATOM     15  C   UNL     1       7.535   6.880  18.307  0.00  0.00    +0.000 A 
ATOM     16  C   UNL     1       8.515   7.284  19.222  0.00  0.00    +0.000 A 
ATOM     17  C   UNL     1       8.998   8.598  19.179  0.00  0.00    +0.000 A 
ATOM     18  C   UNL     1       8.500   9.497  18.233  0.00  0.00    +0.000 A 
ATOM     19 CL   UNL     1       9.100  11.110  18.183  0.00  0.00    +0.000 Cl
ATOM     20  C   UNL     1       7.527   9.096  17.318  0.00  0.00    +0.000 A 
ATOM     21  C   UNL     1       7.058   7.779  17.341  0.00  0.00    +0.000 A 
ENDBRANCH  12  15
ENDBRANCH   1  12
BRANCH   1  22
ATOM     22  C   UNL     1       6.252   4.219  15.797  0.00  0.00    +0.000 C 
ATOM     23  C   UNL     1       7.560   4.732  15.187  0.00  0.00    +0.000 C 
BRANCH  22  24
ATOM     24  C   UNL     1       5.153   4.182  14.697  0.00  0.00    +0.000 C 
BRANCH  24  25
ATOM     25  C   UNL     1       5.709   4.082  13.265  0.00  0.00    +0.000 C 
BRANCH  25  27
ATOM     26  C   UNL     1       5.527   2.249  11.553  0.00  0.00    +0.000 C 
ATOM     27  C   UNL     1       4.772   3.316  12.332  0.00  0.00    +0.000 C 
ENDBRANCH  25  27
ENDBRANCH  24  25
ENDBRANCH  22  24
ENDBRANCH   1  22
TORSDOF 9
ENDMDL
MODEL 3
REMARK VINA RESULT:      -6.5      8.079     10.086
REMARK  Name = 
REMARK  11 active torsions:
REMARK  status: ('A' for Active; 'I' for Inactive)
REMARK    1  A    between atoms: C_1  and  C_2
REMARK    2  A    between atoms: C_2  and  C_3
REMARK    3  A    between atoms: C_3  and  C_4
REMARK    4  A    between atoms: C_4  and  C_5
REMARK    5  A    between atoms: C_5  and  C_6
REMARK    6  A    between atoms: C_5  and  N_7
REMARK    7  A    between atoms: N_7  and  C_8
REMARK    8  A    between atoms: N_7  and  S_17
REMARK    9  A    between atoms: C_14  and  C_15
REMARK   10  A    between atoms: C_15  and  O_16
REMARK   11  A    between atoms: S_17  and  C_20
REMARK                            x       y       z     vdW  Elec       q    Type
REMARK                         _______ _______ _______ _____ _____    ______ ____
ROOT
ATOM      1  N   UNL     1      -0.383  11.457  20.173  0.00  0.00    +0.000 N 
ENDROOT
BRANCH   1   2
ATOM      2  C   UNL     1       0.358  10.207  20.269  0.00  0.00    +0.000 A 
ATOM      3  C   UNL     1       1.078   9.847  19.117  0.00  0.00    +0.000 A 
ATOM      4  C   UNL     1       1.806   8.658  19.070  0.00  0.00    +0.000 A 
ATOM      5 CL   UNL     1       2.632   8.213  17.629  0.00  0.00    +0.000 Cl
ATOM      6  C   UNL     1       1.858   7.822  20.178  0.00  0.00    +0.000 A 
ATOM      7  C   UNL     1       1.129   8.156  21.315  0.00  0.00    +0.000 A 
ATOM      8  C   UNL     1       0.332   9.323  21.366  0.00  0.00    +0.000 A 
BRANCH   8   9
ATOM      9  C   UNL     1      -0.510   9.500  22.602  0.00  0.00    +0.000 C 
BRANCH   9  10
ATOM     10  O   UNL     1       0.335   9.714  23.730  0.00  0.00    +0.000 OA
ATOM     11  H   UNL     1      -0.243   9.963  24.473  0.00  0.00    +0.000 HD
ENDBRANCH   9  10
ENDBRANCH   8   9
ENDBRANCH   1   2
BRANCH   1  12
ATOM     12  S   UNL     1       0.626  12.843  20.481  0.00  0.00    +0.000 S 
ATOM     13  O   UNL     1       1.844  12.415  21.148  0.00  0.00    +0.000 OA
ATOM     14  O   UNL     1       0.689  13.613  19.255  0.00  0.00    +0.000 OA
BRANCH  12  15
ATOM     15  C   UNL     1      -0.266  13.812  21.687  0.00  0.00    +0.000 A 
ATOM     16  C   UNL     1      -0.379  15.197  21.522  0.00  0.00    +0.000 A 
ATOM     17  C   UNL     1      -1.100  15.947  22.459  0.00  0.00    +0.000 A 
ATOM     18  C   UNL     1      -1.697  15.315  23.552  0.00  0.00    +0.000 A 
ATOM     19 CL   UNL     1      -2.584  16.242  24.701  0.00  0.00    +0.000 Cl
ATOM     20  C   UNL     1      -1.590  13.934  23.717  0.00  0.00    +0.000 A 
ATOM     21  C   UNL     1      -0.891  13.177  22.772  0.00  0.00    +0.000 A 
ENDBRANCH  12  15
ENDBRANCH   1  12
BRANCH   1  22
ATOM     22  C   UNL     1      -1.473  11.583  19.112  0.00  0.00    +0.000 C 
ATOM     23  C   UNL     1      -2.664  12.376  19.656  0.00  0.00    +0.000 C 
BRANCH  22  24
ATOM     24  C   UNL     1      -1.964  10.194  18.616  0.00  0.00    +0.000 C 
BRANCH  24  25
ATOM     25  C   UNL     1      -1.749   9.958  17.110  0.00  0.00    +0.000 C 
BRANCH  25  27
ATOM     26  C   UNL     1      -3.178  10.845  15.240  0.00  0.00    +0.000 C 
ATOM     27  C   UNL     1      -3.068   9.812  16.353  0.00  0.00    +0.000 C 
ENDBRANCH  25  27
ENDBRANCH  24  25
ENDBRANCH  22  24
ENDBRANCH   1  22
TORSDOF 9
ENDMDL
MODEL 4
REMARK VINA RESULT:      -6.4      0.329      1.035
REMARK  Name = 
REMARK  11 active torsions:
REMARK  status: ('A' for Active; 'I' for Inactive)
REMARK    1  A    between atoms: C_1  and  C_2
REMARK    2  A    between atoms: C_2  and  C_3
REMARK    3  A    between atoms: C_3  and  C_4
REMARK    4  A    between atoms: C_4  and  C_5
REMARK    5  A    between atoms: C_5  and  C_6
REMARK    6  A    between atoms: C_5  and  N_7
REMARK    7  A    between atoms: N_7  and  C_8
REMARK    8  A    between atoms: N_7  and  S_17
REMARK    9  A    between atoms: C_14  and  C_15
REMARK   10  A    between atoms: C_15  and  O_16
REMARK   11  A    between atoms: S_17  and  C_20
REMARK                            x       y       z     vdW  Elec       q    Type
REMARK                         _______ _______ _______ _____ _____    ______ ____
ROOT
ATOM      1  N   UNL     1       5.906   5.011  16.971  0.00  0.00    +0.000 N 
ENDROOT
BRANCH   1   2
ATOM      2  C   UNL     1       4.536   4.854  17.440  0.00  0.00    +0.000 A 
ATOM      3  C   UNL     1       4.098   3.526  17.577  0.00  0.00    +0.000 A 
ATOM      4  C   UNL     1       2.797   3.241  17.991  0.00  0.00    +0.000 A 
ATOM      5 CL   UNL     1       2.268   1.608  18.096  0.00  0.00    +0.000 Cl
ATOM      6  C   UNL     1       1.919   4.269  18.307  0.00  0.00    +0.000 A 
ATOM      7  C   UNL     1       2.333   5.588  18.151  0.00  0.00    +0.000 A 
ATOM      8  C   UNL     1       3.625   5.904  17.672  0.00  0.00    +0.000 A 
BRANCH   8   9
ATOM      9  C   UNL     1       3.903   7.363  17.422  0.00  0.00    +0.000 C 
BRANCH   9  10
ATOM     10  O   UNL     1       2.693   8.108  17.541  0.00  0.00    +0.000 OA
ATOM     11  H   UNL     1       2.562   8.285  18.490  0.00  0.00    +0.000 HD
ENDBRANCH   9  10
ENDBRANCH   8   9
ENDBRANCH   1   2
BRANCH   1  12
ATOM     12  S   UNL     1       7.038   5.152  18.286  0.00  0.00    +0.000 S 
ATOM     13  O   UNL     1       6.336   4.984  19.547  0.00  0.00    +0.000 OA
ATOM     14  O   UNL     1       8.181   4.322  17.963  0.00  0.00    +0.000 OA
BRANCH  12  15
ATOM     15  C   UNL     1       7.576   6.855  18.260  0.00  0.00    +0.000 A 
ATOM     16  C   UNL     1       8.532   7.296  19.182  0.00  0.00    +0.000 A 
ATOM     17  C   UNL     1       8.967   8.627  19.140  0.00  0.00    +0.000 A 
ATOM     18  C   UNL     1       8.443   9.505  18.188  0.00  0.00    +0.000 A 
ATOM     19 CL   UNL     1       8.983  11.140  18.140  0.00  0.00    +0.000 Cl
ATOM     20  C   UNL     1       7.493   9.067  17.267  0.00  0.00    +0.000 A 
ATOM     21  C   UNL     1       7.073   7.734  17.288  0.00  0.00    +0.000 A 
ENDBRANCH  12  15
ENDBRANCH   1  12
BRANCH   1  22
ATOM     22  C   UNL     1       6.344   4.249  15.723  0.00  0.00    +0.000 C 
ATOM     23  C   UNL     1       7.572   4.912  15.092  0.00  0.00    +0.000 C 
BRANCH  22  24
ATOM     24  C   UNL     1       5.207   4.162  14.666  0.00  0.00    +0.000 C 
BRANCH  24  25
ATOM     25  C   UNL     1       5.709   4.160  13.211  0.00  0.00    +0.000 C 
BRANCH  25  27
ATOM     26  C   UNL     1       5.559   2.286  11.540  0.00  0.00    +0.000 C 
ATOM     27  C   UNL     1       4.789   3.370  12.282  0.00  0.00    +0.000 C 
ENDBRANCH  25  27
ENDBRANCH  24  25
ENDBRANCH  22  24
ENDBRANCH   1  22
TORSDOF 9
ENDMDL
MODEL 5
REMARK VINA RESULT:      -6.3      8.413     10.489
REMARK  Name = 
REMARK  11 active torsions:
REMARK  status: ('A' for Active; 'I' for Inactive)
REMARK    1  A    between atoms: C_1  and  C_2
REMARK    2  A    between atoms: C_2  and  C_3
REMARK    3  A    between atoms: C_3  and  C_4
REMARK    4  A    between atoms: C_4  and  C_5
REMARK    5  A    between atoms: C_5  and  C_6
REMARK    6  A    between atoms: C_5  and  N_7
REMARK    7  A    between atoms: N_7  and  C_8
REMARK    8  A    between atoms: N_7  and  S_17
REMARK    9  A    between atoms: C_14  and  C_15
REMARK   10  A    between atoms: C_15  and  O_16
REMARK   11  A    between atoms: S_17  and  C_20
REMARK                            x       y       z     vdW  Elec       q    Type
REMARK                         _______ _______ _______ _____ _____    ______ ____
ROOT
ATOM      1  N   UNL     1      -0.776  11.575  20.166  0.00  0.00    +0.000 N 
ENDROOT
BRANCH   1   2
ATOM      2  C   UNL     1       0.044  10.385  20.351  0.00  0.00    +0.000 A 
ATOM      3  C   UNL     1       0.749   9.960  19.213  0.00  0.00    +0.000 A 
ATOM      4  C   UNL     1       1.548   8.817  19.251  0.00  0.00    +0.000 A 
ATOM      5 CL   UNL     1       2.355   8.285  17.829  0.00  0.00    +0.000 Cl
ATOM      6  C   UNL     1       1.686   8.095  20.430  0.00  0.00    +0.000 A 
ATOM      7  C   UNL     1       0.972   8.493  21.556  0.00  0.00    +0.000 A 
ATOM      8  C   UNL     1       0.106   9.610  21.526  0.00  0.00    +0.000 A 
BRANCH   8   9
ATOM      9  C   UNL     1      -0.707   9.855  22.770  0.00  0.00    +0.000 C 
BRANCH   9  10
ATOM     10  O   UNL     1       0.037   9.446  23.916  0.00  0.00    +0.000 OA
ATOM     11  H   UNL     1      -0.578   8.959  24.493  0.00  0.00    +0.000 HD
ENDBRANCH   9  10
ENDBRANCH   8   9
ENDBRANCH   1   2
BRANCH   1  12
ATOM     12  S   UNL     1       0.102  13.038  20.515  0.00  0.00    +0.000 S 
ATOM     13  O   UNL     1       1.319  12.710  21.239  0.00  0.00    +0.000 OA
ATOM     14  O   UNL     1       0.160  13.809  19.289  0.00  0.00    +0.000 OA
BRANCH  12  15
ATOM     15  C   UNL     1      -0.920  13.931  21.674  0.00  0.00    +0.000 A 
ATOM     16  C   UNL     1      -1.000  13.504  23.005  0.00  0.00    +0.000 A 
ATOM     17  C   UNL     1      -1.785  14.224  23.914  0.00  0.00    +0.000 A 
ATOM     18  C   UNL     1      -2.485  15.356  23.492  0.00  0.00    +0.000 A 
ATOM     19 CL   UNL     1      -3.448  16.239  24.615  0.00  0.00    +0.000 Cl
ATOM     20  C   UNL     1      -2.404  15.786  22.168  0.00  0.00    +0.000 A 
ATOM     21  C   UNL     1      -1.604  15.086  21.261  0.00  0.00    +0.000 A 
ENDBRANCH  12  15
ENDBRANCH   1  12
BRANCH   1  22
ATOM     22  C   UNL     1      -1.785  11.598  19.020  0.00  0.00    +0.000 C 
ATOM     23  C   UNL     1      -3.115  12.193  19.488  0.00  0.00    +0.000 C 
BRANCH  22  24
ATOM     24  C   UNL     1      -2.034  10.178  18.438  0.00  0.00    +0.000 C 
BRANCH  24  25
ATOM     25  C   UNL     1      -3.182  10.118  17.414  0.00  0.00    +0.000 C 
BRANCH  25  27
ATOM     26  C   UNL     1      -3.285  10.642  14.957  0.00  0.00    +0.000 C 
ATOM     27  C   UNL     1      -2.695   9.726  16.020  0.00  0.00    +0.000 C 
ENDBRANCH  25  27
ENDBRANCH  24  25
ENDBRANCH  22  24
ENDBRANCH   1  22
TORSDOF 9
ENDMDL
MODEL 6
REMARK VINA RESULT:      -6.3      3.315      6.175
REMARK  Name = 
REMARK  11 active torsions:
REMARK  status: ('A' for Active; 'I' for Inactive)
REMARK    1  A    between atoms: C_1  and  C_2
REMARK    2  A    between atoms: C_2  and  C_3
REMARK    3  A    between atoms: C_3  and  C_4
REMARK    4  A    between atoms: C_4  and  C_5
REMARK    5  A    between atoms: C_5  and  C_6
REMARK    6  A    between atoms: C_5  and  N_7
REMARK    7  A    between atoms: N_7  and  C_8
REMARK    8  A    between atoms: N_7  and  S_17
REMARK    9  A    between atoms: C_14  and  C_15
REMARK   10  A    between atoms: C_15  and  O_16
REMARK   11  A    between atoms: S_17  and  C_20
REMARK                            x       y       z     vdW  Elec       q    Type
REMARK                         _______ _______ _______ _____ _____    ______ ____
ROOT
ATOM      1  N   UNL     1       3.959   5.187  18.522  0.00  0.00    +0.000 N 
ENDROOT
BRANCH   1   2
ATOM      2  C   UNL     1       5.162   5.021  17.717  0.00  0.00    +0.000 A 
ATOM      3  C   UNL     1       4.949   4.544  16.413  0.00  0.00    +0.000 A 
ATOM      4  C   UNL     1       6.020   4.314  15.550  0.00  0.00    +0.000 A 
ATOM      5 CL   UNL     1       5.737   3.676  13.979  0.00  0.00    +0.000 Cl
ATOM      6  C   UNL     1       7.320   4.587  15.957  0.00  0.00    +0.000 A 
ATOM      7  C   UNL     1       7.545   5.035  17.255  0.00  0.00    +0.000 A 
ATOM      8  C   UNL     1       6.482   5.215  18.169  0.00  0.00    +0.000 A 
BRANCH   8   9
ATOM      9  C   UNL     1       6.871   5.576  19.579  0.00  0.00    +0.000 C 
BRANCH   9  10
ATOM     10  O   UNL     1       8.276   5.403  19.747  0.00  0.00    +0.000 OA
ATOM     11  H   UNL     1       8.600   6.180  20.237  0.00  0.00    +0.000 HD
ENDBRANCH   9  10
ENDBRANCH   8   9
ENDBRANCH   1   2
BRANCH   1  12
ATOM     12  S   UNL     1       2.844   6.318  17.810  0.00  0.00    +0.000 S 
ATOM     13  O   UNL     1       3.579   7.284  17.011  0.00  0.00    +0.000 OA
ATOM     14  O   UNL     1       1.763   5.550  17.226  0.00  0.00    +0.000 OA
BRANCH  12  15
ATOM     15  C   UNL     1       2.175   7.243  19.184  0.00  0.00    +0.000 A 
ATOM     16  C   UNL     1       1.787   8.576  19.003  0.00  0.00    +0.000 A 
ATOM     17  C   UNL     1       1.241   9.287  20.079  0.00  0.00    +0.000 A 
ATOM     18  C   UNL     1       1.091   8.670  21.322  0.00  0.00    +0.000 A 
ATOM     19 CL   UNL     1       0.418   9.549  22.641  0.00  0.00    +0.000 Cl
ATOM     20  C   UNL     1       1.473   7.341  21.505  0.00  0.00    +0.000 A 
ATOM     21  C   UNL     1       1.997   6.619  20.428  0.00  0.00    +0.000 A 
ENDBRANCH  12  15
ENDBRANCH   1  12
BRANCH   1  22
ATOM     22  C   UNL     1       3.386   3.969  19.243  0.00  0.00    +0.000 C 
ATOM     23  C   UNL     1       4.511   3.031  19.691  0.00  0.00    +0.000 C 
BRANCH  22  24
ATOM     24  C   UNL     1       2.388   3.181  18.348  0.00  0.00    +0.000 C 
BRANCH  24  25
ATOM     25  C   UNL     1       1.170   2.630  19.111  0.00  0.00    +0.000 C 
BRANCH  25  27
ATOM     26  C   UNL     1       1.346   2.593  21.620  0.00  0.00    +0.000 C 
ATOM     27  C   UNL     1       0.902   3.396  20.405  0.00  0.00    +0.000 C 
ENDBRANCH  25  27
ENDBRANCH  24  25
ENDBRANCH  22  24
ENDBRANCH   1  22
TORSDOF 9
ENDMDL
MODEL 7
REMARK VINA RESULT:      -6.2      7.793      9.888
REMARK  Name = 
REMARK  11 active torsions:
REMARK  status: ('A' for Active; 'I' for Inactive)
REMARK    1  A    between atoms: C_1  and  C_2
REMARK    2  A    between atoms: C_2  and  C_3
REMARK    3  A    between atoms: C_3  and  C_4
REMARK    4  A    between atoms: C_4  and  C_5
REMARK    5  A    between atoms: C_5  and  C_6
REMARK    6  A    between atoms: C_5  and  N_7
REMARK    7  A    between atoms: N_7  and  C_8
REMARK    8  A    between atoms: N_7  and  S_17
REMARK    9  A    between atoms: C_14  and  C_15
REMARK   10  A    between atoms: C_15  and  O_16
REMARK   11  A    between atoms: S_17  and  C_20
REMARK                            x       y       z     vdW  Elec       q    Type
REMARK                         _______ _______ _______ _____ _____    ______ ____
ROOT
ATOM      1  N   UNL     1      -0.118  11.135  19.847  0.00  0.00    +0.000 N 
ENDROOT
BRANCH   1   2
ATOM      2  C   UNL     1       0.606   9.878  19.975  0.00  0.00    +0.000 A 
ATOM      3  C   UNL     1       1.350   9.496  18.847  0.00  0.00    +0.000 A 
ATOM      4  C   UNL     1       2.065   8.299  18.832  0.00  0.00    +0.000 A 
ATOM      5 CL   UNL     1       2.921   7.827  17.417  0.00  0.00    +0.000 Cl
ATOM      6  C   UNL     1       2.080   7.475  19.950  0.00  0.00    +0.000 A 
ATOM      7  C   UNL     1       1.326   7.831  21.064  0.00  0.00    +0.000 A 
ATOM      8  C   UNL     1       0.542   9.007  21.081  0.00  0.00    +0.000 A 
BRANCH   8   9
ATOM      9  C   UNL     1      -0.329   9.208  22.294  0.00  0.00    +0.000 C 
BRANCH   9  10
ATOM     10  O   UNL     1       0.422   9.855  23.319  0.00  0.00    +0.000 OA
ATOM     11  H   UNL     1       0.551  10.778  23.036  0.00  0.00    +0.000 HD
ENDBRANCH   9  10
ENDBRANCH   8   9
ENDBRANCH   1   2
BRANCH   1  12
ATOM     12  S   UNL     1       0.725  12.458  20.603  0.00  0.00    +0.000 S 
ATOM     13  O   UNL     1       1.860  11.943  21.350  0.00  0.00    +0.000 OA
ATOM     14  O   UNL     1       0.910  13.484  19.596  0.00  0.00    +0.000 OA
BRANCH  12  15
ATOM     15  C   UNL     1      -0.407  13.095  21.829  0.00  0.00    +0.000 A 
ATOM     16  C   UNL     1      -1.541  12.353  22.181  0.00  0.00    +0.000 A 
ATOM     17  C   UNL     1      -2.411  12.848  23.160  0.00  0.00    +0.000 A 
ATOM     18  C   UNL     1      -2.149  14.074  23.775  0.00  0.00    +0.000 A 
ATOM     19 CL   UNL     1      -3.222  14.677  24.980  0.00  0.00    +0.000 Cl
ATOM     20  C   UNL     1      -1.018  14.813  23.429  0.00  0.00    +0.000 A 
ATOM     21  C   UNL     1      -0.133  14.313  22.469  0.00  0.00    +0.000 A 
ENDBRANCH  12  15
ENDBRANCH   1  12
BRANCH   1  22
ATOM     22  C   UNL     1      -0.878  11.414  18.553  0.00  0.00    +0.000 C 
ATOM     23  C   UNL     1      -1.561  12.783  18.614  0.00  0.00    +0.000 C 
BRANCH  22  24
ATOM     24  C   UNL     1      -1.945  10.321  18.259  0.00  0.00    +0.000 C 
BRANCH  24  25
ATOM     25  C   UNL     1      -1.890   9.766  16.825  0.00  0.00    +0.000 C 
BRANCH  25  27
ATOM     26  C   UNL     1      -4.111  10.945  16.772  0.00  0.00    +0.000 C 
ATOM     27  C   UNL     1      -3.227   9.904  16.099  0.00  0.00    +0.000 C 
ENDBRANCH  25  27
ENDBRANCH  24  25
ENDBRANCH  22  24
ENDBRANCH   1  22
TORSDOF 9
ENDMDL
MODEL 8
REMARK VINA RESULT:      -6.0      6.872      9.886
REMARK  Name = 
REMARK  11 active torsions:
REMARK  status: ('A' for Active; 'I' for Inactive)
REMARK    1  A    between atoms: C_1  and  C_2
REMARK    2  A    between atoms: C_2  and  C_3
REMARK    3  A    between atoms: C_3  and  C_4
REMARK    4  A    between atoms: C_4  and  C_5
REMARK    5  A    between atoms: C_5  and  C_6
REMARK    6  A    between atoms: C_5  and  N_7
REMARK    7  A    between atoms: N_7  and  C_8
REMARK    8  A    between atoms: N_7  and  S_17
REMARK    9  A    between atoms: C_14  and  C_15
REMARK   10  A    between atoms: C_15  and  O_16
REMARK   11  A    between atoms: S_17  and  C_20
REMARK                            x       y       z     vdW  Elec       q    Type
REMARK                         _______ _______ _______ _____ _____    ______ ____
ROOT
ATOM      1  N   UNL     1       0.062  10.798  19.922  0.00  0.00    +0.000 N 
ENDROOT
BRANCH   1   2
ATOM      2  C   UNL     1       0.461  12.089  20.466  0.00  0.00    +0.000 A 
ATOM      3  C   UNL     1       1.563  12.690  19.837  0.00  0.00    +0.000 A 
ATOM      4  C   UNL     1       2.062  13.915  20.281  0.00  0.00    +0.000 A 
ATOM      5 CL   UNL     1       3.447  14.602  19.531  0.00  0.00    +0.000 Cl
ATOM      6  C   UNL     1       1.452  14.579  21.338  0.00  0.00    +0.000 A 
ATOM      7  C   UNL     1       0.375  13.981  21.985  0.00  0.00    +0.000 A 
ATOM      8  C   UNL     1      -0.108  12.711  21.595  0.00  0.00    +0.000 A 
BRANCH   8   9
ATOM      9  C   UNL     1      -1.190  12.117  22.459  0.00  0.00    +0.000 C 
BRANCH   9  10
ATOM     10  O   UNL     1      -0.621  11.153  23.342  0.00  0.00    +0.000 OA
ATOM     11  H   UNL     1      -0.007  10.613  22.813  0.00  0.00    +0.000 HD
ENDBRANCH   9  10
ENDBRANCH   8   9
ENDBRANCH   1   2
BRANCH   1  12
ATOM     12  S   UNL     1       0.579   9.474  20.928  0.00  0.00    +0.000 S 
ATOM     13  O   UNL     1       1.498   9.966  21.940  0.00  0.00    +0.000 OA
ATOM     14  O   UNL     1      -0.607   8.733  21.310  0.00  0.00    +0.000 OA
BRANCH  12  15
ATOM     15  C   UNL     1       1.555   8.427  19.861  0.00  0.00    +0.000 A 
ATOM     16  C   UNL     1       1.960   8.898  18.606  0.00  0.00    +0.000 A 
ATOM     17  C   UNL     1       2.746   8.080  17.784  0.00  0.00    +0.000 A 
ATOM     18  C   UNL     1       3.116   6.804  18.214  0.00  0.00    +0.000 A 
ATOM     19 CL   UNL     1       4.084   5.804  17.200  0.00  0.00    +0.000 Cl
ATOM     20  C   UNL     1       2.717   6.334  19.465  0.00  0.00    +0.000 A 
ATOM     21  C   UNL     1       1.953   7.155  20.300  0.00  0.00    +0.000 A 
ENDBRANCH  12  15
ENDBRANCH   1  12
BRANCH   1  22
ATOM     22  C   UNL     1      -1.289  10.684  19.222  0.00  0.00    +0.000 C 
ATOM     23  C   UNL     1      -1.129  10.024  17.849  0.00  0.00    +0.000 C 
BRANCH  22  24
ATOM     24  C   UNL     1      -1.972  12.070  19.048  0.00  0.00    +0.000 C 
BRANCH  24  25
ATOM     25  C   UNL     1      -3.477  12.067  19.374  0.00  0.00    +0.000 C 
BRANCH  25  27
ATOM     26  C   UNL     1      -4.759  12.708  21.441  0.00  0.00    +0.000 C 
ATOM     27  C   UNL     1      -3.868  13.208  20.312  0.00  0.00    +0.000 C 
ENDBRANCH  25  27
ENDBRANCH  24  25
ENDBRANCH  22  24
ENDBRANCH   1  22
TORSDOF 9
ENDMDL
MODEL 9
REMARK VINA RESULT:      -6.0      6.788      9.520
REMARK  Name = 
REMARK  11 active torsions:
REMARK  status: ('A' for Active; 'I' for Inactive)
REMARK    1  A    between atoms: C_1  and  C_2
REMARK    2  A    between atoms: C_2  and  C_3
REMARK    3  A    between atoms: C_3  and  C_4
REMARK    4  A    between atoms: C_4  and  C_5
REMARK    5  A    between atoms: C_5  and  C_6
REMARK    6  A    between atoms: C_5  and  N_7
REMARK    7  A    between atoms: N_7  and  C_8
REMARK    8  A    between atoms: N_7  and  S_17
REMARK    9  A    between atoms: C_14  and  C_15
REMARK   10  A    between atoms: C_15  and  O_16
REMARK   11  A    between atoms: S_17  and  C_20
REMARK                            x       y       z     vdW  Elec       q    Type
REMARK                         _______ _______ _______ _____ _____    ______ ____
ROOT
ATOM      1  N   UNL     1       0.107  10.530  20.068  0.00  0.00    +0.000 N 
ENDROOT
BRANCH   1   2
ATOM      2  C   UNL     1       0.348  11.845  20.646  0.00  0.00    +0.000 A 
ATOM      3  C   UNL     1      -0.490  12.192  21.719  0.00  0.00    +0.000 A 
ATOM      4  C   UNL     1      -0.380  13.435  22.341  0.00  0.00    +0.000 A 
ATOM      5 CL   UNL     1      -1.457  13.857  23.614  0.00  0.00    +0.000 Cl
ATOM      6  C   UNL     1       0.587  14.343  21.930  0.00  0.00    +0.000 A 
ATOM      7  C   UNL     1       1.406  14.021  20.852  0.00  0.00    +0.000 A 
ATOM      8  C   UNL     1       1.272  12.793  20.164  0.00  0.00    +0.000 A 
BRANCH   8   9
ATOM      9  C   UNL     1       2.128  12.623  18.936  0.00  0.00    +0.000 C 
BRANCH   9  10
ATOM     10  O   UNL     1       1.317  12.735  17.769  0.00  0.00    +0.000 OA
ATOM     11  H   UNL     1       0.682  13.455  17.933  0.00  0.00    +0.000 HD
ENDBRANCH   9  10
ENDBRANCH   8   9
ENDBRANCH   1   2
BRANCH   1  12
ATOM     12  S   UNL     1       0.612   9.244  21.129  0.00  0.00    +0.000 S 
ATOM     13  O   UNL     1       1.553   9.765  22.105  0.00  0.00    +0.000 OA
ATOM     14  O   UNL     1      -0.582   8.544  21.557  0.00  0.00    +0.000 OA
BRANCH  12  15
ATOM     15  C   UNL     1       1.556   8.132  20.099  0.00  0.00    +0.000 A 
ATOM     16  C   UNL     1       1.764   6.810  20.510  0.00  0.00    +0.000 A 
ATOM     17  C   UNL     1       2.486   5.937  19.686  0.00  0.00    +0.000 A 
ATOM     18  C   UNL     1       2.996   6.387  18.466  0.00  0.00    +0.000 A 
ATOM     19 CL   UNL     1       3.881   5.308  17.456  0.00  0.00    +0.000 Cl
ATOM     20  C   UNL     1       2.787   7.702  18.052  0.00  0.00    +0.000 A 
ATOM     21  C   UNL     1       2.048   8.571  18.860  0.00  0.00    +0.000 A 
ENDBRANCH  12  15
ENDBRANCH   1  12
BRANCH   1  22
ATOM     22  C   UNL     1      -1.151  10.318  19.230  0.00  0.00    +0.000 C 
ATOM     23  C   UNL     1      -0.784   9.862  17.815  0.00  0.00    +0.000 C 
BRANCH  22  24
ATOM     24  C   UNL     1      -2.016  11.607  19.145  0.00  0.00    +0.000 C 
BRANCH  24  25
ATOM     25  C   UNL     1      -2.863  11.705  17.864  0.00  0.00    +0.000 C 
BRANCH  25  27
ATOM     26  C   UNL     1      -5.027  12.068  19.093  0.00  0.00    +0.000 C 
ATOM     27  C   UNL     1      -4.292  11.208  18.074  0.00  0.00    +0.000 C 
ENDBRANCH  25  27
ENDBRANCH  24  25
ENDBRANCH  22  24
ENDBRANCH   1  22
TORSDOF 9
ENDMDL
