MODEL 1
REMARK VINA RESULT:      -6.5      0.000      0.000
REMARK  Name = 
REMARK  10 active torsions:
REMARK  status: ('A' for Active; 'I' for Inactive)
REMARK    1  A    between atoms: C_1  and  C_2
REMARK    2  A    between atoms: C_2  and  O_3
REMARK    3  A    between atoms: O_3  and  C_4
REMARK    4  A    between atoms: C_4  and  C_6
REMARK    5  A    between atoms: C_7  and  C_8
REMARK    6  A    between atoms: C_12  and  C_13
REMARK    7  A    between atoms: C_16  and  O_17
REMARK    8  A    between atoms: O_17  and  C_18
REMARK    9  A    between atoms: C_24  and  C_25
REMARK   10  A    between atoms: C_24  and  C_26
REMARK                            x       y       z     vdW  Elec       q    Type
REMARK                         _______ _______ _______ _____ _____    ______ ____
ROOT
ATOM      1  C   UNL     1       3.207   4.025  19.963  0.00  0.00    +0.000 A 
ATOM      2  C   UNL     1       2.129   3.868  20.843  0.00  0.00    +0.000 A 
ATOM      3  C   UNL     1       1.750   2.609  21.571  0.00  0.00    +0.000 C 
ATOM      4  N   UNL     1       1.298   4.893  21.148  0.00  0.00    +0.000 NA
ATOM      5  C   UNL     1       1.483   6.091  20.545  0.00  0.00    +0.000 A 
ATOM      6  C   UNL     1       2.438   6.302  19.545  0.00  0.00    +0.000 A 
ATOM      7  C   UNL     1       3.378   5.266  19.257  0.00  0.00    +0.000 A 
ATOM      8  C   UNL     1       2.353   7.612  18.815  0.00  0.00    +0.000 C 
ATOM      9  O   UNL     1       2.901   7.787  17.730  0.00  0.00    +0.000 OA
ATOM     10  C   UNL     1       1.456   8.713  19.352  0.00  0.00    +0.000 C 
ATOM     11  C   UNL     1       1.118   8.590  20.836  0.00  0.00    +0.000 C 
ATOM     12  C   UNL     1       2.348   8.884  21.720  0.00  0.00    +0.000 C 
ATOM     13  C   UNL     1       0.032   9.627  21.189  0.00  0.00    +0.000 C 
ATOM     14  C   UNL     1       0.572   7.175  21.065  0.00  0.00    +0.000 C 
ENDROOT
BRANCH   7  15
ATOM     15  C   UNL     1       4.515   5.439  18.293  0.00  0.00    +0.000 A 
ATOM     16  C   UNL     1       4.364   5.188  16.915  0.00  0.00    +0.000 A 
ATOM     17  C   UNL     1       5.437   5.307  16.023  0.00  0.00    +0.000 A 
ATOM     18  C   UNL     1       6.667   5.788  16.457  0.00  0.00    +0.000 A 
ATOM     19  C   UNL     1       6.838   6.084  17.804  0.00  0.00    +0.000 A 
ATOM     20  C   UNL     1       5.787   5.875  18.710  0.00  0.00    +0.000 A 
BRANCH  18  21
ATOM     21  O   UNL     1       7.651   5.858  15.510  0.00  0.00    +0.000 OA
ATOM     22  C   UNL     1       7.396   5.109  14.326  0.00  0.00    +0.000 C 
ENDBRANCH  18  21
ENDBRANCH   7  15
BRANCH   1  23
ATOM     23  C   UNL     1       4.255   2.979  19.904  0.00  0.00    +0.000 C 
ATOM     24  O   UNL     1       4.947   2.684  20.863  0.00  0.00    +0.000 OA
BRANCH  23  25
ATOM     25  O   UNL     1       4.335   2.440  18.664  0.00  0.00    +0.000 OA
BRANCH  25  27
ATOM     26  C   UNL     1       2.155   2.194  17.486  0.00  0.00    +0.000 C 
ATOM     27  C   UNL     1       3.280   1.536  18.277  0.00  0.00    +0.000 C 
ENDBRANCH  25  27
ENDBRANCH  23  25
ENDBRANCH   1  23
TORSDOF 5
ENDMDL
MODEL 2
REMARK VINA RESULT:      -6.2      2.090      5.911
REMARK  Name = 
REMARK  10 active torsions:
REMARK  status: ('A' for Active; 'I' for Inactive)
REMARK    1  A    between atoms: C_1  and  C_2
REMARK    2  A    between atoms: C_2  and  O_3
REMARK    3  A    between atoms: O_3  and  C_4
REMARK    4  A    between atoms: C_4  and  C_6
REMARK    5  A    between atoms: C_7  and  C_8
REMARK    6  A    between atoms: C_12  and  C_13
REMARK    7  A    between atoms: C_16  and  O_17
REMARK    8  A    between atoms: O_17  and  C_18
REMARK    9  A    between atoms: C_24  and  C_25
REMARK   10  A    between atoms: C_24  and  C_26
REMARK                            x       y       z     vdW  Elec       q    Type
REMARK                         _______ _______ _______ _____ _____    ______ ____
ROOT
ATOM      1  C   UNL     1       2.714   4.016  18.473  0.00  0.00    +0.000 A 
ATOM      2  C   UNL     1       3.372   2.826  18.138  0.00  0.00    +0.000 A 
ATOM      3  C   UNL     1       2.954   1.437  18.531  0.00  0.00    +0.000 C 
ATOM      4  N   UNL     1       4.491   2.816  17.376  0.00  0.00    +0.000 NA
ATOM      5  C   UNL     1       5.020   3.994  16.968  0.00  0.00    +0.000 A 
ATOM      6  C   UNL     1       4.519   5.236  17.375  0.00  0.00    +0.000 A 
ATOM      7  C   UNL     1       3.297   5.281  18.113  0.00  0.00    +0.000 A 
ATOM      8  C   UNL     1       5.359   6.433  17.030  0.00  0.00    +0.000 C 
ATOM      9  O   UNL     1       5.211   7.513  17.594  0.00  0.00    +0.000 OA
ATOM     10  C   UNL     1       6.518   6.282  16.061  0.00  0.00    +0.000 C 
ATOM     11  C   UNL     1       6.422   5.067  15.139  0.00  0.00    +0.000 C 
ATOM     12  C   UNL     1       5.306   5.245  14.090  0.00  0.00    +0.000 C 
ATOM     13  C   UNL     1       7.755   4.909  14.380  0.00  0.00    +0.000 C 
ATOM     14  C   UNL     1       6.187   3.837  16.025  0.00  0.00    +0.000 C 
ENDROOT
BRANCH   7  15
ATOM     15  C   UNL     1       2.615   6.564  18.487  0.00  0.00    +0.000 A 
ATOM     16  C   UNL     1       2.499   6.978  19.828  0.00  0.00    +0.000 A 
ATOM     17  C   UNL     1       1.823   8.154  20.179  0.00  0.00    +0.000 A 
ATOM     18  C   UNL     1       1.339   9.011  19.197  0.00  0.00    +0.000 A 
ATOM     19  C   UNL     1       1.474   8.652  17.862  0.00  0.00    +0.000 A 
ATOM     20  C   UNL     1       2.070   7.428  17.518  0.00  0.00    +0.000 A 
BRANCH  18  21
ATOM     21  O   UNL     1       0.688  10.128  19.645  0.00  0.00    +0.000 OA
ATOM     22  C   UNL     1      -0.212  10.711  18.709  0.00  0.00    +0.000 C 
ENDBRANCH  18  21
ENDBRANCH   7  15
BRANCH   1  23
ATOM     23  C   UNL     1       1.344   3.956  19.035  0.00  0.00    +0.000 C 
ATOM     24  O   UNL     1       0.385   3.565  18.393  0.00  0.00    +0.000 OA
BRANCH  23  25
ATOM     25  O   UNL     1       1.323   4.406  20.312  0.00  0.00    +0.000 OA
BRANCH  25  27
ATOM     26  C   UNL     1       1.502   2.450  21.843  0.00  0.00    +0.000 C 
ATOM     27  C   UNL     1       2.148   3.704  21.265  0.00  0.00    +0.000 C 
ENDBRANCH  25  27
ENDBRANCH  23  25
ENDBRANCH   1  23
TORSDOF 5
ENDMDL
MODEL 3
REMARK VINA RESULT:      -6.1      4.982      8.590
REMARK  Name = 
REMARK  10 active torsions:
REMARK  status: ('A' for Active; 'I' for Inactive)
REMARK    1  A    between atoms: C_1  and  C_2
REMARK    2  A    between atoms: C_2  and  O_3
REMARK    3  A    between atoms: O_3  and  C_4
REMARK    4  A    between atoms: C_4  and  C_6
REMARK    5  A    between atoms: C_7  and  C_8
REMARK    6  A    between atoms: C_12  and  C_13
REMARK    7  A    between atoms: C_16  and  O_17
REMARK    8  A    between atoms: O_17  and  C_18
REMARK    9  A    between atoms: C_24  and  C_25
REMARK   10  A    between atoms: C_24  and  C_26
REMARK                            x       y       z     vdW  Elec       q    Type
REMARK                         _______ _______ _______ _____ _____    ______ ____
ROOT
ATOM      1  C   UNL     1      -3.133  11.441  18.711  0.00  0.00    +0.000 A 
ATOM      2  C   UNL     1      -4.259  12.251  18.903  0.00  0.00    +0.000 A 
ATOM      3  C   UNL     1      -5.452  12.349  17.994  0.00  0.00    +0.000 C 
ATOM      4  N   UNL     1      -4.391  13.047  19.990  0.00  0.00    +0.000 NA
ATOM      5  C   UNL     1      -3.383  13.101  20.893  0.00  0.00    +0.000 A 
ATOM      6  C   UNL     1      -2.161  12.443  20.711  0.00  0.00    +0.000 A 
ATOM      7  C   UNL     1      -2.020  11.536  19.616  0.00  0.00    +0.000 A 
ATOM      8  C   UNL     1      -1.068  12.797  21.679  0.00  0.00    +0.000 C 
ATOM      9  O   UNL     1       0.112  12.552  21.444  0.00  0.00    +0.000 OA
ATOM     10  C   UNL     1      -1.400  13.604  22.922  0.00  0.00    +0.000 C 
ATOM     11  C   UNL     1      -2.868  13.551  23.341  0.00  0.00    +0.000 C 
ATOM     12  C   UNL     1      -3.244  12.163  23.897  0.00  0.00    +0.000 C 
ATOM     13  C   UNL     1      -3.105  14.583  24.463  0.00  0.00    +0.000 C 
ATOM     14  C   UNL     1      -3.708  13.925  22.113  0.00  0.00    +0.000 C 
ENDROOT
BRANCH   7  15
ATOM     15  C   UNL     1      -0.799  10.691  19.407  0.00  0.00    +0.000 A 
ATOM     16  C   UNL     1       0.094  10.928  18.343  0.00  0.00    +0.000 A 
ATOM     17  C   UNL     1       1.210  10.111  18.123  0.00  0.00    +0.000 A 
ATOM     18  C   UNL     1       1.535   9.100  19.021  0.00  0.00    +0.000 A 
ATOM     19  C   UNL     1       0.698   8.867  20.105  0.00  0.00    +0.000 A 
ATOM     20  C   UNL     1      -0.470   9.629  20.271  0.00  0.00    +0.000 A 
BRANCH  18  21
ATOM     21  O   UNL     1       2.639   8.355  18.711  0.00  0.00    +0.000 OA
ATOM     22  C   UNL     1       2.534   6.971  19.026  0.00  0.00    +0.000 C 
ENDBRANCH  18  21
ENDBRANCH   7  15
BRANCH   1  23
ATOM     23  C   UNL     1      -3.175  10.372  17.685  0.00  0.00    +0.000 C 
ATOM     24  O   UNL     1      -3.527   9.232  17.934  0.00  0.00    +0.000 OA
BRANCH  23  25
ATOM     25  O   UNL     1      -2.757  10.835  16.483  0.00  0.00    +0.000 OA
BRANCH  25  27
ATOM     26  C   UNL     1      -3.625  10.107  14.265  0.00  0.00    +0.000 C 
ATOM     27  C   UNL     1      -2.651   9.872  15.414  0.00  0.00    +0.000 C 
ENDBRANCH  25  27
ENDBRANCH  23  25
ENDBRANCH   1  23
TORSDOF 5
ENDMDL
MODEL 4
REMARK VINA RESULT:      -6.1      6.516     10.127
REMARK  Name = 
REMARK  10 active torsions:
REMARK  status: ('A' for Active; 'I' for Inactive)
REMARK    1  A    between atoms: C_1  and  C_2
REMARK    2  A    between atoms: C_2  and  O_3
REMARK    3  A    between atoms: O_3  and  C_4
REMARK    4  A    between atoms: C_4  and  C_6
REMARK    5  A    between atoms: C_7  and  C_8
REMARK    6  A    between atoms: C_12  and  C_13
REMARK    7  A    between atoms: C_16  and  O_17
REMARK    8  A    between atoms: O_17  and  C_18
REMARK    9  A    between atoms: C_24  and  C_25
REMARK   10  A    between atoms: C_24  and  C_26
REMARK                            x       y       z     vdW  Elec       q    Type
REMARK                         _______ _______ _______ _____ _____    ______ ____
ROOT
ATOM      1  C   UNL     1       0.348  11.428  19.647  0.00  0.00    +0.000 A 
ATOM      2  C   UNL     1       1.498  11.453  18.848  0.00  0.00    +0.000 A 
ATOM      3  C   UNL     1       1.956  10.369  17.914  0.00  0.00    +0.000 C 
ATOM      4  N   UNL     1       2.334  12.517  18.830  0.00  0.00    +0.000 NA
ATOM      5  C   UNL     1       2.081  13.567  19.647  0.00  0.00    +0.000 A 
ATOM      6  C   UNL     1       1.042  13.570  20.585  0.00  0.00    +0.000 A 
ATOM      7  C   UNL     1       0.098  12.498  20.574  0.00  0.00    +0.000 A 
ATOM      8  C   UNL     1       1.045  14.703  21.571  0.00  0.00    +0.000 C 
ATOM      9  O   UNL     1       0.407  14.653  22.619  0.00  0.00    +0.000 OA
ATOM     10  C   UNL     1       1.966  15.890  21.348  0.00  0.00    +0.000 C 
ATOM     11  C   UNL     1       2.428  16.072  19.904  0.00  0.00    +0.000 C 
ATOM     12  C   UNL     1       1.272  16.543  18.998  0.00  0.00    +0.000 C 
ATOM     13  C   UNL     1       3.523  17.158  19.863  0.00  0.00    +0.000 C 
ATOM     14  C   UNL     1       3.014  14.733  19.438  0.00  0.00    +0.000 C 
ENDROOT
BRANCH   7  15
ATOM     15  C   UNL     1      -1.117  12.472  21.453  0.00  0.00    +0.000 A 
ATOM     16  C   UNL     1      -1.136  11.767  22.672  0.00  0.00    +0.000 A 
ATOM     17  C   UNL     1      -2.285  11.706  23.471  0.00  0.00    +0.000 A 
ATOM     18  C   UNL     1      -3.418  12.438  23.135  0.00  0.00    +0.000 A 
ATOM     19  C   UNL     1      -3.419  13.179  21.959  0.00  0.00    +0.000 A 
ATOM     20  C   UNL     1      -2.297  13.162  21.116  0.00  0.00    +0.000 A 
BRANCH  18  21
ATOM     21  O   UNL     1      -4.489  12.304  23.975  0.00  0.00    +0.000 OA
ATOM     22  C   UNL     1      -5.563  13.204  23.724  0.00  0.00    +0.000 C 
ENDBRANCH  18  21
ENDBRANCH   7  15
BRANCH   1  23
ATOM     23  C   UNL     1      -0.684  10.393  19.403  0.00  0.00    +0.000 C 
ATOM     24  O   UNL     1      -0.705   9.329  19.996  0.00  0.00    +0.000 OA
BRANCH  23  25
ATOM     25  O   UNL     1      -1.552  10.790  18.441  0.00  0.00    +0.000 OA
BRANCH  25  27
ATOM     26  C   UNL     1      -2.508  10.514  16.159  0.00  0.00    +0.000 C 
ATOM     27  C   UNL     1      -1.732   9.902  17.319  0.00  0.00    +0.000 C 
ENDBRANCH  25  27
ENDBRANCH  23  25
ENDBRANCH   1  23
TORSDOF 5
ENDMDL
MODEL 5
REMARK VINA RESULT:      -6.0      2.002      5.690
REMARK  Name = 
REMARK  10 active torsions:
REMARK  status: ('A' for Active; 'I' for Inactive)
REMARK    1  A    between atoms: C_1  and  C_2
REMARK    2  A    between atoms: C_2  and  O_3
REMARK    3  A    between atoms: O_3  and  C_4
REMARK    4  A    between atoms: C_4  and  C_6
REMARK    5  A    between atoms: C_7  and  C_8
REMARK    6  A    between atoms: C_12  and  C_13
REMARK    7  A    between atoms: C_16  and  O_17
REMARK    8  A    between atoms: O_17  and  C_18
REMARK    9  A    between atoms: C_24  and  C_25
REMARK   10  A    between atoms: C_24  and  C_26
REMARK                            x       y       z     vdW  Elec       q    Type
REMARK                         _______ _______ _______ _____ _____    ______ ____
ROOT
ATOM      1  C   UNL     1       3.405   4.557  19.709  0.00  0.00    +0.000 A 
ATOM      2  C   UNL     1       4.269   3.459  19.621  0.00  0.00    +0.000 A 
ATOM      3  C   UNL     1       4.244   2.234  20.492  0.00  0.00    +0.000 C 
ATOM      4  N   UNL     1       5.243   3.387  18.683  0.00  0.00    +0.000 NA
ATOM      5  C   UNL     1       5.422   4.430  17.839  0.00  0.00    +0.000 A 
ATOM      6  C   UNL     1       4.707   5.629  17.946  0.00  0.00    +0.000 A 
ATOM      7  C   UNL     1       3.622   5.706  18.872  0.00  0.00    +0.000 A 
ATOM      8  C   UNL     1       5.190   6.766  17.091  0.00  0.00    +0.000 C 
ATOM      9  O   UNL     1       4.873   7.930  17.320  0.00  0.00    +0.000 OA
ATOM     10  C   UNL     1       6.207   6.501  15.995  0.00  0.00    +0.000 C 
ATOM     11  C   UNL     1       6.269   5.049  15.523  0.00  0.00    +0.000 C 
ATOM     12  C   UNL     1       5.008   4.663  14.724  0.00  0.00    +0.000 C 
ATOM     13  C   UNL     1       7.484   4.879  14.589  0.00  0.00    +0.000 C 
ATOM     14  C   UNL     1       6.451   4.171  16.768  0.00  0.00    +0.000 C 
ENDROOT
BRANCH   7  15
ATOM     15  C   UNL     1       2.718   6.900  18.974  0.00  0.00    +0.000 A 
ATOM     16  C   UNL     1       2.366   7.460  20.217  0.00  0.00    +0.000 A 
ATOM     17  C   UNL     1       1.487   8.546  20.313  0.00  0.00    +0.000 A 
ATOM     18  C   UNL     1       1.019   9.180  19.167  0.00  0.00    +0.000 A 
ATOM     19  C   UNL     1       1.381   8.678  17.924  0.00  0.00    +0.000 A 
ATOM     20  C   UNL     1       2.187   7.532  17.833  0.00  0.00    +0.000 A 
BRANCH  18  21
ATOM     21  O   UNL     1       0.160  10.224  19.370  0.00  0.00    +0.000 OA
ATOM     22  C   UNL     1      -0.822  10.397  18.353  0.00  0.00    +0.000 C 
ENDBRANCH  18  21
ENDBRANCH   7  15
BRANCH   1  23
ATOM     23  C   UNL     1       2.178   4.452  20.533  0.00  0.00    +0.000 C 
ATOM     24  O   UNL     1       2.187   4.566  21.746  0.00  0.00    +0.000 OA
BRANCH  23  25
ATOM     25  O   UNL     1       1.094   4.200  19.761  0.00  0.00    +0.000 OA
BRANCH  25  27
ATOM     26  C   UNL     1       1.036   2.058  18.493  0.00  0.00    +0.000 C 
ATOM     27  C   UNL     1       0.617   2.838  19.733  0.00  0.00    +0.000 C 
ENDBRANCH  25  27
ENDBRANCH  23  25
ENDBRANCH   1  23
TORSDOF 5
ENDMDL
MODEL 6
REMARK VINA RESULT:      -6.0      6.838     11.653
REMARK  Name = 
REMARK  10 active torsions:
REMARK  status: ('A' for Active; 'I' for Inactive)
REMARK    1  A    between atoms: C_1  and  C_2
REMARK    2  A    between atoms: C_2  and  O_3
REMARK    3  A    between atoms: O_3  and  C_4
REMARK    4  A    between atoms: C_4  and  C_6
REMARK    5  A    between atoms: C_7  and  C_8
REMARK    6  A    between atoms: C_12  and  C_13
REMARK    7  A    between atoms: C_16  and  O_17
REMARK    8  A    between atoms: O_17  and  C_18
REMARK    9  A    between atoms: C_24  and  C_25
REMARK   10  A    between atoms: C_24  and  C_26
REMARK                            x       y       z     vdW  Elec       q    Type
REMARK                         _______ _______ _______ _____ _____    ______ ____
ROOT
ATOM      1  C   UNL     1      -4.112  12.548  19.898  0.00  0.00    +0.000 A 
ATOM      2  C   UNL     1      -4.114  11.895  18.659  0.00  0.00    +0.000 A 
ATOM      3  C   UNL     1      -5.269  11.806  17.701  0.00  0.00    +0.000 C 
ATOM      4  N   UNL     1      -3.015  11.267  18.179  0.00  0.00    +0.000 NA
ATOM      5  C   UNL     1      -1.896  11.224  18.940  0.00  0.00    +0.000 A 
ATOM      6  C   UNL     1      -1.845  11.719  20.248  0.00  0.00    +0.000 A 
ATOM      7  C   UNL     1      -2.961  12.453  20.754  0.00  0.00    +0.000 A 
ATOM      8  C   UNL     1      -0.611  11.380  21.035  0.00  0.00    +0.000 C 
ATOM      9  O   UNL     1      -0.579  11.465  22.260  0.00  0.00    +0.000 OA
ATOM     10  C   UNL     1       0.591  10.784  20.326  0.00  0.00    +0.000 C 
ATOM     11  C   UNL     1       0.637  11.048  18.822  0.00  0.00    +0.000 C 
ATOM     12  C   UNL     1       0.941  12.529  18.520  0.00  0.00    +0.000 C 
ATOM     13  C   UNL     1       1.768  10.204  18.200  0.00  0.00    +0.000 C 
ATOM     14  C   UNL     1      -0.712  10.608  18.238  0.00  0.00    +0.000 C 
ENDROOT
BRANCH   7  15
ATOM     15  C   UNL     1      -2.955  13.128  22.094  0.00  0.00    +0.000 A 
ATOM     16  C   UNL     1      -2.323  14.371  22.295  0.00  0.00    +0.000 A 
ATOM     17  C   UNL     1      -2.279  14.979  23.556  0.00  0.00    +0.000 A 
ATOM     18  C   UNL     1      -2.960  14.423  24.633  0.00  0.00    +0.000 A 
ATOM     19  C   UNL     1      -3.628  13.218  24.459  0.00  0.00    +0.000 A 
ATOM     20  C   UNL     1      -3.592  12.565  23.216  0.00  0.00    +0.000 A 
BRANCH  18  21
ATOM     21  O   UNL     1      -2.847  15.090  25.822  0.00  0.00    +0.000 OA
ATOM     22  C   UNL     1      -1.752  15.997  25.897  0.00  0.00    +0.000 C 
ENDBRANCH  18  21
ENDBRANCH   7  15
BRANCH   1  23
ATOM     23  C   UNL     1      -5.222  13.471  20.234  0.00  0.00    +0.000 C 
ATOM     24  O   UNL     1      -5.176  14.667  20.005  0.00  0.00    +0.000 OA
BRANCH  23  25
ATOM     25  O   UNL     1      -6.242  12.808  20.831  0.00  0.00    +0.000 OA
BRANCH  25  27
ATOM     26  C   UNL     1      -7.414  12.450  22.998  0.00  0.00    +0.000 C 
ATOM     27  C   UNL     1      -6.838  13.434  21.986  0.00  0.00    +0.000 C 
ENDBRANCH  25  27
ENDBRANCH  23  25
ENDBRANCH   1  23
TORSDOF 5
ENDMDL
MODEL 7
REMARK VINA RESULT:      -6.0      6.875     11.057
REMARK  Name = 
REMARK  10 active torsions:
REMARK  status: ('A' for Active; 'I' for Inactive)
REMARK    1  A    between atoms: C_1  and  C_2
REMARK    2  A    between atoms: C_2  and  O_3
REMARK    3  A    between atoms: O_3  and  C_4
REMARK    4  A    between atoms: C_4  and  C_6
REMARK    5  A    between atoms: C_7  and  C_8
REMARK    6  A    between atoms: C_12  and  C_13
REMARK    7  A    between atoms: C_16  and  O_17
REMARK    8  A    between atoms: O_17  and  C_18
REMARK    9  A    between atoms: C_24  and  C_25
REMARK   10  A    between atoms: C_24  and  C_26
REMARK                            x       y       z     vdW  Elec       q    Type
REMARK                         _______ _______ _______ _____ _____    ______ ____
ROOT
ATOM      1  C   UNL     1      -1.352  11.967  20.711  0.00  0.00    +0.000 A 
ATOM      2  C   UNL     1      -1.405  11.308  19.477  0.00  0.00    +0.000 A 
ATOM      3  C   UNL     1      -0.312  10.482  18.861  0.00  0.00    +0.000 C 
ATOM      4  N   UNL     1      -2.510  11.342  18.694  0.00  0.00    +0.000 NA
ATOM      5  C   UNL     1      -3.576  12.076  19.092  0.00  0.00    +0.000 A 
ATOM      6  C   UNL     1      -3.561  12.885  20.234  0.00  0.00    +0.000 A 
ATOM      7  C   UNL     1      -2.442  12.811  21.119  0.00  0.00    +0.000 A 
ATOM      8  C   UNL     1      -4.730  13.814  20.401  0.00  0.00    +0.000 C 
ATOM      9  O   UNL     1      -4.687  14.781  21.157  0.00  0.00    +0.000 OA
ATOM     10  C   UNL     1      -5.952  13.648  19.516  0.00  0.00    +0.000 C 
ATOM     11  C   UNL     1      -6.103  12.261  18.894  0.00  0.00    +0.000 C 
ATOM     12  C   UNL     1      -6.479  11.206  19.955  0.00  0.00    +0.000 C 
ATOM     13  C   UNL     1      -7.241  12.301  17.853  0.00  0.00    +0.000 C 
ATOM     14  C   UNL     1      -4.779  11.927  18.195  0.00  0.00    +0.000 C 
ENDROOT
BRANCH   7  15
ATOM     15  C   UNL     1      -2.387  13.542  22.428  0.00  0.00    +0.000 A 
ATOM     16  C   UNL     1      -1.584  14.684  22.606  0.00  0.00    +0.000 A 
ATOM     17  C   UNL     1      -1.499  15.340  23.842  0.00  0.00    +0.000 A 
ATOM     18  C   UNL     1      -2.298  14.944  24.908  0.00  0.00    +0.000 A 
ATOM     19  C   UNL     1      -3.134  13.845  24.753  0.00  0.00    +0.000 A 
ATOM     20  C   UNL     1      -3.147  13.135  23.542  0.00  0.00    +0.000 A 
BRANCH  18  21
ATOM     21  O   UNL     1      -2.133  15.644  26.071  0.00  0.00    +0.000 OA
ATOM     22  C   UNL     1      -0.801  16.076  26.326  0.00  0.00    +0.000 C 
ENDBRANCH  18  21
ENDBRANCH   7  15
BRANCH   1  23
ATOM     23  C   UNL     1      -0.257  11.649  21.658  0.00  0.00    +0.000 C 
ATOM     24  O   UNL     1       0.817  12.225  21.641  0.00  0.00    +0.000 OA
BRANCH  23  25
ATOM     25  O   UNL     1      -0.614  10.646  22.495  0.00  0.00    +0.000 OA
BRANCH  25  27
ATOM     26  C   UNL     1      -0.315   8.271  21.809  0.00  0.00    +0.000 C 
ATOM     27  C   UNL     1       0.247   9.490  22.532  0.00  0.00    +0.000 C 
ENDBRANCH  25  27
ENDBRANCH  23  25
ENDBRANCH   1  23
TORSDOF 5
ENDMDL
MODEL 8
REMARK VINA RESULT:      -6.0      1.996      5.637
REMARK  Name = 
REMARK  10 active torsions:
REMARK  status: ('A' for Active; 'I' for Inactive)
REMARK    1  A    between atoms: C_1  and  C_2
REMARK    2  A    between atoms: C_2  and  O_3
REMARK    3  A    between atoms: O_3  and  C_4
REMARK    4  A    between atoms: C_4  and  C_6
REMARK    5  A    between atoms: C_7  and  C_8
REMARK    6  A    between atoms: C_12  and  C_13
REMARK    7  A    between atoms: C_16  and  O_17
REMARK    8  A    between atoms: O_17  and  C_18
REMARK    9  A    between atoms: C_24  and  C_25
REMARK   10  A    between atoms: C_24  and  C_26
REMARK                            x       y       z     vdW  Elec       q    Type
REMARK                         _______ _______ _______ _____ _____    ______ ____
ROOT
ATOM      1  C   UNL     1       3.417   4.543  19.709  0.00  0.00    +0.000 A 
ATOM      2  C   UNL     1       4.275   3.442  19.610  0.00  0.00    +0.000 A 
ATOM      3  C   UNL     1       4.249   2.212  20.473  0.00  0.00    +0.000 C 
ATOM      4  N   UNL     1       5.245   3.372  18.668  0.00  0.00    +0.000 NA
ATOM      5  C   UNL     1       5.425   4.420  17.829  0.00  0.00    +0.000 A 
ATOM      6  C   UNL     1       4.716   5.621  17.948  0.00  0.00    +0.000 A 
ATOM      7  C   UNL     1       3.635   5.697  18.879  0.00  0.00    +0.000 A 
ATOM      8  C   UNL     1       5.200   6.761  17.098  0.00  0.00    +0.000 C 
ATOM      9  O   UNL     1       4.890   7.925  17.336  0.00  0.00    +0.000 OA
ATOM     10  C   UNL     1       6.211   6.499  15.996  0.00  0.00    +0.000 C 
ATOM     11  C   UNL     1       6.265   5.050  15.515  0.00  0.00    +0.000 C 
ATOM     12  C   UNL     1       4.999   4.675  14.718  0.00  0.00    +0.000 C 
ATOM     13  C   UNL     1       7.476   4.881  14.574  0.00  0.00    +0.000 C 
ATOM     14  C   UNL     1       6.449   4.163  16.752  0.00  0.00    +0.000 C 
ENDROOT
BRANCH   7  15
ATOM     15  C   UNL     1       2.738   6.894  18.992  0.00  0.00    +0.000 A 
ATOM     16  C   UNL     1       2.203   7.529  17.855  0.00  0.00    +0.000 A 
ATOM     17  C   UNL     1       1.401   8.674  17.959  0.00  0.00    +0.000 A 
ATOM     18  C   UNL     1       1.015   9.154  19.205  0.00  0.00    +0.000 A 
ATOM     19  C   UNL     1       1.491   8.525  20.348  0.00  0.00    +0.000 A 
ATOM     20  C   UNL     1       2.369   7.435  20.239  0.00  0.00    +0.000 A 
BRANCH  18  21
ATOM     21  O   UNL     1       0.239  10.280  19.198  0.00  0.00    +0.000 OA
ATOM     22  C   UNL     1       0.792  11.393  19.894  0.00  0.00    +0.000 C 
ENDBRANCH  18  21
ENDBRANCH   7  15
BRANCH   1  23
ATOM     23  C   UNL     1       2.193   4.439  20.538  0.00  0.00    +0.000 C 
ATOM     24  O   UNL     1       2.211   4.515  21.754  0.00  0.00    +0.000 OA
BRANCH  23  25
ATOM     25  O   UNL     1       1.099   4.231  19.766  0.00  0.00    +0.000 OA
BRANCH  25  27
ATOM     26  C   UNL     1       1.052   2.075  18.521  0.00  0.00    +0.000 C 
ATOM     27  C   UNL     1       0.578   2.887  19.721  0.00  0.00    +0.000 C 
ENDBRANCH  25  27
ENDBRANCH  23  25
ENDBRANCH   1  23
TORSDOF 5
ENDMDL
MODEL 9
REMARK VINA RESULT:      -6.0      6.740     11.444
REMARK  Name = 
REMARK  10 active torsions:
REMARK  status: ('A' for Active; 'I' for Inactive)
REMARK    1  A    between atoms: C_1  and  C_2
REMARK    2  A    between atoms: C_2  and  O_3
REMARK    3  A    between atoms: O_3  and  C_4
REMARK    4  A    between atoms: C_4  and  C_6
REMARK    5  A    between atoms: C_7  and  C_8
REMARK    6  A    between atoms: C_12  and  C_13
REMARK    7  A    between atoms: C_16  and  O_17
REMARK    8  A    between atoms: O_17  and  C_18
REMARK    9  A    between atoms: C_24  and  C_25
REMARK   10  A    between atoms: C_24  and  C_26
REMARK                            x       y       z     vdW  Elec       q    Type
REMARK                         _______ _______ _______ _____ _____    ______ ____
ROOT
ATOM      1  C   UNL     1      -4.039  12.447  19.812  0.00  0.00    +0.000 A 
ATOM      2  C   UNL     1      -4.057  11.738  18.605  0.00  0.00    +0.000 A 
ATOM      3  C   UNL     1      -5.228  11.595  17.674  0.00  0.00    +0.000 C 
ATOM      4  N   UNL     1      -2.961  11.098  18.133  0.00  0.00    +0.000 NA
ATOM      5  C   UNL     1      -1.827  11.100  18.874  0.00  0.00    +0.000 A 
ATOM      6  C   UNL     1      -1.757  11.655  20.158  0.00  0.00    +0.000 A 
ATOM      7  C   UNL     1      -2.871  12.403  20.650  0.00  0.00    +0.000 A 
ATOM      8  C   UNL     1      -0.506  11.364  20.936  0.00  0.00    +0.000 C 
ATOM      9  O   UNL     1      -0.452  11.506  22.155  0.00  0.00    +0.000 OA
ATOM     10  C   UNL     1       0.689  10.746  20.232  0.00  0.00    +0.000 C 
ATOM     11  C   UNL     1       0.704  10.941  18.717  0.00  0.00    +0.000 C 
ATOM     12  C   UNL     1       0.989  12.409  18.342  0.00  0.00    +0.000 C 
ATOM     13  C   UNL     1       1.832  10.078  18.114  0.00  0.00    +0.000 C 
ATOM     14  C   UNL     1      -0.651  10.462  18.180  0.00  0.00    +0.000 C 
ENDROOT
BRANCH   7  15
ATOM     15  C   UNL     1      -2.847  13.139  21.957  0.00  0.00    +0.000 A 
ATOM     16  C   UNL     1      -3.386  12.581  23.132  0.00  0.00    +0.000 A 
ATOM     17  C   UNL     1      -3.403  13.287  24.342  0.00  0.00    +0.000 A 
ATOM     18  C   UNL     1      -2.783  14.527  24.445  0.00  0.00    +0.000 A 
ATOM     19  C   UNL     1      -2.203  15.088  23.314  0.00  0.00    +0.000 A 
ATOM     20  C   UNL     1      -2.270  14.417  22.082  0.00  0.00    +0.000 A 
BRANCH  18  21
ATOM     21  O   UNL     1      -2.863  15.136  25.667  0.00  0.00    +0.000 OA
ATOM     22  C   UNL     1      -1.632  15.660  26.156  0.00  0.00    +0.000 C 
ENDBRANCH  18  21
ENDBRANCH   7  15
BRANCH   1  23
ATOM     23  C   UNL     1      -5.150  13.375  20.126  0.00  0.00    +0.000 C 
ATOM     24  O   UNL     1      -5.234  14.491  19.644  0.00  0.00    +0.000 OA
BRANCH  23  25
ATOM     25  O   UNL     1      -6.011  12.820  21.012  0.00  0.00    +0.000 OA
BRANCH  25  27
ATOM     26  C   UNL     1      -7.564  10.936  20.522  0.00  0.00    +0.000 C 
ATOM     27  C   UNL     1      -7.309  12.438  20.509  0.00  0.00    +0.000 C 
ENDBRANCH  25  27
ENDBRANCH  23  25
ENDBRANCH   1  23
TORSDOF 5
ENDMDL
