MODEL 1
REMARK VINA RESULT:      -7.0      0.000      0.000
REMARK  Name = 
REMARK  7 active torsions:
REMARK  status: ('A' for Active; 'I' for Inactive)
REMARK    1  A    between atoms: C_1  and  C_2
REMARK    2  A    between atoms: C_2  and  C_3
REMARK    3  A    between atoms: C_2  and  N_4
REMARK    4  A    between atoms: N_4  and  C_5
REMARK    5  A    between atoms: C_5  and  C_6
REMARK    6  A    between atoms: C_12  and  S_13
REMARK    7  A    between atoms: S_13  and  N_16
REMARK                            x       y       z     vdW  Elec       q    Type
REMARK                         _______ _______ _______ _____ _____    ______ ____
ROOT
ATOM      1  N   UNL     1       0.688  10.335  20.089  0.00  0.00    +0.000 N 
ATOM      2  C   UNL     1       1.284   9.147  19.680  0.00  0.00    +0.000 A 
ATOM      3  C   UNL     1       1.732   8.940  18.382  0.00  0.00    +0.000 A 
ATOM      4  C   UNL     1       2.406   7.771  18.028  0.00  0.00    +0.000 A 
ATOM      5  C   UNL     1       2.608   6.793  18.987  0.00  0.00    +0.000 A 
ATOM      6  C   UNL     1       2.133   7.033  20.262  0.00  0.00    +0.000 A 
ATOM      7  N   UNL     1       1.459   8.173  20.607  0.00  0.00    +0.000 NA
ENDROOT
BRANCH   1   9
ATOM      8  C   UNL     1      -0.435  12.273  18.924  0.00  0.00    +0.000 C 
ATOM      9  C   UNL     1       0.880  11.646  19.415  0.00  0.00    +0.000 C 
ATOM     10  C   UNL     1       1.680  12.669  20.236  0.00  0.00    +0.000 C 
ENDBRANCH   1   9
BRANCH   5  11
ATOM     11  S   UNL     1       3.687   5.433  18.635  0.00  0.00    +0.000 S 
ATOM     12  O   UNL     1       3.854   5.413  17.197  0.00  0.00    +0.000 OA
ATOM     13  O   UNL     1       4.823   5.545  19.519  0.00  0.00    +0.000 OA
BRANCH  11  14
ATOM     14  N   UNL     1       2.834   4.052  19.057  0.00  0.00    +0.000 NA
ATOM     15  C   UNL     1       1.423   3.877  18.696  0.00  0.00    +0.000 C 
ATOM     16  C   UNL     1       0.749   3.539  20.014  0.00  0.00    +0.000 C 
ATOM     17  C   UNL     1       1.806   2.745  20.763  0.00  0.00    +0.000 C 
ATOM     18  C   UNL     1       3.135   3.337  20.307  0.00  0.00    +0.000 C 
ENDBRANCH  11  14
ENDBRANCH   5  11
BRANCH   1  19
ATOM     19  C   UNL     1      -0.558  10.114  20.882  0.00  0.00    +0.000 C 
BRANCH  19  20
ATOM     20  C   UNL     1      -0.428  10.396  22.389  0.00  0.00    +0.000 C 
ATOM     21  N   UNL     1      -0.366   9.321  23.221  0.00  0.00    +0.000 N 
ATOM     22  O   UNL     1      -0.334  11.538  22.842  0.00  0.00    +0.000 OA
ATOM     23  H   UNL     1      -0.749   8.451  22.853  0.00  0.00    +0.000 HD
ATOM     24  H   UNL     1      -0.466   9.513  24.202  0.00  0.00    +0.000 HD
ENDBRANCH  19  20
ENDBRANCH   1  19
TORSDOF 5
ENDMDL
MODEL 2
REMARK VINA RESULT:      -6.8      0.639      1.089
REMARK  Name = 
REMARK  7 active torsions:
REMARK  status: ('A' for Active; 'I' for Inactive)
REMARK    1  A    between atoms: C_1  and  C_2
REMARK    2  A    between atoms: C_2  and  C_3
REMARK    3  A    between atoms: C_2  and  N_4
REMARK    4  A    between atoms: N_4  and  C_5
REMARK    5  A    between atoms: C_5  and  C_6
REMARK    6  A    between atoms: C_12  and  S_13
REMARK    7  A    between atoms: S_13  and  N_16
REMARK                            x       y       z     vdW  Elec       q    Type
REMARK                         _______ _______ _______ _____ _____    ______ ____
ROOT
ATOM      1  N   UNL     1       0.692  10.434  20.071  0.00  0.00    +0.000 N 
ATOM      2  C   UNL     1       1.280   9.239  19.669  0.00  0.00    +0.000 A 
ATOM      3  C   UNL     1       1.761   9.034  18.383  0.00  0.00    +0.000 A 
ATOM      4  C   UNL     1       2.426   7.857  18.040  0.00  0.00    +0.000 A 
ATOM      5  C   UNL     1       2.584   6.868  18.996  0.00  0.00    +0.000 A 
ATOM      6  C   UNL     1       2.077   7.107  20.259  0.00  0.00    +0.000 A 
ATOM      7  N   UNL     1       1.412   8.256  20.593  0.00  0.00    +0.000 NA
ENDROOT
BRANCH   1   9
ATOM      8  C   UNL     1      -0.365  12.401  18.893  0.00  0.00    +0.000 C 
ATOM      9  C   UNL     1       0.925  11.746  19.412  0.00  0.00    +0.000 C 
ATOM     10  C   UNL     1       1.722  12.748  20.262  0.00  0.00    +0.000 C 
ENDBRANCH   1   9
BRANCH   5  11
ATOM     11  S   UNL     1       3.650   5.493  18.664  0.00  0.00    +0.000 S 
ATOM     12  O   UNL     1       3.793   5.432  17.226  0.00  0.00    +0.000 OA
ATOM     13  O   UNL     1       4.801   5.624  19.527  0.00  0.00    +0.000 OA
BRANCH  11  14
ATOM     14  N   UNL     1       2.797   4.129  19.140  0.00  0.00    +0.000 NA
ATOM     15  C   UNL     1       3.474   2.861  19.435  0.00  0.00    +0.000 C 
ATOM     16  C   UNL     1       2.740   1.848  18.574  0.00  0.00    +0.000 C 
ATOM     17  C   UNL     1       1.310   2.361  18.558  0.00  0.00    +0.000 C 
ATOM     18  C   UNL     1       1.439   3.879  18.634  0.00  0.00    +0.000 C 
ENDBRANCH  11  14
ENDBRANCH   5  11
BRANCH   1  19
ATOM     19  C   UNL     1      -0.580  10.228  20.826  0.00  0.00    +0.000 C 
BRANCH  19  20
ATOM     20  C   UNL     1      -0.476  10.442  22.346  0.00  0.00    +0.000 C 
ATOM     21  N   UNL     1      -0.456   9.331  23.131  0.00  0.00    +0.000 N 
ATOM     22  O   UNL     1      -0.365  11.561  22.849  0.00  0.00    +0.000 OA
ATOM     23  H   UNL     1      -0.852   8.488  22.718  0.00  0.00    +0.000 HD
ATOM     24  H   UNL     1      -0.573   9.484  24.118  0.00  0.00    +0.000 HD
ENDBRANCH  19  20
ENDBRANCH   1  19
TORSDOF 5
ENDMDL
MODEL 3
REMARK VINA RESULT:      -6.5      2.056      2.778
REMARK  Name = 
REMARK  7 active torsions:
REMARK  status: ('A' for Active; 'I' for Inactive)
REMARK    1  A    between atoms: C_1  and  C_2
REMARK    2  A    between atoms: C_2  and  C_3
REMARK    3  A    between atoms: C_2  and  N_4
REMARK    4  A    between atoms: N_4  and  C_5
REMARK    5  A    between atoms: C_5  and  C_6
REMARK    6  A    between atoms: C_12  and  S_13
REMARK    7  A    between atoms: S_13  and  N_16
REMARK                            x       y       z     vdW  Elec       q    Type
REMARK                         _______ _______ _______ _____ _____    ______ ____
ROOT
ATOM      1  N   UNL     1       0.761  10.319  20.041  0.00  0.00    +0.000 N 
ATOM      2  C   UNL     1       1.338   9.120  19.637  0.00  0.00    +0.000 A 
ATOM      3  C   UNL     1       1.814   8.912  18.349  0.00  0.00    +0.000 A 
ATOM      4  C   UNL     1       2.469   7.730  18.003  0.00  0.00    +0.000 A 
ATOM      5  C   UNL     1       2.622   6.740  18.958  0.00  0.00    +0.000 A 
ATOM      6  C   UNL     1       2.120   6.982  20.223  0.00  0.00    +0.000 A 
ATOM      7  N   UNL     1       1.465   8.136  20.560  0.00  0.00    +0.000 NA
ENDROOT
BRANCH   1   9
ATOM      8  C   UNL     1      -0.276  12.266  18.810  0.00  0.00    +0.000 C 
ATOM      9  C   UNL     1       1.001  11.630  19.382  0.00  0.00    +0.000 C 
ATOM     10  C   UNL     1       1.754  12.647  20.255  0.00  0.00    +0.000 C 
ENDBRANCH   1   9
BRANCH   5  11
ATOM     11  S   UNL     1       3.676   5.356  18.623  0.00  0.00    +0.000 S 
ATOM     12  O   UNL     1       3.694   4.562  19.832  0.00  0.00    +0.000 OA
ATOM     13  O   UNL     1       3.256   4.792  17.362  0.00  0.00    +0.000 OA
BRANCH  11  14
ATOM     14  N   UNL     1       5.214   5.993  18.420  0.00  0.00    +0.000 NA
ATOM     15  C   UNL     1       5.687   6.464  17.114  0.00  0.00    +0.000 C 
ATOM     16  C   UNL     1       7.004   5.732  16.919  0.00  0.00    +0.000 C 
ATOM     17  C   UNL     1       7.566   5.625  18.326  0.00  0.00    +0.000 C 
ATOM     18  C   UNL     1       6.342   5.503  19.227  0.00  0.00    +0.000 C 
ENDBRANCH  11  14
ENDBRANCH   5  11
BRANCH   1  19
ATOM     19  C   UNL     1      -0.511  10.123  20.799  0.00  0.00    +0.000 C 
BRANCH  19  20
ATOM     20  C   UNL     1      -0.400  10.332  22.319  0.00  0.00    +0.000 C 
ATOM     21  N   UNL     1      -0.400   9.219  23.102  0.00  0.00    +0.000 N 
ATOM     22  O   UNL     1      -0.267  11.447  22.825  0.00  0.00    +0.000 OA
ATOM     23  H   UNL     1      -0.813   8.384  22.688  0.00  0.00    +0.000 HD
ATOM     24  H   UNL     1      -0.512   9.371  24.090  0.00  0.00    +0.000 HD
ENDBRANCH  19  20
ENDBRANCH   1  19
TORSDOF 5
ENDMDL
MODEL 4
REMARK VINA RESULT:      -6.4      1.231      1.517
REMARK  Name = 
REMARK  7 active torsions:
REMARK  status: ('A' for Active; 'I' for Inactive)
REMARK    1  A    between atoms: C_1  and  C_2
REMARK    2  A    between atoms: C_2  and  C_3
REMARK    3  A    between atoms: C_2  and  N_4
REMARK    4  A    between atoms: N_4  and  C_5
REMARK    5  A    between atoms: C_5  and  C_6
REMARK    6  A    between atoms: C_12  and  S_13
REMARK    7  A    between atoms: S_13  and  N_16
REMARK                            x       y       z     vdW  Elec       q    Type
REMARK                         _______ _______ _______ _____ _____    ______ ____
ROOT
ATOM      1  N   UNL     1       0.548  10.261  20.248  0.00  0.00    +0.000 N 
ATOM      2  C   UNL     1       1.219   9.192  19.665  0.00  0.00    +0.000 A 
ATOM      3  C   UNL     1       1.499   9.132  18.306  0.00  0.00    +0.000 A 
ATOM      4  C   UNL     1       2.253   8.089  17.769  0.00  0.00    +0.000 A 
ATOM      5  C   UNL     1       2.707   7.084  18.607  0.00  0.00    +0.000 A 
ATOM      6  C   UNL     1       2.394   7.175  19.950  0.00  0.00    +0.000 A 
ATOM      7  N   UNL     1       1.642   8.191  20.476  0.00  0.00    +0.000 NA
ENDROOT
BRANCH   1   9
ATOM      8  C   UNL     1       1.809  12.091  19.049  0.00  0.00    +0.000 C 
ATOM      9  C   UNL     1       0.480  11.627  19.667  0.00  0.00    +0.000 C 
ATOM     10  C   UNL     1      -0.669  11.833  18.667  0.00  0.00    +0.000 C 
ENDBRANCH   1   9
BRANCH   5  11
ATOM     11  S   UNL     1       3.882   5.906  18.001  0.00  0.00    +0.000 S 
ATOM     12  O   UNL     1       4.460   6.489  16.810  0.00  0.00    +0.000 OA
ATOM     13  O   UNL     1       4.708   5.510  19.118  0.00  0.00    +0.000 OA
BRANCH  11  14
ATOM     14  N   UNL     1       2.985   4.572  17.520  0.00  0.00    +0.000 NA
ATOM     15  C   UNL     1       1.540   4.490  17.756  0.00  0.00    +0.000 C 
ATOM     16  C   UNL     1       1.361   3.157  18.461  0.00  0.00    +0.000 C 
ATOM     17  C   UNL     1       2.432   2.277  17.839  0.00  0.00    +0.000 C 
ATOM     18  C   UNL     1       3.581   3.228  17.520  0.00  0.00    +0.000 C 
ENDBRANCH  11  14
ENDBRANCH   5  11
BRANCH   1  19
ATOM     19  C   UNL     1      -0.536   9.825  21.179  0.00  0.00    +0.000 C 
BRANCH  19  20
ATOM     20  C   UNL     1      -0.410  10.355  22.618  0.00  0.00    +0.000 C 
ATOM     21  N   UNL     1      -1.131  11.464  22.938  0.00  0.00    +0.000 N 
ATOM     22  O   UNL     1       0.271   9.789  23.474  0.00  0.00    +0.000 OA
ATOM     23  H   UNL     1      -1.413  12.052  22.155  0.00  0.00    +0.000 HD
ATOM     24  H   UNL     1      -0.902  11.904  23.813  0.00  0.00    +0.000 HD
ENDBRANCH  19  20
ENDBRANCH   1  19
TORSDOF 5
ENDMDL
MODEL 5
REMARK VINA RESULT:      -6.3      4.206      5.867
REMARK  Name = 
REMARK  7 active torsions:
REMARK  status: ('A' for Active; 'I' for Inactive)
REMARK    1  A    between atoms: C_1  and  C_2
REMARK    2  A    between atoms: C_2  and  C_3
REMARK    3  A    between atoms: C_2  and  N_4
REMARK    4  A    between atoms: N_4  and  C_5
REMARK    5  A    between atoms: C_5  and  C_6
REMARK    6  A    between atoms: C_12  and  S_13
REMARK    7  A    between atoms: S_13  and  N_16
REMARK                            x       y       z     vdW  Elec       q    Type
REMARK                         _______ _______ _______ _____ _____    ______ ____
ROOT
ATOM      1  N   UNL     1       2.484   6.189  19.557  0.00  0.00    +0.000 N 
ATOM      2  C   UNL     1       3.490   5.968  18.623  0.00  0.00    +0.000 A 
ATOM      3  C   UNL     1       3.896   6.937  17.715  0.00  0.00    +0.000 A 
ATOM      4  C   UNL     1       4.970   6.713  16.852  0.00  0.00    +0.000 A 
ATOM      5  C   UNL     1       5.622   5.492  16.890  0.00  0.00    +0.000 A 
ATOM      6  C   UNL     1       5.176   4.552  17.799  0.00  0.00    +0.000 A 
ATOM      7  N   UNL     1       4.114   4.765  18.636  0.00  0.00    +0.000 NA
ENDROOT
BRANCH   1   9
ATOM      8  C   UNL     1       1.623   8.474  18.914  0.00  0.00    +0.000 C 
ATOM      9  C   UNL     1       2.069   7.531  20.043  0.00  0.00    +0.000 C 
ATOM     10  C   UNL     1       1.012   7.502  21.158  0.00  0.00    +0.000 C 
ENDBRANCH   1   9
BRANCH   5  11
ATOM     11  S   UNL     1       7.142   5.285  16.005  0.00  0.00    +0.000 S 
ATOM     12  O   UNL     1       7.865   6.530  16.149  0.00  0.00    +0.000 OA
ATOM     13  O   UNL     1       7.718   4.030  16.428  0.00  0.00    +0.000 OA
BRANCH  11  14
ATOM     14  N   UNL     1       6.714   5.140  14.390  0.00  0.00    +0.000 NA
ATOM     15  C   UNL     1       5.578   4.314  13.964  0.00  0.00    +0.000 C 
ATOM     16  C   UNL     1       6.169   3.407  12.899  0.00  0.00    +0.000 C 
ATOM     17  C   UNL     1       7.216   4.278  12.227  0.00  0.00    +0.000 C 
ATOM     18  C   UNL     1       7.737   5.187  13.335  0.00  0.00    +0.000 C 
ENDBRANCH  11  14
ENDBRANCH   5  11
BRANCH   1  19
ATOM     19  C   UNL     1       1.497   5.070  19.620  0.00  0.00    +0.000 C 
BRANCH  19  20
ATOM     20  C   UNL     1       1.645   4.140  20.837  0.00  0.00    +0.000 C 
ATOM     21  N   UNL     1       0.817   3.062  20.901  0.00  0.00    +0.000 N 
ATOM     22  O   UNL     1       2.502   4.318  21.704  0.00  0.00    +0.000 OA
ATOM     23  H   UNL     1      -0.043   3.129  20.358  0.00  0.00    +0.000 HD
ATOM     24  H   UNL     1       0.795   2.571  21.778  0.00  0.00    +0.000 HD
ENDBRANCH  19  20
ENDBRANCH   1  19
TORSDOF 5
ENDMDL
MODEL 6
REMARK VINA RESULT:      -6.2      2.726      6.867
REMARK  Name = 
REMARK  7 active torsions:
REMARK  status: ('A' for Active; 'I' for Inactive)
REMARK    1  A    between atoms: C_1  and  C_2
REMARK    2  A    between atoms: C_2  and  C_3
REMARK    3  A    between atoms: C_2  and  N_4
REMARK    4  A    between atoms: N_4  and  C_5
REMARK    5  A    between atoms: C_5  and  C_6
REMARK    6  A    between atoms: C_12  and  S_13
REMARK    7  A    between atoms: S_13  and  N_16
REMARK                            x       y       z     vdW  Elec       q    Type
REMARK                         _______ _______ _______ _____ _____    ______ ____
ROOT
ATOM      1  N   UNL     1       2.560   5.237  19.112  0.00  0.00    +0.000 N 
ATOM      2  C   UNL     1       2.276   6.593  19.239  0.00  0.00    +0.000 A 
ATOM      3  C   UNL     1       2.615   7.526  18.268  0.00  0.00    +0.000 A 
ATOM      4  C   UNL     1       2.234   8.862  18.387  0.00  0.00    +0.000 A 
ATOM      5  C   UNL     1       1.526   9.265  19.506  0.00  0.00    +0.000 A 
ATOM      6  C   UNL     1       1.223   8.307  20.455  0.00  0.00    +0.000 A 
ATOM      7  N   UNL     1       1.608   6.998  20.347  0.00  0.00    +0.000 NA
ENDROOT
BRANCH   1   9
ATOM      8  C   UNL     1       4.220   4.013  17.654  0.00  0.00    +0.000 C 
ATOM      9  C   UNL     1       2.787   4.546  17.816  0.00  0.00    +0.000 C 
ATOM     10  C   UNL     1       1.771   3.435  17.505  0.00  0.00    +0.000 C 
ENDBRANCH   1   9
BRANCH   5  11
ATOM     11  S   UNL     1       0.804  10.882  19.550  0.00  0.00    +0.000 S 
ATOM     12  O   UNL     1       0.827  11.296  20.937  0.00  0.00    +0.000 OA
ATOM     13  O   UNL     1       1.448  11.667  18.523  0.00  0.00    +0.000 OA
BRANCH  11  14
ATOM     14  N   UNL     1      -0.803  10.677  19.116  0.00  0.00    +0.000 NA
ATOM     15  C   UNL     1      -1.184  10.052  17.845  0.00  0.00    +0.000 C 
ATOM     16  C   UNL     1      -2.138  11.054  17.219  0.00  0.00    +0.000 C 
ATOM     17  C   UNL     1      -2.856  11.660  18.413  0.00  0.00    +0.000 C 
ATOM     18  C   UNL     1      -1.823  11.650  19.535  0.00  0.00    +0.000 C 
ENDBRANCH  11  14
ENDBRANCH   5  11
BRANCH   1  19
ATOM     19  C   UNL     1       3.161   4.654  20.348  0.00  0.00    +0.000 C 
BRANCH  19  20
ATOM     20  C   UNL     1       2.237   3.709  21.136  0.00  0.00    +0.000 C 
ATOM     21  N   UNL     1       0.915   3.720  20.814  0.00  0.00    +0.000 N 
ATOM     22  O   UNL     1       2.661   2.933  21.994  0.00  0.00    +0.000 OA
ATOM     23  H   UNL     1       0.578   4.561  20.348  0.00  0.00    +0.000 HD
ATOM     24  H   UNL     1       0.300   3.243  21.449  0.00  0.00    +0.000 HD
ENDBRANCH  19  20
ENDBRANCH   1  19
TORSDOF 5
ENDMDL
MODEL 7
REMARK VINA RESULT:      -6.2      0.786      1.069
REMARK  Name = 
REMARK  7 active torsions:
REMARK  status: ('A' for Active; 'I' for Inactive)
REMARK    1  A    between atoms: C_1  and  C_2
REMARK    2  A    between atoms: C_2  and  C_3
REMARK    3  A    between atoms: C_2  and  N_4
REMARK    4  A    between atoms: N_4  and  C_5
REMARK    5  A    between atoms: C_5  and  C_6
REMARK    6  A    between atoms: C_12  and  S_13
REMARK    7  A    between atoms: S_13  and  N_16
REMARK                            x       y       z     vdW  Elec       q    Type
REMARK                         _______ _______ _______ _____ _____    ______ ____
ROOT
ATOM      1  N   UNL     1       0.642  10.313  20.137  0.00  0.00    +0.000 N 
ATOM      2  C   UNL     1       1.247   9.133  19.716  0.00  0.00    +0.000 A 
ATOM      3  C   UNL     1       1.586   8.896  18.390  0.00  0.00    +0.000 A 
ATOM      4  C   UNL     1       2.273   7.741  18.017  0.00  0.00    +0.000 A 
ATOM      5  C   UNL     1       2.598   6.806  18.985  0.00  0.00    +0.000 A 
ATOM      6  C   UNL     1       2.228   7.076  20.289  0.00  0.00    +0.000 A 
ATOM      7  N   UNL     1       1.542   8.202  20.655  0.00  0.00    +0.000 NA
ENDROOT
BRANCH   1   9
ATOM      8  C   UNL     1       2.010  11.758  18.582  0.00  0.00    +0.000 C 
ATOM      9  C   UNL     1       0.721  11.604  19.405  0.00  0.00    +0.000 C 
ATOM     10  C   UNL     1      -0.505  11.911  18.531  0.00  0.00    +0.000 C 
ENDBRANCH   1   9
BRANCH   5  11
ATOM     11  S   UNL     1       3.696   5.475  18.583  0.00  0.00    +0.000 S 
ATOM     12  O   UNL     1       3.854   5.504  17.145  0.00  0.00    +0.000 OA
ATOM     13  O   UNL     1       4.835   5.577  19.464  0.00  0.00    +0.000 OA
BRANCH  11  14
ATOM     14  N   UNL     1       2.867   4.068  18.967  0.00  0.00    +0.000 NA
ATOM     15  C   UNL     1       1.451   3.891  18.628  0.00  0.00    +0.000 C 
ATOM     16  C   UNL     1       0.809   3.492  19.945  0.00  0.00    +0.000 C 
ATOM     17  C   UNL     1       1.890   2.682  20.639  0.00  0.00    +0.000 C 
ATOM     18  C   UNL     1       3.202   3.307  20.180  0.00  0.00    +0.000 C 
ENDBRANCH  11  14
ENDBRANCH   5  11
BRANCH   1  19
ATOM     19  C   UNL     1      -0.519  10.075  21.045  0.00  0.00    +0.000 C 
BRANCH  19  20
ATOM     20  C   UNL     1      -0.375  10.674  22.455  0.00  0.00    +0.000 C 
ATOM     21  N   UNL     1      -0.799  11.955  22.633  0.00  0.00    +0.000 N 
ATOM     22  O   UNL     1       0.057  10.025  23.409  0.00  0.00    +0.000 OA
ATOM     23  H   UNL     1      -0.848  12.528  21.791  0.00  0.00    +0.000 HD
ATOM     24  H   UNL     1      -0.534  12.394  23.498  0.00  0.00    +0.000 HD
ENDBRANCH  19  20
ENDBRANCH   1  19
TORSDOF 5
ENDMDL
MODEL 8
REMARK VINA RESULT:      -6.2      4.811      7.293
REMARK  Name = 
REMARK  7 active torsions:
REMARK  status: ('A' for Active; 'I' for Inactive)
REMARK    1  A    between atoms: C_1  and  C_2
REMARK    2  A    between atoms: C_2  and  C_3
REMARK    3  A    between atoms: C_2  and  N_4
REMARK    4  A    between atoms: N_4  and  C_5
REMARK    5  A    between atoms: C_5  and  C_6
REMARK    6  A    between atoms: C_12  and  S_13
REMARK    7  A    between atoms: S_13  and  N_16
REMARK                            x       y       z     vdW  Elec       q    Type
REMARK                         _______ _______ _______ _____ _____    ______ ____
ROOT
ATOM      1  N   UNL     1       3.290   3.855  20.216  0.00  0.00    +0.000 N 
ATOM      2  C   UNL     1       3.939   4.305  19.071  0.00  0.00    +0.000 A 
ATOM      3  C   UNL     1       3.315   5.103  18.120  0.00  0.00    +0.000 A 
ATOM      4  C   UNL     1       4.021   5.611  17.030  0.00  0.00    +0.000 A 
ATOM      5  C   UNL     1       5.361   5.292  16.884  0.00  0.00    +0.000 A 
ATOM      6  C   UNL     1       5.937   4.483  17.846  0.00  0.00    +0.000 A 
ATOM      7  N   UNL     1       5.242   3.972  18.908  0.00  0.00    +0.000 NA
ENDROOT
BRANCH   1   9
ATOM      8  C   UNL     1       2.092   6.037  20.639  0.00  0.00    +0.000 C 
ATOM      9  C   UNL     1       2.101   4.510  20.820  0.00  0.00    +0.000 C 
ATOM     10  C   UNL     1       0.756   3.917  20.372  0.00  0.00    +0.000 C 
ENDBRANCH   1   9
BRANCH   5  11
ATOM     11  S   UNL     1       6.335   6.136  15.670  0.00  0.00    +0.000 S 
ATOM     12  O   UNL     1       5.425   7.008  14.959  0.00  0.00    +0.000 OA
ATOM     13  O   UNL     1       7.501   6.658  16.342  0.00  0.00    +0.000 OA
BRANCH  11  14
ATOM     14  N   UNL     1       6.842   4.957  14.591  0.00  0.00    +0.000 NA
ATOM     15  C   UNL     1       7.861   5.231  13.572  0.00  0.00    +0.000 C 
ATOM     16  C   UNL     1       7.210   4.782  12.276  0.00  0.00    +0.000 C 
ATOM     17  C   UNL     1       6.356   3.597  12.695  0.00  0.00    +0.000 C 
ATOM     18  C   UNL     1       5.910   3.922  14.117  0.00  0.00    +0.000 C 
ENDBRANCH  11  14
ENDBRANCH   5  11
BRANCH   1  19
ATOM     19  C   UNL     1       3.512   2.400  20.471  0.00  0.00    +0.000 C 
BRANCH  19  20
ATOM     20  C   UNL     1       3.308   1.487  19.249  0.00  0.00    +0.000 C 
ATOM     21  N   UNL     1       4.375   0.749  18.840  0.00  0.00    +0.000 N 
ATOM     22  O   UNL     1       2.221   1.377  18.680  0.00  0.00    +0.000 OA
ATOM     23  H   UNL     1       5.290   1.094  19.125  0.00  0.00    +0.000 HD
ATOM     24  H   UNL     1       4.287   0.303  17.943  0.00  0.00    +0.000 HD
ENDBRANCH  19  20
ENDBRANCH   1  19
TORSDOF 5
ENDMDL
MODEL 9
REMARK VINA RESULT:      -6.0      2.569      7.330
REMARK  Name = 
REMARK  7 active torsions:
REMARK  status: ('A' for Active; 'I' for Inactive)
REMARK    1  A    between atoms: C_1  and  C_2
REMARK    2  A    between atoms: C_2  and  C_3
REMARK    3  A    between atoms: C_2  and  N_4
REMARK    4  A    between atoms: N_4  and  C_5
REMARK    5  A    between atoms: C_5  and  C_6
REMARK    6  A    between atoms: C_12  and  S_13
REMARK    7  A    between atoms: S_13  and  N_16
REMARK                            x       y       z     vdW  Elec       q    Type
REMARK                         _______ _______ _______ _____ _____    ______ ____
ROOT
ATOM      1  N   UNL     1       3.156   5.055  18.749  0.00  0.00    +0.000 N 
ATOM      2  C   UNL     1       2.645   6.283  19.155  0.00  0.00    +0.000 A 
ATOM      3  C   UNL     1       2.504   7.360  18.290  0.00  0.00    +0.000 A 
ATOM      4  C   UNL     1       1.903   8.548  18.708  0.00  0.00    +0.000 A 
ATOM      5  C   UNL     1       1.463   8.657  20.016  0.00  0.00    +0.000 A 
ATOM      6  C   UNL     1       1.637   7.567  20.847  0.00  0.00    +0.000 A 
ATOM      7  N   UNL     1       2.238   6.406  20.442  0.00  0.00    +0.000 NA
ENDROOT
BRANCH   1   9
ATOM      8  C   UNL     1       4.564   4.467  16.736  0.00  0.00    +0.000 C 
ATOM      9  C   UNL     1       3.155   4.568  17.345  0.00  0.00    +0.000 C 
ATOM     10  C   UNL     1       2.391   3.252  17.132  0.00  0.00    +0.000 C 
ENDBRANCH   1   9
BRANCH   5  11
ATOM     11  S   UNL     1       0.464  10.041  20.490  0.00  0.00    +0.000 S 
ATOM     12  O   UNL     1      -0.884   9.535  20.629  0.00  0.00    +0.000 OA
ATOM     13  O   UNL     1       1.134  10.699  21.587  0.00  0.00    +0.000 OA
BRANCH  11  14
ATOM     14  N   UNL     1       0.474  11.083  19.176  0.00  0.00    +0.000 NA
ATOM     15  C   UNL     1       1.515  12.104  19.010  0.00  0.00    +0.000 C 
ATOM     16  C   UNL     1       0.734  13.390  18.808  0.00  0.00    +0.000 C 
ATOM     17  C   UNL     1      -0.506  12.942  18.053  0.00  0.00    +0.000 C 
ATOM     18  C   UNL     1      -0.786  11.533  18.565  0.00  0.00    +0.000 C 
ENDBRANCH  11  14
ENDBRANCH   5  11
BRANCH   1  19
ATOM     19  C   UNL     1       4.181   4.515  19.692  0.00  0.00    +0.000 C 
BRANCH  19  20
ATOM     20  C   UNL     1       3.960   3.056  20.127  0.00  0.00    +0.000 C 
ATOM     21  N   UNL     1       4.914   2.151  19.776  0.00  0.00    +0.000 N 
ATOM     22  O   UNL     1       2.992   2.707  20.805  0.00  0.00    +0.000 OA
ATOM     23  H   UNL     1       5.502   2.409  18.985  0.00  0.00    +0.000 HD
ATOM     24  H   UNL     1       4.673   1.183  19.901  0.00  0.00    +0.000 HD
ENDBRANCH  19  20
ENDBRANCH   1  19
TORSDOF 5
ENDMDL
