MODEL 1
REMARK VINA RESULT:      -8.6      0.000      0.000
REMARK  Name = 
REMARK  7 active torsions:
REMARK  status: ('A' for Active; 'I' for Inactive)
REMARK    1  A    between atoms: C_1  and  C_2
REMARK    2  A    between atoms: C_2  and  C_3
REMARK    3  A    between atoms: C_5  and  C_6
REMARK    4  A    between atoms: C_6  and  N_7
REMARK    5  A    between atoms: N_7  and  C_8
REMARK    6  A    between atoms: C_8  and  C_9
REMARK    7  A    between atoms: C_19  and  C_20
REMARK                            x       y       z     vdW  Elec       q    Type
REMARK                         _______ _______ _______ _____ _____    ______ ____
ROOT
ATOM      1  N   UNL     1       3.382   5.650  19.941  0.00  0.00    +0.000 NA
ATOM      2  H   UNL     1       4.307   5.980  20.229  0.00  0.00    +0.000 HD
ENDROOT
BRANCH   1   3
ATOM      3  C   UNL     1       3.518   4.462  19.072  0.00  0.00    +0.000 C 
ATOM      4  C   UNL     1       2.287   4.256  18.163  0.00  0.00    +0.000 C 
ATOM      5  C   UNL     1       1.199   3.659  19.048  0.00  0.00    +0.000 C 
ATOM      6  C   UNL     1       1.922   2.952  20.189  0.00  0.00    +0.000 C 
ATOM      7  C   UNL     1       3.412   3.206  19.973  0.00  0.00    +0.000 C 
BRANCH   3  10
ATOM      8  C   UNL     1       6.180   4.483  16.718  0.00  0.00    +0.000 A 
ATOM      9  N   UNL     1       4.886   4.436  16.937  0.00  0.00    +0.000 NA
ATOM     10  C   UNL     1       4.824   4.469  18.307  0.00  0.00    +0.000 A 
ATOM     11  N   UNL     1       6.019   4.491  18.921  0.00  0.00    +0.000 NA
ATOM     12  O   UNL     1       6.922   4.505  17.861  0.00  0.00    +0.000 OA
BRANCH   8  14
ATOM     13  C   UNL     1       6.073   4.045  14.283  0.00  0.00    +0.000 C 
ATOM     14  C   UNL     1       6.924   4.532  15.443  0.00  0.00    +0.000 C 
ENDBRANCH   8  14
ENDBRANCH   3  10
ENDBRANCH   1   3
BRANCH   1  15
ATOM     15  C   UNL     1       2.649   6.791  19.356  0.00  0.00    +0.000 C 
BRANCH  15  16
ATOM     16  C   UNL     1       1.691   7.403  20.389  0.00  0.00    +0.000 C 
ATOM     17  O   UNL     1       1.389   6.753  21.396  0.00  0.00    +0.000 OA
ATOM     18  N   UNL     1       1.213   8.684  20.125  0.00  0.00    +0.000 N 
ATOM     19  C   UNL     1       0.437   9.422  21.063  0.00  0.00    +0.000 A 
ATOM     20  C   UNL     1       0.048   9.082  22.350  0.00  0.00    +0.000 A 
ATOM     21  C   UNL     1      -0.694   9.999  23.101  0.00  0.00    +0.000 A 
ATOM     22  C   UNL     1      -1.061  11.236  22.556  0.00  0.00    +0.000 A 
ATOM     23  C   UNL     1      -0.675  11.577  21.260  0.00  0.00    +0.000 A 
ATOM     24  C   UNL     1       0.089  10.668  20.539  0.00  0.00    +0.000 A 
ATOM     25  C   UNL     1       0.592  10.817  19.144  0.00  0.00    +0.000 C 
ATOM     26  C   UNL     1       1.618   9.660  19.059  0.00  0.00    +0.000 C 
ATOM     27  C   UNL     1       1.699   9.165  17.619  0.00  0.00    +0.000 C 
ENDBRANCH  15  16
ENDBRANCH   1  15
TORSDOF 5
ENDMDL
MODEL 2
REMARK VINA RESULT:      -8.5      0.824      1.051
REMARK  Name = 
REMARK  7 active torsions:
REMARK  status: ('A' for Active; 'I' for Inactive)
REMARK    1  A    between atoms: C_1  and  C_2
REMARK    2  A    between atoms: C_2  and  C_3
REMARK    3  A    between atoms: C_5  and  C_6
REMARK    4  A    between atoms: C_6  and  N_7
REMARK    5  A    between atoms: N_7  and  C_8
REMARK    6  A    between atoms: C_8  and  C_9
REMARK    7  A    between atoms: C_19  and  C_20
REMARK                            x       y       z     vdW  Elec       q    Type
REMARK                         _______ _______ _______ _____ _____    ______ ____
ROOT
ATOM      1  N   UNL     1       3.170   5.685  20.093  0.00  0.00    +0.000 NA
ATOM      2  H   UNL     1       4.163   5.909  20.192  0.00  0.00    +0.000 HD
ENDROOT
BRANCH   1   3
ATOM      3  C   UNL     1       3.008   4.409  19.364  0.00  0.00    +0.000 C 
ATOM      4  C   UNL     1       1.539   4.133  18.981  0.00  0.00    +0.000 C 
ATOM      5  C   UNL     1       0.849   3.656  20.254  0.00  0.00    +0.000 C 
ATOM      6  C   UNL     1       1.945   3.060  21.131  0.00  0.00    +0.000 C 
ATOM      7  C   UNL     1       3.255   3.259  20.372  0.00  0.00    +0.000 C 
BRANCH   3  10
ATOM      8  C   UNL     1       5.699   4.429  17.043  0.00  0.00    +0.000 A 
ATOM      9  N   UNL     1       5.264   4.721  18.246  0.00  0.00    +0.000 NA
ATOM     10  C   UNL     1       3.956   4.309  18.188  0.00  0.00    +0.000 A 
ATOM     11  N   UNL     1       3.575   3.822  16.995  0.00  0.00    +0.000 NA
ATOM     12  O   UNL     1       4.739   3.898  16.234  0.00  0.00    +0.000 OA
BRANCH   8  14
ATOM     13  C   UNL     1       6.994   4.741  14.955  0.00  0.00    +0.000 C 
ATOM     14  C   UNL     1       7.050   4.573  16.464  0.00  0.00    +0.000 C 
ENDBRANCH   8  14
ENDBRANCH   3  10
ENDBRANCH   1   3
BRANCH   1  15
ATOM     15  C   UNL     1       2.495   6.855  19.493  0.00  0.00    +0.000 C 
BRANCH  15  16
ATOM     16  C   UNL     1       1.548   7.511  20.510  0.00  0.00    +0.000 C 
ATOM     17  O   UNL     1       1.260   6.906  21.549  0.00  0.00    +0.000 OA
ATOM     18  N   UNL     1       1.063   8.778  20.195  0.00  0.00    +0.000 N 
ATOM     19  C   UNL     1       0.297   9.555  21.108  0.00  0.00    +0.000 A 
ATOM     20  C   UNL     1      -0.075   9.273  22.414  0.00  0.00    +0.000 A 
ATOM     21  C   UNL     1      -0.809  10.221  23.133  0.00  0.00    +0.000 A 
ATOM     22  C   UNL     1      -1.186  11.431  22.538  0.00  0.00    +0.000 A 
ATOM     23  C   UNL     1      -0.818  11.714  21.223  0.00  0.00    +0.000 A 
ATOM     24  C   UNL     1      -0.060  10.776  20.534  0.00  0.00    +0.000 A 
ATOM     25  C   UNL     1       0.425  10.863  19.127  0.00  0.00    +0.000 C 
ATOM     26  C   UNL     1       1.452   9.705  19.081  0.00  0.00    +0.000 C 
ATOM     27  C   UNL     1       1.517   9.146  17.664  0.00  0.00    +0.000 C 
ENDBRANCH  15  16
ENDBRANCH   1  15
TORSDOF 5
ENDMDL
MODEL 3
REMARK VINA RESULT:      -8.4      1.078      1.287
REMARK  Name = 
REMARK  7 active torsions:
REMARK  status: ('A' for Active; 'I' for Inactive)
REMARK    1  A    between atoms: C_1  and  C_2
REMARK    2  A    between atoms: C_2  and  C_3
REMARK    3  A    between atoms: C_5  and  C_6
REMARK    4  A    between atoms: C_6  and  N_7
REMARK    5  A    between atoms: N_7  and  C_8
REMARK    6  A    between atoms: C_8  and  C_9
REMARK    7  A    between atoms: C_19  and  C_20
REMARK                            x       y       z     vdW  Elec       q    Type
REMARK                         _______ _______ _______ _____ _____    ______ ____
ROOT
ATOM      1  N   UNL     1       2.032   5.645  18.723  0.00  0.00    +0.000 NA
ATOM      2  H   UNL     1       1.111   5.500  19.142  0.00  0.00    +0.000 HD
ENDROOT
BRANCH   1   3
ATOM      3  C   UNL     1       2.836   4.408  18.825  0.00  0.00    +0.000 C 
ATOM      4  C   UNL     1       2.265   3.264  17.961  0.00  0.00    +0.000 C 
ATOM      5  C   UNL     1       1.063   2.714  18.721  0.00  0.00    +0.000 C 
ATOM      6  C   UNL     1       1.308   3.039  20.190  0.00  0.00    +0.000 C 
ATOM      7  C   UNL     1       2.617   3.822  20.242  0.00  0.00    +0.000 C 
BRANCH   3  10
ATOM      8  C   UNL     1       6.055   5.422  17.714  0.00  0.00    +0.000 A 
ATOM      9  N   UNL     1       4.754   5.459  17.542  0.00  0.00    +0.000 NA
ATOM     10  C   UNL     1       4.304   4.667  18.568  0.00  0.00    +0.000 A 
ATOM     11  N   UNL     1       5.275   4.123  19.322  0.00  0.00    +0.000 NA
ATOM     12  O   UNL     1       6.441   4.630  18.754  0.00  0.00    +0.000 OA
BRANCH   8  14
ATOM     13  C   UNL     1       7.724   7.250  17.780  0.00  0.00    +0.000 C 
ATOM     14  C   UNL     1       7.128   6.111  16.971  0.00  0.00    +0.000 C 
ENDBRANCH   8  14
ENDBRANCH   3  10
ENDBRANCH   1   3
BRANCH   1  15
ATOM     15  C   UNL     1       2.630   6.848  19.338  0.00  0.00    +0.000 C 
BRANCH  15  16
ATOM     16  C   UNL     1       1.679   7.447  20.385  0.00  0.00    +0.000 C 
ATOM     17  O   UNL     1       1.383   6.784  21.386  0.00  0.00    +0.000 OA
ATOM     18  N   UNL     1       1.200   8.732  20.141  0.00  0.00    +0.000 N 
ATOM     19  C   UNL     1       0.431   9.458  21.094  0.00  0.00    +0.000 A 
ATOM     20  C   UNL     1       0.051   9.101  22.379  0.00  0.00    +0.000 A 
ATOM     21  C   UNL     1      -0.685  10.009  23.147  0.00  0.00    +0.000 A 
ATOM     22  C   UNL     1      -1.055  11.253  22.621  0.00  0.00    +0.000 A 
ATOM     23  C   UNL     1      -0.679  11.610  21.327  0.00  0.00    +0.000 A 
ATOM     24  C   UNL     1       0.080  10.711  20.589  0.00  0.00    +0.000 A 
ATOM     25  C   UNL     1       0.574  10.878  19.192  0.00  0.00    +0.000 C 
ATOM     26  C   UNL     1       1.598   9.721  19.086  0.00  0.00    +0.000 C 
ATOM     27  C   UNL     1       1.669   9.245  17.639  0.00  0.00    +0.000 C 
ENDBRANCH  15  16
ENDBRANCH   1  15
TORSDOF 5
ENDMDL
MODEL 4
REMARK VINA RESULT:      -8.0      2.243      4.114
REMARK  Name = 
REMARK  7 active torsions:
REMARK  status: ('A' for Active; 'I' for Inactive)
REMARK    1  A    between atoms: C_1  and  C_2
REMARK    2  A    between atoms: C_2  and  C_3
REMARK    3  A    between atoms: C_5  and  C_6
REMARK    4  A    between atoms: C_6  and  N_7
REMARK    5  A    between atoms: N_7  and  C_8
REMARK    6  A    between atoms: C_8  and  C_9
REMARK    7  A    between atoms: C_19  and  C_20
REMARK                            x       y       z     vdW  Elec       q    Type
REMARK                         _______ _______ _______ _____ _____    ______ ____
ROOT
ATOM      1  N   UNL     1       5.144   6.571  16.413  0.00  0.00    +0.000 NA
ATOM      2  H   UNL     1       4.819   6.737  15.457  0.00  0.00    +0.000 HD
ENDROOT
BRANCH   1   3
ATOM      3  C   UNL     1       6.310   5.662  16.400  0.00  0.00    +0.000 C 
ATOM      4  C   UNL     1       6.237   4.597  17.515  0.00  0.00    +0.000 C 
ATOM      5  C   UNL     1       6.625   5.306  18.808  0.00  0.00    +0.000 C 
ATOM      6  C   UNL     1       7.495   6.489  18.397  0.00  0.00    +0.000 C 
ATOM      7  C   UNL     1       7.542   6.474  16.871  0.00  0.00    +0.000 C 
BRANCH   3  10
ATOM      8  C   UNL     1       6.288   3.913  13.308  0.00  0.00    +0.000 A 
ATOM      9  N   UNL     1       5.736   4.104  14.483  0.00  0.00    +0.000 NA
ATOM     10  C   UNL     1       6.547   5.068  15.029  0.00  0.00    +0.000 A 
ATOM     11  N   UNL     1       7.582   5.433  14.253  0.00  0.00    +0.000 NA
ATOM     12  O   UNL     1       7.405   4.665  13.105  0.00  0.00    +0.000 OA
BRANCH   8  14
ATOM     13  C   UNL     1       4.482   3.392  11.695  0.00  0.00    +0.000 C 
ATOM     14  C   UNL     1       5.869   3.033  12.197  0.00  0.00    +0.000 C 
ENDBRANCH   8  14
ENDBRANCH   3  10
ENDBRANCH   1   3
BRANCH   1  15
ATOM     15  C   UNL     1       3.990   6.120  17.217  0.00  0.00    +0.000 C 
BRANCH  15  16
ATOM     16  C   UNL     1       3.244   7.324  17.814  0.00  0.00    +0.000 C 
ATOM     17  O   UNL     1       3.286   8.412  17.230  0.00  0.00    +0.000 OA
ATOM     18  N   UNL     1       2.549   7.111  19.001  0.00  0.00    +0.000 N 
ATOM     19  C   UNL     1       1.702   8.096  19.582  0.00  0.00    +0.000 A 
ATOM     20  C   UNL     1       1.376   9.363  19.122  0.00  0.00    +0.000 A 
ATOM     21  C   UNL     1       0.483  10.146  19.861  0.00  0.00    +0.000 A 
ATOM     22  C   UNL     1      -0.058   9.670  21.061  0.00  0.00    +0.000 A 
ATOM     23  C   UNL     1       0.274   8.399  21.528  0.00  0.00    +0.000 A 
ATOM     24  C   UNL     1       1.136   7.621  20.766  0.00  0.00    +0.000 A 
ATOM     25  C   UNL     1       1.634   6.251  21.080  0.00  0.00    +0.000 C 
ATOM     26  C   UNL     1       2.256   5.830  19.726  0.00  0.00    +0.000 C 
ATOM     27  C   UNL     1       3.409   4.864  19.981  0.00  0.00    +0.000 C 
ENDBRANCH  15  16
ENDBRANCH   1  15
TORSDOF 5
ENDMDL
MODEL 5
REMARK VINA RESULT:      -7.9      1.560      1.902
REMARK  Name = 
REMARK  7 active torsions:
REMARK  status: ('A' for Active; 'I' for Inactive)
REMARK    1  A    between atoms: C_1  and  C_2
REMARK    2  A    between atoms: C_2  and  C_3
REMARK    3  A    between atoms: C_5  and  C_6
REMARK    4  A    between atoms: C_6  and  N_7
REMARK    5  A    between atoms: N_7  and  C_8
REMARK    6  A    between atoms: C_8  and  C_9
REMARK    7  A    between atoms: C_19  and  C_20
REMARK                            x       y       z     vdW  Elec       q    Type
REMARK                         _______ _______ _______ _____ _____    ______ ____
ROOT
ATOM      1  N   UNL     1       2.625   5.153  19.042  0.00  0.00    +0.000 NA
ATOM      2  H   UNL     1       2.628   4.802  20.003  0.00  0.00    +0.000 HD
ENDROOT
BRANCH   1   3
ATOM      3  C   UNL     1       3.654   4.453  18.244  0.00  0.00    +0.000 C 
ATOM      4  C   UNL     1       3.045   3.638  17.085  0.00  0.00    +0.000 C 
ATOM      5  C   UNL     1       2.467   2.373  17.710  0.00  0.00    +0.000 C 
ATOM      6  C   UNL     1       3.252   2.141  18.996  0.00  0.00    +0.000 C 
ATOM      7  C   UNL     1       4.227   3.309  19.118  0.00  0.00    +0.000 C 
BRANCH   3  10
ATOM      8  C   UNL     1       6.537   6.478  17.783  0.00  0.00    +0.000 A 
ATOM      9  N   UNL     1       5.864   5.659  18.556  0.00  0.00    +0.000 NA
ATOM     10  C   UNL     1       4.754   5.391  17.795  0.00  0.00    +0.000 A 
ATOM     11  N   UNL     1       4.710   6.044  16.621  0.00  0.00    +0.000 NA
ATOM     12  O   UNL     1       5.901   6.764  16.612  0.00  0.00    +0.000 OA
BRANCH   8  14
ATOM     13  C   UNL     1       7.826   8.591  17.689  0.00  0.00    +0.000 C 
ATOM     14  C   UNL     1       7.860   7.103  17.990  0.00  0.00    +0.000 C 
ENDBRANCH   8  14
ENDBRANCH   3  10
ENDBRANCH   1   3
BRANCH   1  15
ATOM     15  C   UNL     1       2.746   6.625  19.092  0.00  0.00    +0.000 C 
BRANCH  15  16
ATOM     16  C   UNL     1       1.856   7.201  20.205  0.00  0.00    +0.000 C 
ATOM     17  O   UNL     1       1.619   6.518  21.207  0.00  0.00    +0.000 OA
ATOM     18  N   UNL     1       1.362   8.489  20.013  0.00  0.00    +0.000 N 
ATOM     19  C   UNL     1       0.649   9.195  21.023  0.00  0.00    +0.000 A 
ATOM     20  C   UNL     1       0.343   8.812  22.320  0.00  0.00    +0.000 A 
ATOM     21  C   UNL     1      -0.348   9.703  23.147  0.00  0.00    +0.000 A 
ATOM     22  C   UNL     1      -0.749  10.956  22.668  0.00  0.00    +0.000 A 
ATOM     23  C   UNL     1      -0.448  11.340  21.361  0.00  0.00    +0.000 A 
ATOM     24  C   UNL     1       0.268  10.457  20.564  0.00  0.00    +0.000 A 
ATOM     25  C   UNL     1       0.680  10.652  19.144  0.00  0.00    +0.000 C 
ATOM     26  C   UNL     1       1.698   9.500  18.956  0.00  0.00    +0.000 C 
ATOM     27  C   UNL     1       1.687   9.052  17.499  0.00  0.00    +0.000 C 
ENDBRANCH  15  16
ENDBRANCH   1  15
TORSDOF 5
ENDMDL
MODEL 6
REMARK VINA RESULT:      -7.9      1.786      2.666
REMARK  Name = 
REMARK  7 active torsions:
REMARK  status: ('A' for Active; 'I' for Inactive)
REMARK    1  A    between atoms: C_1  and  C_2
REMARK    2  A    between atoms: C_2  and  C_3
REMARK    3  A    between atoms: C_5  and  C_6
REMARK    4  A    between atoms: C_6  and  N_7
REMARK    5  A    between atoms: N_7  and  C_8
REMARK    6  A    between atoms: C_8  and  C_9
REMARK    7  A    between atoms: C_19  and  C_20
REMARK                            x       y       z     vdW  Elec       q    Type
REMARK                         _______ _______ _______ _____ _____    ______ ____
ROOT
ATOM      1  N   UNL     1       2.222   6.348  18.571  0.00  0.00    +0.000 NA
ATOM      2  H   UNL     1       1.231   6.144  18.423  0.00  0.00    +0.000 HD
ENDROOT
BRANCH   1   3
ATOM      3  C   UNL     1       2.931   5.125  19.003  0.00  0.00    +0.000 C 
ATOM      4  C   UNL     1       2.294   3.842  18.429  0.00  0.00    +0.000 C 
ATOM      5  C   UNL     1       1.042   3.579  19.258  0.00  0.00    +0.000 C 
ATOM      6  C   UNL     1       1.283   4.242  20.610  0.00  0.00    +0.000 C 
ATOM      7  C   UNL     1       2.645   4.926  20.513  0.00  0.00    +0.000 C 
BRANCH   3  10
ATOM      8  C   UNL     1       6.245   5.797  17.912  0.00  0.00    +0.000 A 
ATOM      9  N   UNL     1       4.958   6.007  17.761  0.00  0.00    +0.000 NA
ATOM     10  C   UNL     1       4.419   5.214  18.743  0.00  0.00    +0.000 A 
ATOM     11  N   UNL     1       5.319   4.508  19.449  0.00  0.00    +0.000 NA
ATOM     12  O   UNL     1       6.535   4.900  18.897  0.00  0.00    +0.000 OA
BRANCH   8  14
ATOM     13  C   UNL     1       7.692   7.795  17.696  0.00  0.00    +0.000 C 
ATOM     14  C   UNL     1       7.392   6.392  17.197  0.00  0.00    +0.000 C 
ENDBRANCH   8  14
ENDBRANCH   3  10
ENDBRANCH   1   3
BRANCH   1  15
ATOM     15  C   UNL     1       2.320   7.502  19.488  0.00  0.00    +0.000 C 
BRANCH  15  16
ATOM     16  C   UNL     1       1.502   8.687  18.952  0.00  0.00    +0.000 C 
ATOM     17  O   UNL     1       1.537   8.952  17.745  0.00  0.00    +0.000 OA
ATOM     18  N   UNL     1       0.751   9.406  19.879  0.00  0.00    +0.000 N 
ATOM     19  C   UNL     1      -0.160  10.431  19.498  0.00  0.00    +0.000 A 
ATOM     20  C   UNL     1      -0.505  10.882  18.233  0.00  0.00    +0.000 A 
ATOM     21  C   UNL     1      -1.464  11.893  18.109  0.00  0.00    +0.000 A 
ATOM     22  C   UNL     1      -2.052  12.461  19.245  0.00  0.00    +0.000 A 
ATOM     23  C   UNL     1      -1.702  12.013  20.518  0.00  0.00    +0.000 A 
ATOM     24  C   UNL     1      -0.773  10.985  20.623  0.00  0.00    +0.000 A 
ATOM     25  C   UNL     1      -0.245  10.368  21.873  0.00  0.00    +0.000 C 
ATOM     26  C   UNL     1       0.464   9.108  21.321  0.00  0.00    +0.000 C 
ATOM     27  C   UNL     1       1.634   8.749  22.231  0.00  0.00    +0.000 C 
ENDBRANCH  15  16
ENDBRANCH   1  15
TORSDOF 5
ENDMDL
MODEL 7
REMARK VINA RESULT:      -7.8      1.384      1.592
REMARK  Name = 
REMARK  7 active torsions:
REMARK  status: ('A' for Active; 'I' for Inactive)
REMARK    1  A    between atoms: C_1  and  C_2
REMARK    2  A    between atoms: C_2  and  C_3
REMARK    3  A    between atoms: C_5  and  C_6
REMARK    4  A    between atoms: C_6  and  N_7
REMARK    5  A    between atoms: N_7  and  C_8
REMARK    6  A    between atoms: C_8  and  C_9
REMARK    7  A    between atoms: C_19  and  C_20
REMARK                            x       y       z     vdW  Elec       q    Type
REMARK                         _______ _______ _______ _____ _____    ______ ____
ROOT
ATOM      1  N   UNL     1       2.382   6.011  20.599  0.00  0.00    +0.000 NA
ATOM      2  H   UNL     1       2.995   6.141  21.407  0.00  0.00    +0.000 HD
ENDROOT
BRANCH   1   3
ATOM      3  C   UNL     1       2.928   4.962  19.712  0.00  0.00    +0.000 C 
ATOM      4  C   UNL     1       1.932   4.550  18.608  0.00  0.00    +0.000 C 
ATOM      5  C   UNL     1       0.902   3.646  19.277  0.00  0.00    +0.000 C 
ATOM      6  C   UNL     1       1.599   3.037  20.489  0.00  0.00    +0.000 C 
ATOM      7  C   UNL     1       2.998   3.648  20.529  0.00  0.00    +0.000 C 
BRANCH   3  10
ATOM      8  C   UNL     1       5.772   6.121  17.926  0.00  0.00    +0.000 A 
ATOM      9  N   UNL     1       4.467   5.984  17.975  0.00  0.00    +0.000 NA
ATOM     10  C   UNL     1       4.291   5.335  19.172  0.00  0.00    +0.000 A 
ATOM     11  N   UNL     1       5.430   5.040  19.821  0.00  0.00    +0.000 NA
ATOM     12  O   UNL     1       6.416   5.568  18.992  0.00  0.00    +0.000 OA
BRANCH   8  14
ATOM     13  C   UNL     1       7.681   7.655  17.560  0.00  0.00    +0.000 C 
ATOM     14  C   UNL     1       6.616   6.788  16.913  0.00  0.00    +0.000 C 
ENDBRANCH   8  14
ENDBRANCH   3  10
ENDBRANCH   1   3
BRANCH   1  15
ATOM     15  C   UNL     1       2.166   7.331  19.972  0.00  0.00    +0.000 C 
BRANCH  15  16
ATOM     16  C   UNL     1       1.229   8.192  20.834  0.00  0.00    +0.000 C 
ATOM     17  O   UNL     1       0.918   7.803  21.965  0.00  0.00    +0.000 OA
ATOM     18  N   UNL     1       0.779   9.386  20.277  0.00  0.00    +0.000 N 
ATOM     19  C   UNL     1       0.027  10.342  21.016  0.00  0.00    +0.000 A 
ATOM     20  C   UNL     1      -0.361  10.322  22.348  0.00  0.00    +0.000 A 
ATOM     21  C   UNL     1      -1.076  11.408  22.864  0.00  0.00    +0.000 A 
ATOM     22  C   UNL     1      -1.417  12.491  22.045  0.00  0.00    +0.000 A 
ATOM     23  C   UNL     1      -1.033  12.509  20.705  0.00  0.00    +0.000 A 
ATOM     24  C   UNL     1      -0.295  11.439  20.216  0.00  0.00    +0.000 A 
ATOM     25  C   UNL     1       0.202  11.245  18.824  0.00  0.00    +0.000 C 
ATOM     26  C   UNL     1       1.200  10.075  19.012  0.00  0.00    +0.000 C 
ATOM     27  C   UNL     1       1.260   9.255  17.728  0.00  0.00    +0.000 C 
ENDBRANCH  15  16
ENDBRANCH   1  15
TORSDOF 5
ENDMDL
MODEL 8
REMARK VINA RESULT:      -7.8      2.835      4.346
REMARK  Name = 
REMARK  7 active torsions:
REMARK  status: ('A' for Active; 'I' for Inactive)
REMARK    1  A    between atoms: C_1  and  C_2
REMARK    2  A    between atoms: C_2  and  C_3
REMARK    3  A    between atoms: C_5  and  C_6
REMARK    4  A    between atoms: C_6  and  N_7
REMARK    5  A    between atoms: N_7  and  C_8
REMARK    6  A    between atoms: C_8  and  C_9
REMARK    7  A    between atoms: C_19  and  C_20
REMARK                            x       y       z     vdW  Elec       q    Type
REMARK                         _______ _______ _______ _____ _____    ______ ____
ROOT
ATOM      1  N   UNL     1       4.891   6.508  16.352  0.00  0.00    +0.000 NA
ATOM      2  H   UNL     1       4.591   6.281  15.401  0.00  0.00    +0.000 HD
ENDROOT
BRANCH   1   3
ATOM      3  C   UNL     1       6.208   5.896  16.627  0.00  0.00    +0.000 C 
ATOM      4  C   UNL     1       6.857   5.304  15.358  0.00  0.00    +0.000 C 
ATOM      5  C   UNL     1       6.142   3.984  15.090  0.00  0.00    +0.000 C 
ATOM      6  C   UNL     1       5.601   3.515  16.437  0.00  0.00    +0.000 C 
ATOM      7  C   UNL     1       5.963   4.604  17.444  0.00  0.00    +0.000 C 
BRANCH   3  10
ATOM      8  C   UNL     1       8.142   8.582  17.920  0.00  0.00    +0.000 A 
ATOM      9  N   UNL     1       7.314   8.148  16.999  0.00  0.00    +0.000 NA
ATOM     10  C   UNL     1       7.124   6.842  17.374  0.00  0.00    +0.000 A 
ATOM     11  N   UNL     1       7.831   6.461  18.451  0.00  0.00    +0.000 NA
ATOM     12  O   UNL     1       8.505   7.622  18.817  0.00  0.00    +0.000 OA
BRANCH   8  14
ATOM     13  C   UNL     1       9.295  10.082  19.518  0.00  0.00    +0.000 C 
ATOM     14  C   UNL     1       8.706   9.931  18.127  0.00  0.00    +0.000 C 
ENDBRANCH   8  14
ENDBRANCH   3  10
ENDBRANCH   1   3
BRANCH   1  15
ATOM     15  C   UNL     1       3.804   6.130  17.278  0.00  0.00    +0.000 C 
BRANCH  15  16
ATOM     16  C   UNL     1       3.106   7.382  17.832  0.00  0.00    +0.000 C 
ATOM     17  O   UNL     1       3.168   8.441  17.197  0.00  0.00    +0.000 OA
ATOM     18  N   UNL     1       2.430   7.245  19.041  0.00  0.00    +0.000 N 
ATOM     19  C   UNL     1       1.624   8.281  19.592  0.00  0.00    +0.000 A 
ATOM     20  C   UNL     1       1.326   9.535  19.079  0.00  0.00    +0.000 A 
ATOM     21  C   UNL     1       0.472  10.378  19.798  0.00  0.00    +0.000 A 
ATOM     22  C   UNL     1      -0.058   9.974  21.029  0.00  0.00    +0.000 A 
ATOM     23  C   UNL     1       0.246   8.716  21.548  0.00  0.00    +0.000 A 
ATOM     24  C   UNL     1       1.069   7.878  20.807  0.00  0.00    +0.000 A 
ATOM     25  C   UNL     1       1.533   6.510  21.175  0.00  0.00    +0.000 C 
ATOM     26  C   UNL     1       2.115   6.008  19.831  0.00  0.00    +0.000 C 
ATOM     27  C   UNL     1       3.243   5.021  20.108  0.00  0.00    +0.000 C 
ENDBRANCH  15  16
ENDBRANCH   1  15
TORSDOF 5
ENDMDL
MODEL 9
REMARK VINA RESULT:      -7.6      0.899      1.182
REMARK  Name = 
REMARK  7 active torsions:
REMARK  status: ('A' for Active; 'I' for Inactive)
REMARK    1  A    between atoms: C_1  and  C_2
REMARK    2  A    between atoms: C_2  and  C_3
REMARK    3  A    between atoms: C_5  and  C_6
REMARK    4  A    between atoms: C_6  and  N_7
REMARK    5  A    between atoms: N_7  and  C_8
REMARK    6  A    between atoms: C_8  and  C_9
REMARK    7  A    between atoms: C_19  and  C_20
REMARK                            x       y       z     vdW  Elec       q    Type
REMARK                         _______ _______ _______ _____ _____    ______ ____
ROOT
ATOM      1  N   UNL     1       2.913   4.699  19.941  0.00  0.00    +0.000 NA
ATOM      2  H   UNL     1       3.481   4.417  20.743  0.00  0.00    +0.000 HD
ENDROOT
BRANCH   1   3
ATOM      3  C   UNL     1       3.124   3.764  18.815  0.00  0.00    +0.000 C 
ATOM      4  C   UNL     1       1.899   3.684  17.881  0.00  0.00    +0.000 C 
ATOM      5  C   UNL     1       0.872   2.813  18.597  0.00  0.00    +0.000 C 
ATOM      6  C   UNL     1       1.665   1.915  19.541  0.00  0.00    +0.000 C 
ATOM      7  C   UNL     1       3.127   2.327  19.394  0.00  0.00    +0.000 C 
BRANCH   3  10
ATOM      8  C   UNL     1       5.739   4.549  16.542  0.00  0.00    +0.000 A 
ATOM      9  N   UNL     1       4.456   4.356  16.740  0.00  0.00    +0.000 NA
ATOM     10  C   UNL     1       4.414   4.052  18.078  0.00  0.00    +0.000 A 
ATOM     11  N   UNL     1       5.614   4.012  18.681  0.00  0.00    +0.000 NA
ATOM     12  O   UNL     1       6.496   4.348  17.657  0.00  0.00    +0.000 OA
BRANCH   8  14
ATOM     13  C   UNL     1       6.239   3.970  14.186  0.00  0.00    +0.000 C 
ATOM     14  C   UNL     1       6.457   4.959  15.318  0.00  0.00    +0.000 C 
ENDBRANCH   8  14
ENDBRANCH   3  10
ENDBRANCH   1   3
BRANCH   1  15
ATOM     15  C   UNL     1       3.201   6.120  19.654  0.00  0.00    +0.000 C 
BRANCH  15  16
ATOM     16  C   UNL     1       2.085   7.019  20.210  0.00  0.00    +0.000 C 
ATOM     17  O   UNL     1       1.499   6.687  21.246  0.00  0.00    +0.000 OA
ATOM     18  N   UNL     1       1.798   8.181  19.499  0.00  0.00    +0.000 N 
ATOM     19  C   UNL     1       0.893   9.170  19.978  0.00  0.00    +0.000 A 
ATOM     20  C   UNL     1       0.185   9.216  21.169  0.00  0.00    +0.000 A 
ATOM     21  C   UNL     1      -0.628  10.323  21.435  0.00  0.00    +0.000 A 
ATOM     22  C   UNL     1      -0.745  11.361  20.502  0.00  0.00    +0.000 A 
ATOM     23  C   UNL     1      -0.039  11.313  19.302  0.00  0.00    +0.000 A 
ATOM     24  C   UNL     1       0.790  10.223  19.068  0.00  0.00    +0.000 A 
ATOM     25  C   UNL     1       1.617   9.960  17.855  0.00  0.00    +0.000 C 
ATOM     26  C   UNL     1       2.526   8.806  18.346  0.00  0.00    +0.000 C 
ATOM     27  C   UNL     1       2.899   7.921  17.161  0.00  0.00    +0.000 C 
ENDBRANCH  15  16
ENDBRANCH   1  15
TORSDOF 5
ENDMDL
