MODEL 1
REMARK VINA RESULT:      -6.5      0.000      0.000
REMARK  Name = 
REMARK  11 active torsions:
REMARK  status: ('A' for Active; 'I' for Inactive)
REMARK    1  A    between atoms: C_1  and  N_2
REMARK    2  A    between atoms: N_2  and  C_3
REMARK    3  A    between atoms: N_2  and  C_4
REMARK    4  A    between atoms: C_4  and  C_5
REMARK    5  A    between atoms: C_5  and  N_6
REMARK    6  A    between atoms: C_11  and  N_12
REMARK    7  A    between atoms: N_12  and  C_13
REMARK    8  A    between atoms: C_13  and  C_14
REMARK    9  A    between atoms: C_14  and  C_15
REMARK   10  A    between atoms: C_15  and  C_16
REMARK   11  A    between atoms: C_16  and  N_17
REMARK                            x       y       z     vdW  Elec       q    Type
REMARK                         _______ _______ _______ _____ _____    ______ ____
ROOT
ATOM      1  N   UNL     1       2.504   7.828  18.124  0.00  0.00    +0.000 N 
ATOM      2  N   UNL     1       1.805   7.011  18.965  0.00  0.00    +0.000 NA
ATOM      3  C   UNL     1       2.608   5.952  19.113  0.00  0.00    +0.000 A 
ATOM      4  C   UNL     1       3.787   6.088  18.372  0.00  0.00    +0.000 A 
ATOM      5  C   UNL     1       4.870   5.212  18.251  0.00  0.00    +0.000 A 
ATOM      6  C   UNL     1       5.953   5.624  17.449  0.00  0.00    +0.000 A 
ATOM      7  C   UNL     1       5.858   6.881  16.802  0.00  0.00    +0.000 A 
ATOM      8  C   UNL     1       4.777   7.762  16.957  0.00  0.00    +0.000 A 
ATOM      9  C   UNL     1       3.726   7.319  17.755  0.00  0.00    +0.000 A 
ATOM     10  C   UNL     1       4.697   3.950  19.058  0.00  0.00    +0.000 C 
ATOM     11  O   UNL     1       5.533   3.056  19.066  0.00  0.00    +0.000 OA
ATOM     12  C   UNL     1       3.426   3.779  19.883  0.00  0.00    +0.000 A 
ATOM     13  C   UNL     1       3.255   2.615  20.640  0.00  0.00    +0.000 A 
ATOM     14  C   UNL     1       2.094   2.481  21.374  0.00  0.00    +0.000 A 
ATOM     15  N   UNL     1       1.105   3.409  21.415  0.00  0.00    +0.000 NA
ATOM     16  C   UNL     1       1.289   4.532  20.676  0.00  0.00    +0.000 A 
ATOM     17  C   UNL     1       2.413   4.760  19.903  0.00  0.00    +0.000 A 
ENDROOT
BRANCH   6  18
ATOM     18  N   UNL     1       7.080   4.813  17.234  0.00  0.00    +0.000 N 
ATOM     19  H   UNL     1       7.190   4.150  18.004  0.00  0.00    +0.000 HD
BRANCH  18  20
ATOM     20  C   UNL     1       7.245   4.205  15.915  0.00  0.00    +0.000 C 
BRANCH  20  21
ATOM     21  C   UNL     1       5.959   3.556  15.424  0.00  0.00    +0.000 C 
BRANCH  21  22
ATOM     22  C   UNL     1       5.537   4.073  14.047  0.00  0.00    +0.000 C 
BRANCH  22  23
ATOM     23  C   UNL     1       6.720   4.253  13.091  0.00  0.00    +0.000 C 
BRANCH  23  24
ATOM     24  N   UNL     1       6.426   3.569  11.832  0.00  0.00    +0.000 NA
ATOM     25  C   UNL     1       6.002   2.186  11.979  0.00  0.00    +0.000 C 
ATOM     26  C   UNL     1       5.006   3.268  11.655  0.00  0.00    +0.000 C 
ENDBRANCH  23  24
ENDBRANCH  22  23
ENDBRANCH  21  22
ENDBRANCH  20  21
ENDBRANCH  18  20
ENDBRANCH   6  18
BRANCH   1  27
ATOM     27  C   UNL     1       1.923   9.106  17.732  0.00  0.00    +0.000 C 
BRANCH  27  28
ATOM     28  C   UNL     1       0.747   9.527  18.631  0.00  0.00    +0.000 C 
BRANCH  28  30
ATOM     29  C   UNL     1       0.313  11.723  19.518  0.00  0.00    +0.000 C 
ATOM     30  N   UNL     1       1.071  10.479  19.716  0.00  0.00    +0.000 NA
ATOM     31  C   UNL     1       0.775   9.944  21.047  0.00  0.00    +0.000 C 
ENDBRANCH  28  30
ENDBRANCH  27  28
ENDBRANCH   1  27
TORSDOF 9
ENDMDL
MODEL 2
REMARK VINA RESULT:      -6.5      2.500      7.302
REMARK  Name = 
REMARK  11 active torsions:
REMARK  status: ('A' for Active; 'I' for Inactive)
REMARK    1  A    between atoms: C_1  and  N_2
REMARK    2  A    between atoms: N_2  and  C_3
REMARK    3  A    between atoms: N_2  and  C_4
REMARK    4  A    between atoms: C_4  and  C_5
REMARK    5  A    between atoms: C_5  and  N_6
REMARK    6  A    between atoms: C_11  and  N_12
REMARK    7  A    between atoms: N_12  and  C_13
REMARK    8  A    between atoms: C_13  and  C_14
REMARK    9  A    between atoms: C_14  and  C_15
REMARK   10  A    between atoms: C_15  and  C_16
REMARK   11  A    between atoms: C_16  and  N_17
REMARK                            x       y       z     vdW  Elec       q    Type
REMARK                         _______ _______ _______ _____ _____    ______ ____
ROOT
ATOM      1  N   UNL     1       5.007   5.520  17.157  0.00  0.00    +0.000 N 
ATOM      2  N   UNL     1       4.881   4.401  17.929  0.00  0.00    +0.000 NA
ATOM      3  C   UNL     1       3.902   4.717  18.784  0.00  0.00    +0.000 A 
ATOM      4  C   UNL     1       3.426   6.015  18.568  0.00  0.00    +0.000 A 
ATOM      5  C   UNL     1       2.425   6.720  19.242  0.00  0.00    +0.000 A 
ATOM      6  C   UNL     1       2.126   8.021  18.788  0.00  0.00    +0.000 A 
ATOM      7  C   UNL     1       2.878   8.530  17.700  0.00  0.00    +0.000 A 
ATOM      8  C   UNL     1       3.859   7.799  17.014  0.00  0.00    +0.000 A 
ATOM      9  C   UNL     1       4.127   6.520  17.495  0.00  0.00    +0.000 A 
ATOM     10  C   UNL     1       1.793   5.923  20.356  0.00  0.00    +0.000 C 
ATOM     11  O   UNL     1       0.909   6.378  21.069  0.00  0.00    +0.000 OA
ATOM     12  C   UNL     1       2.287   4.502  20.607  0.00  0.00    +0.000 A 
ATOM     13  C   UNL     1       1.705   3.749  21.633  0.00  0.00    +0.000 A 
ATOM     14  C   UNL     1       2.172   2.468  21.845  0.00  0.00    +0.000 A 
ATOM     15  N   UNL     1       3.158   1.885  21.117  0.00  0.00    +0.000 NA
ATOM     16  C   UNL     1       3.708   2.629  20.125  0.00  0.00    +0.000 A 
ATOM     17  C   UNL     1       3.316   3.923  19.836  0.00  0.00    +0.000 A 
ENDROOT
BRANCH   6  18
ATOM     18  N   UNL     1       1.159   8.830  19.408  0.00  0.00    +0.000 N 
ATOM     19  H   UNL     1       1.507   9.171  20.306  0.00  0.00    +0.000 HD
BRANCH  18  20
ATOM     20  C   UNL     1       0.513   9.865  18.602  0.00  0.00    +0.000 C 
BRANCH  20  21
ATOM     21  C   UNL     1       0.383  11.176  19.362  0.00  0.00    +0.000 C 
BRANCH  21  22
ATOM     22  C   UNL     1       0.859  11.057  20.812  0.00  0.00    +0.000 C 
BRANCH  22  23
ATOM     23  C   UNL     1      -0.227  11.425  21.827  0.00  0.00    +0.000 C 
BRANCH  23  24
ATOM     24  N   UNL     1      -0.128  10.529  22.980  0.00  0.00    +0.000 NA
ATOM     25  C   UNL     1      -0.589   9.173  22.734  0.00  0.00    +0.000 C 
ATOM     26  C   UNL     1       0.881   9.484  22.814  0.00  0.00    +0.000 C 
ENDBRANCH  23  24
ENDBRANCH  22  23
ENDBRANCH  21  22
ENDBRANCH  20  21
ENDBRANCH  18  20
ENDBRANCH   6  18
BRANCH   1  27
ATOM     27  C   UNL     1       6.002   5.539  16.093  0.00  0.00    +0.000 C 
BRANCH  27  28
ATOM     28  C   UNL     1       7.352   6.121  16.549  0.00  0.00    +0.000 C 
BRANCH  28  30
ATOM     29  C   UNL     1       7.982   6.170  18.872  0.00  0.00    +0.000 C 
ATOM     30  N   UNL     1       7.323   6.920  17.794  0.00  0.00    +0.000 NA
ATOM     31  C   UNL     1       7.977   8.223  17.647  0.00  0.00    +0.000 C 
ENDBRANCH  28  30
ENDBRANCH  27  28
ENDBRANCH   1  27
TORSDOF 9
ENDMDL
MODEL 3
REMARK VINA RESULT:      -6.4      2.525      6.990
REMARK  Name = 
REMARK  11 active torsions:
REMARK  status: ('A' for Active; 'I' for Inactive)
REMARK    1  A    between atoms: C_1  and  N_2
REMARK    2  A    between atoms: N_2  and  C_3
REMARK    3  A    between atoms: N_2  and  C_4
REMARK    4  A    between atoms: C_4  and  C_5
REMARK    5  A    between atoms: C_5  and  N_6
REMARK    6  A    between atoms: C_11  and  N_12
REMARK    7  A    between atoms: N_12  and  C_13
REMARK    8  A    between atoms: C_13  and  C_14
REMARK    9  A    between atoms: C_14  and  C_15
REMARK   10  A    between atoms: C_15  and  C_16
REMARK   11  A    between atoms: C_16  and  N_17
REMARK                            x       y       z     vdW  Elec       q    Type
REMARK                         _______ _______ _______ _____ _____    ______ ____
ROOT
ATOM      1  N   UNL     1       4.528   5.915  16.850  0.00  0.00    +0.000 N 
ATOM      2  N   UNL     1       4.486   4.739  17.542  0.00  0.00    +0.000 NA
ATOM      3  C   UNL     1       3.642   4.997  18.547  0.00  0.00    +0.000 A 
ATOM      4  C   UNL     1       3.169   6.312  18.503  0.00  0.00    +0.000 A 
ATOM      5  C   UNL     1       2.288   6.972  19.363  0.00  0.00    +0.000 A 
ATOM      6  C   UNL     1       1.958   8.309  19.058  0.00  0.00    +0.000 A 
ATOM      7  C   UNL     1       2.563   8.896  17.919  0.00  0.00    +0.000 A 
ATOM      8  C   UNL     1       3.423   8.211  17.048  0.00  0.00    +0.000 A 
ATOM      9  C   UNL     1       3.726   6.895  17.385  0.00  0.00    +0.000 A 
ATOM     10  C   UNL     1       1.799   6.095  20.489  0.00  0.00    +0.000 C 
ATOM     11  O   UNL     1       1.032   6.501  21.352  0.00  0.00    +0.000 OA
ATOM     12  C   UNL     1       2.290   4.653  20.556  0.00  0.00    +0.000 A 
ATOM     13  C   UNL     1       1.840   3.827  21.592  0.00  0.00    +0.000 A 
ATOM     14  C   UNL     1       2.303   2.527  21.635  0.00  0.00    +0.000 A 
ATOM     15  N   UNL     1       3.165   1.993  20.733  0.00  0.00    +0.000 NA
ATOM     16  C   UNL     1       3.589   2.809  19.735  0.00  0.00    +0.000 A 
ATOM     17  C   UNL     1       3.189   4.127  19.605  0.00  0.00    +0.000 A 
ENDROOT
BRANCH   6  18
ATOM     18  N   UNL     1       1.104   9.076  19.869  0.00  0.00    +0.000 N 
ATOM     19  H   UNL     1       1.486   9.149  20.814  0.00  0.00    +0.000 HD
BRANCH  18  20
ATOM     20  C   UNL     1       0.615  10.346  19.338  0.00  0.00    +0.000 C 
BRANCH  20  21
ATOM     21  C   UNL     1      -0.440  10.142  18.260  0.00  0.00    +0.000 C 
BRANCH  21  22
ATOM     22  C   UNL     1      -1.809  10.684  18.677  0.00  0.00    +0.000 C 
BRANCH  22  23
ATOM     23  C   UNL     1      -2.925  10.291  17.705  0.00  0.00    +0.000 C 
BRANCH  23  24
ATOM     24  N   UNL     1      -2.640  10.868  16.391  0.00  0.00    +0.000 NA
ATOM     25  C   UNL     1      -2.787   9.943  15.279  0.00  0.00    +0.000 C 
ATOM     26  C   UNL     1      -3.827  10.998  15.547  0.00  0.00    +0.000 C 
ENDBRANCH  23  24
ENDBRANCH  22  23
ENDBRANCH  21  22
ENDBRANCH  20  21
ENDBRANCH  18  20
ENDBRANCH   6  18
BRANCH   1  27
ATOM     27  C   UNL     1       5.367   6.009  15.661  0.00  0.00    +0.000 C 
BRANCH  27  28
ATOM     28  C   UNL     1       6.594   5.082  15.723  0.00  0.00    +0.000 C 
BRANCH  28  30
ATOM     29  C   UNL     1       7.415   6.864  17.117  0.00  0.00    +0.000 C 
ATOM     30  N   UNL     1       7.667   5.492  16.655  0.00  0.00    +0.000 NA
ATOM     31  C   UNL     1       7.777   4.607  17.818  0.00  0.00    +0.000 C 
ENDBRANCH  28  30
ENDBRANCH  27  28
ENDBRANCH   1  27
TORSDOF 9
ENDMDL
MODEL 4
REMARK VINA RESULT:      -6.3      1.635      7.476
REMARK  Name = 
REMARK  11 active torsions:
REMARK  status: ('A' for Active; 'I' for Inactive)
REMARK    1  A    between atoms: C_1  and  N_2
REMARK    2  A    between atoms: N_2  and  C_3
REMARK    3  A    between atoms: N_2  and  C_4
REMARK    4  A    between atoms: C_4  and  C_5
REMARK    5  A    between atoms: C_5  and  N_6
REMARK    6  A    between atoms: C_11  and  N_12
REMARK    7  A    between atoms: N_12  and  C_13
REMARK    8  A    between atoms: C_13  and  C_14
REMARK    9  A    between atoms: C_14  and  C_15
REMARK   10  A    between atoms: C_15  and  C_16
REMARK   11  A    between atoms: C_16  and  N_17
REMARK                            x       y       z     vdW  Elec       q    Type
REMARK                         _______ _______ _______ _____ _____    ______ ____
ROOT
ATOM      1  N   UNL     1       5.571   4.955  17.113  0.00  0.00    +0.000 N 
ATOM      2  N   UNL     1       5.350   3.921  17.977  0.00  0.00    +0.000 NA
ATOM      3  C   UNL     1       4.364   4.371  18.759  0.00  0.00    +0.000 A 
ATOM      4  C   UNL     1       3.975   5.668  18.410  0.00  0.00    +0.000 A 
ATOM      5  C   UNL     1       2.996   6.489  18.977  0.00  0.00    +0.000 A 
ATOM      6  C   UNL     1       2.793   7.757  18.396  0.00  0.00    +0.000 A 
ATOM      7  C   UNL     1       3.612   8.120  17.297  0.00  0.00    +0.000 A 
ATOM      8  C   UNL     1       4.570   7.274  16.720  0.00  0.00    +0.000 A 
ATOM      9  C   UNL     1       4.743   6.032  17.324  0.00  0.00    +0.000 A 
ATOM     10  C   UNL     1       2.279   5.835  20.132  0.00  0.00    +0.000 C 
ATOM     11  O   UNL     1       1.400   6.405  20.765  0.00  0.00    +0.000 OA
ATOM     12  C   UNL     1       2.675   4.418  20.529  0.00  0.00    +0.000 A 
ATOM     13  C   UNL     1       2.014   3.797  21.594  0.00  0.00    +0.000 A 
ATOM     14  C   UNL     1       2.395   2.516  21.939  0.00  0.00    +0.000 A 
ATOM     15  N   UNL     1       3.367   1.813  21.306  0.00  0.00    +0.000 NA
ATOM     16  C   UNL     1       3.996   2.429  20.274  0.00  0.00    +0.000 A 
ATOM     17  C   UNL     1       3.693   3.712  19.854  0.00  0.00    +0.000 A 
ENDROOT
BRANCH   6  18
ATOM     18  N   UNL     1       1.856   8.675  18.901  0.00  0.00    +0.000 N 
ATOM     19  H   UNL     1       2.328   9.392  19.455  0.00  0.00    +0.000 HD
BRANCH  18  20
ATOM     20  C   UNL     1       0.859   9.213  17.979  0.00  0.00    +0.000 C 
BRANCH  20  21
ATOM     21  C   UNL     1      -0.132  10.126  18.685  0.00  0.00    +0.000 C 
BRANCH  21  22
ATOM     22  C   UNL     1       0.553  11.323  19.350  0.00  0.00    +0.000 C 
BRANCH  22  23
ATOM     23  C   UNL     1       0.863  11.084  20.830  0.00  0.00    +0.000 C 
BRANCH  23  24
ATOM     24  N   UNL     1      -0.059  10.077  21.355  0.00  0.00    +0.000 NA
ATOM     25  C   UNL     1       0.378   9.440  22.587  0.00  0.00    +0.000 C 
ATOM     26  C   UNL     1      -0.709  10.481  22.601  0.00  0.00    +0.000 C 
ENDBRANCH  23  24
ENDBRANCH  22  23
ENDBRANCH  21  22
ENDBRANCH  20  21
ENDBRANCH  18  20
ENDBRANCH   6  18
BRANCH   1  27
ATOM     27  C   UNL     1       6.602   4.819  16.092  0.00  0.00    +0.000 C 
BRANCH  27  28
ATOM     28  C   UNL     1       6.196   3.857  14.960  0.00  0.00    +0.000 C 
BRANCH  28  30
ATOM     29  C   UNL     1       7.588   5.121  13.456  0.00  0.00    +0.000 C 
ATOM     30  N   UNL     1       6.320   4.389  13.585  0.00  0.00    +0.000 NA
ATOM     31  C   UNL     1       6.266   3.340  12.565  0.00  0.00    +0.000 C 
ENDBRANCH  28  30
ENDBRANCH  27  28
ENDBRANCH   1  27
TORSDOF 9
ENDMDL
MODEL 5
REMARK VINA RESULT:      -6.3      2.244      4.943
REMARK  Name = 
REMARK  11 active torsions:
REMARK  status: ('A' for Active; 'I' for Inactive)
REMARK    1  A    between atoms: C_1  and  N_2
REMARK    2  A    between atoms: N_2  and  C_3
REMARK    3  A    between atoms: N_2  and  C_4
REMARK    4  A    between atoms: C_4  and  C_5
REMARK    5  A    between atoms: C_5  and  N_6
REMARK    6  A    between atoms: C_11  and  N_12
REMARK    7  A    between atoms: N_12  and  C_13
REMARK    8  A    between atoms: C_13  and  C_14
REMARK    9  A    between atoms: C_14  and  C_15
REMARK   10  A    between atoms: C_15  and  C_16
REMARK   11  A    between atoms: C_16  and  N_17
REMARK                            x       y       z     vdW  Elec       q    Type
REMARK                         _______ _______ _______ _____ _____    ______ ____
ROOT
ATOM      1  N   UNL     1       2.390   8.317  17.971  0.00  0.00    +0.000 N 
ATOM      2  N   UNL     1       3.497   8.087  17.206  0.00  0.00    +0.000 NA
ATOM      3  C   UNL     1       4.037   6.995  17.757  0.00  0.00    +0.000 A 
ATOM      4  C   UNL     1       3.297   6.548  18.857  0.00  0.00    +0.000 A 
ATOM      5  C   UNL     1       3.524   5.458  19.701  0.00  0.00    +0.000 A 
ATOM      6  C   UNL     1       2.586   5.222  20.727  0.00  0.00    +0.000 A 
ATOM      7  C   UNL     1       1.496   6.120  20.845  0.00  0.00    +0.000 A 
ATOM      8  C   UNL     1       1.265   7.192  19.971  0.00  0.00    +0.000 A 
ATOM      9  C   UNL     1       2.215   7.394  18.974  0.00  0.00    +0.000 A 
ATOM     10  C   UNL     1       4.760   4.677  19.331  0.00  0.00    +0.000 C 
ATOM     11  O   UNL     1       5.131   3.698  19.965  0.00  0.00    +0.000 OA
ATOM     12  C   UNL     1       5.581   5.135  18.131  0.00  0.00    +0.000 A 
ATOM     13  C   UNL     1       6.727   4.416  17.774  0.00  0.00    +0.000 A 
ATOM     14  C   UNL     1       7.457   4.853  16.687  0.00  0.00    +0.000 A 
ATOM     15  N   UNL     1       7.133   5.935  15.935  0.00  0.00    +0.000 NA
ATOM     16  C   UNL     1       6.018   6.619  16.295  0.00  0.00    +0.000 A 
ATOM     17  C   UNL     1       5.221   6.266  17.370  0.00  0.00    +0.000 A 
ENDROOT
BRANCH   6  18
ATOM     18  N   UNL     1       2.730   4.173  21.650  0.00  0.00    +0.000 N 
ATOM     19  H   UNL     1       2.671   4.532  22.605  0.00  0.00    +0.000 HD
BRANCH  18  20
ATOM     20  C   UNL     1       1.945   2.959  21.435  0.00  0.00    +0.000 C 
BRANCH  20  21
ATOM     21  C   UNL     1       0.711   3.225  20.585  0.00  0.00    +0.000 C 
BRANCH  21  22
ATOM     22  C   UNL     1       0.702   2.395  19.299  0.00  0.00    +0.000 C 
BRANCH  22  23
ATOM     23  C   UNL     1       1.399   3.101  18.131  0.00  0.00    +0.000 C 
BRANCH  23  24
ATOM     24  N   UNL     1       2.210   2.127  17.400  0.00  0.00    +0.000 NA
ATOM     25  C   UNL     1       3.565   2.565  17.109  0.00  0.00    +0.000 C 
ATOM     26  C   UNL     1       3.296   1.563  18.199  0.00  0.00    +0.000 C 
ENDBRANCH  23  24
ENDBRANCH  22  23
ENDBRANCH  21  22
ENDBRANCH  20  21
ENDBRANCH  18  20
ENDBRANCH   6  18
BRANCH   1  27
ATOM     27  C   UNL     1       1.535   9.455  17.656  0.00  0.00    +0.000 C 
BRANCH  27  28
ATOM     28  C   UNL     1       1.676  10.605  18.669  0.00  0.00    +0.000 C 
BRANCH  28  30
ATOM     29  C   UNL     1       0.921  11.780  20.630  0.00  0.00    +0.000 C 
ATOM     30  N   UNL     1       0.578  10.738  19.652  0.00  0.00    +0.000 NA
ATOM     31  C   UNL     1      -0.705  11.069  19.028  0.00  0.00    +0.000 C 
ENDBRANCH  28  30
ENDBRANCH  27  28
ENDBRANCH   1  27
TORSDOF 9
ENDMDL
MODEL 6
REMARK VINA RESULT:      -6.3      2.071      7.282
REMARK  Name = 
REMARK  11 active torsions:
REMARK  status: ('A' for Active; 'I' for Inactive)
REMARK    1  A    between atoms: C_1  and  N_2
REMARK    2  A    between atoms: N_2  and  C_3
REMARK    3  A    between atoms: N_2  and  C_4
REMARK    4  A    between atoms: C_4  and  C_5
REMARK    5  A    between atoms: C_5  and  N_6
REMARK    6  A    between atoms: C_11  and  N_12
REMARK    7  A    between atoms: N_12  and  C_13
REMARK    8  A    between atoms: C_13  and  C_14
REMARK    9  A    between atoms: C_14  and  C_15
REMARK   10  A    between atoms: C_15  and  C_16
REMARK   11  A    between atoms: C_16  and  N_17
REMARK                            x       y       z     vdW  Elec       q    Type
REMARK                         _______ _______ _______ _____ _____    ______ ____
ROOT
ATOM      1  N   UNL     1       5.478   5.202  17.087  0.00  0.00    +0.000 N 
ATOM      2  N   UNL     1       5.307   4.123  17.905  0.00  0.00    +0.000 NA
ATOM      3  C   UNL     1       4.304   4.493  18.708  0.00  0.00    +0.000 A 
ATOM      4  C   UNL     1       3.855   5.785  18.415  0.00  0.00    +0.000 A 
ATOM      5  C   UNL     1       2.842   6.535  19.019  0.00  0.00    +0.000 A 
ATOM      6  C   UNL     1       2.580   7.817  18.494  0.00  0.00    +0.000 A 
ATOM      7  C   UNL     1       3.377   8.264  17.411  0.00  0.00    +0.000 A 
ATOM      8  C   UNL     1       4.371   7.487  16.796  0.00  0.00    +0.000 A 
ATOM      9  C   UNL     1       4.602   6.230  17.345  0.00  0.00    +0.000 A 
ATOM     10  C   UNL     1       2.160   5.800  20.145  0.00  0.00    +0.000 C 
ATOM     11  O   UNL     1       1.258   6.301  20.804  0.00  0.00    +0.000 OA
ATOM     12  C   UNL     1       2.621   4.386  20.480  0.00  0.00    +0.000 A 
ATOM     13  C   UNL     1       1.993   3.691  21.519  0.00  0.00    +0.000 A 
ATOM     14  C   UNL     1       2.432   2.415  21.807  0.00  0.00    +0.000 A 
ATOM     15  N   UNL     1       3.433   1.784  21.143  0.00  0.00    +0.000 NA
ATOM     16  C   UNL     1       4.030   2.473  20.138  0.00  0.00    +0.000 A 
ATOM     17  C   UNL     1       3.668   3.757  19.774  0.00  0.00    +0.000 A 
ENDROOT
BRANCH   6  18
ATOM     18  N   UNL     1       1.604   8.668  19.040  0.00  0.00    +0.000 N 
ATOM     19  H   UNL     1       1.939   9.073  19.916  0.00  0.00    +0.000 HD
BRANCH  18  20
ATOM     20  C   UNL     1       0.970   9.641  18.153  0.00  0.00    +0.000 C 
BRANCH  20  21
ATOM     21  C   UNL     1       1.010  11.047  18.733  0.00  0.00    +0.000 C 
BRANCH  21  22
ATOM     22  C   UNL     1      -0.335  11.766  18.607  0.00  0.00    +0.000 C 
BRANCH  22  23
ATOM     23  C   UNL     1      -1.531  10.822  18.766  0.00  0.00    +0.000 C 
BRANCH  23  24
ATOM     24  N   UNL     1      -2.478  11.063  17.677  0.00  0.00    +0.000 NA
ATOM     25  C   UNL     1      -2.395  10.112  16.581  0.00  0.00    +0.000 C 
ATOM     26  C   UNL     1      -3.519  10.041  17.580  0.00  0.00    +0.000 C 
ENDBRANCH  23  24
ENDBRANCH  22  23
ENDBRANCH  21  22
ENDBRANCH  20  21
ENDBRANCH  18  20
ENDBRANCH   6  18
BRANCH   1  27
ATOM     27  C   UNL     1       6.510   5.157  16.059  0.00  0.00    +0.000 C 
BRANCH  27  28
ATOM     28  C   UNL     1       5.933   4.997  14.641  0.00  0.00    +0.000 C 
BRANCH  28  30
ATOM     29  C   UNL     1       5.900   3.490  12.763  0.00  0.00    +0.000 C 
ATOM     30  N   UNL     1       6.768   4.236  13.686  0.00  0.00    +0.000 NA
ATOM     31  C   UNL     1       7.666   5.094  12.910  0.00  0.00    +0.000 C 
ENDBRANCH  28  30
ENDBRANCH  27  28
ENDBRANCH   1  27
TORSDOF 9
ENDMDL
MODEL 7
REMARK VINA RESULT:      -6.3      2.510      6.888
REMARK  Name = 
REMARK  11 active torsions:
REMARK  status: ('A' for Active; 'I' for Inactive)
REMARK    1  A    between atoms: C_1  and  N_2
REMARK    2  A    between atoms: N_2  and  C_3
REMARK    3  A    between atoms: N_2  and  C_4
REMARK    4  A    between atoms: C_4  and  C_5
REMARK    5  A    between atoms: C_5  and  N_6
REMARK    6  A    between atoms: C_11  and  N_12
REMARK    7  A    between atoms: N_12  and  C_13
REMARK    8  A    between atoms: C_13  and  C_14
REMARK    9  A    between atoms: C_14  and  C_15
REMARK   10  A    between atoms: C_15  and  C_16
REMARK   11  A    between atoms: C_16  and  N_17
REMARK                            x       y       z     vdW  Elec       q    Type
REMARK                         _______ _______ _______ _____ _____    ______ ____
ROOT
ATOM      1  N   UNL     1       5.182   5.331  17.224  0.00  0.00    +0.000 N 
ATOM      2  N   UNL     1       5.027   4.240  18.029  0.00  0.00    +0.000 NA
ATOM      3  C   UNL     1       4.030   4.592  18.847  0.00  0.00    +0.000 A 
ATOM      4  C   UNL     1       3.570   5.885  18.577  0.00  0.00    +0.000 A 
ATOM      5  C   UNL     1       2.558   6.621  19.201  0.00  0.00    +0.000 A 
ATOM      6  C   UNL     1       2.282   7.907  18.696  0.00  0.00    +0.000 A 
ATOM      7  C   UNL     1       3.064   8.374  17.611  0.00  0.00    +0.000 A 
ATOM      8  C   UNL     1       4.057   7.613  16.976  0.00  0.00    +0.000 A 
ATOM      9  C   UNL     1       4.302   6.349  17.505  0.00  0.00    +0.000 A 
ATOM     10  C   UNL     1       1.892   5.866  20.325  0.00  0.00    +0.000 C 
ATOM     11  O   UNL     1       0.994   6.351  20.999  0.00  0.00    +0.000 OA
ATOM     12  C   UNL     1       2.367   4.450  20.636  0.00  0.00    +0.000 A 
ATOM     13  C   UNL     1       1.754   3.737  21.672  0.00  0.00    +0.000 A 
ATOM     14  C   UNL     1       2.206   2.460  21.938  0.00  0.00    +0.000 A 
ATOM     15  N   UNL     1       3.204   1.845  21.255  0.00  0.00    +0.000 NA
ATOM     16  C   UNL     1       3.785   2.552  20.253  0.00  0.00    +0.000 A 
ATOM     17  C   UNL     1       3.411   3.838  19.910  0.00  0.00    +0.000 A 
ENDROOT
BRANCH   6  18
ATOM     18  N   UNL     1       1.306   8.744  19.264  0.00  0.00    +0.000 N 
ATOM     19  H   UNL     1       1.656   9.157  20.130  0.00  0.00    +0.000 HD
BRANCH  18  20
ATOM     20  C   UNL     1       0.635   9.704  18.390  0.00  0.00    +0.000 C 
BRANCH  20  21
ATOM     21  C   UNL     1      -0.556  10.359  19.076  0.00  0.00    +0.000 C 
BRANCH  21  22
ATOM     22  C   UNL     1      -1.822  10.304  18.218  0.00  0.00    +0.000 C 
BRANCH  22  23
ATOM     23  C   UNL     1      -2.059  11.590  17.423  0.00  0.00    +0.000 C 
BRANCH  23  24
ATOM     24  N   UNL     1      -2.615  11.248  16.113  0.00  0.00    +0.000 NA
ATOM     25  C   UNL     1      -2.880   9.832  15.920  0.00  0.00    +0.000 C 
ATOM     26  C   UNL     1      -4.005  10.798  16.176  0.00  0.00    +0.000 C 
ENDBRANCH  23  24
ENDBRANCH  22  23
ENDBRANCH  21  22
ENDBRANCH  20  21
ENDBRANCH  18  20
ENDBRANCH   6  18
BRANCH   1  27
ATOM     27  C   UNL     1       6.203   5.307  16.185  0.00  0.00    +0.000 C 
BRANCH  27  28
ATOM     28  C   UNL     1       7.374   6.263  16.478  0.00  0.00    +0.000 C 
BRANCH  28  30
ATOM     29  C   UNL     1       7.994   6.144  18.801  0.00  0.00    +0.000 C 
ATOM     30  N   UNL     1       7.325   6.963  17.780  0.00  0.00    +0.000 NA
ATOM     31  C   UNL     1       7.956   8.284  17.737  0.00  0.00    +0.000 C 
ENDBRANCH  28  30
ENDBRANCH  27  28
ENDBRANCH   1  27
TORSDOF 9
ENDMDL
MODEL 8
REMARK VINA RESULT:      -6.3      2.369      7.185
REMARK  Name = 
REMARK  11 active torsions:
REMARK  status: ('A' for Active; 'I' for Inactive)
REMARK    1  A    between atoms: C_1  and  N_2
REMARK    2  A    between atoms: N_2  and  C_3
REMARK    3  A    between atoms: N_2  and  C_4
REMARK    4  A    between atoms: C_4  and  C_5
REMARK    5  A    between atoms: C_5  and  N_6
REMARK    6  A    between atoms: C_11  and  N_12
REMARK    7  A    between atoms: N_12  and  C_13
REMARK    8  A    between atoms: C_13  and  C_14
REMARK    9  A    between atoms: C_14  and  C_15
REMARK   10  A    between atoms: C_15  and  C_16
REMARK   11  A    between atoms: C_16  and  N_17
REMARK                            x       y       z     vdW  Elec       q    Type
REMARK                         _______ _______ _______ _____ _____    ______ ____
ROOT
ATOM      1  N   UNL     1       5.205   4.815  16.856  0.00  0.00    +0.000 N 
ATOM      2  N   UNL     1       4.927   3.795  17.719  0.00  0.00    +0.000 NA
ATOM      3  C   UNL     1       4.040   4.331  18.565  0.00  0.00    +0.000 A 
ATOM      4  C   UNL     1       3.771   5.669  18.254  0.00  0.00    +0.000 A 
ATOM      5  C   UNL     1       2.919   6.577  18.888  0.00  0.00    +0.000 A 
ATOM      6  C   UNL     1       2.818   7.870  18.335  0.00  0.00    +0.000 A 
ATOM      7  C   UNL     1       3.606   8.165  17.194  0.00  0.00    +0.000 A 
ATOM      8  C   UNL     1       4.434   7.233  16.551  0.00  0.00    +0.000 A 
ATOM      9  C   UNL     1       4.509   5.969  17.129  0.00  0.00    +0.000 A 
ATOM     10  C   UNL     1       2.205   5.982  20.076  0.00  0.00    +0.000 C 
ATOM     11  O   UNL     1       1.429   6.629  20.767  0.00  0.00    +0.000 OA
ATOM     12  C   UNL     1       2.472   4.523  20.432  0.00  0.00    +0.000 A 
ATOM     13  C   UNL     1       1.811   3.957  21.527  0.00  0.00    +0.000 A 
ATOM     14  C   UNL     1       2.073   2.637  21.833  0.00  0.00    +0.000 A 
ATOM     15  N   UNL     1       2.928   1.846  21.136  0.00  0.00    +0.000 NA
ATOM     16  C   UNL     1       3.557   2.412  20.075  0.00  0.00    +0.000 A 
ATOM     17  C   UNL     1       3.368   3.727  19.689  0.00  0.00    +0.000 A 
ENDROOT
BRANCH   6  18
ATOM     18  N   UNL     1       2.015   8.871  18.906  0.00  0.00    +0.000 N 
ATOM     19  H   UNL     1       2.598   9.573  19.365  0.00  0.00    +0.000 HD
BRANCH  18  20
ATOM     20  C   UNL     1       0.949   9.445  18.087  0.00  0.00    +0.000 C 
BRANCH  20  21
ATOM     21  C   UNL     1      -0.222   9.923  18.932  0.00  0.00    +0.000 C 
BRANCH  21  22
ATOM     22  C   UNL     1      -1.194  10.797  18.137  0.00  0.00    +0.000 C 
BRANCH  22  23
ATOM     23  C   UNL     1      -2.064   9.991  17.169  0.00  0.00    +0.000 C 
BRANCH  23  24
ATOM     24  N   UNL     1      -2.484  10.859  16.068  0.00  0.00    +0.000 NA
ATOM     25  C   UNL     1      -2.966  10.154  14.891  0.00  0.00    +0.000 C 
ATOM     26  C   UNL     1      -3.927  10.833  15.830  0.00  0.00    +0.000 C 
ENDBRANCH  23  24
ENDBRANCH  22  23
ENDBRANCH  21  22
ENDBRANCH  20  21
ENDBRANCH  18  20
ENDBRANCH   6  18
BRANCH   1  27
ATOM     27  C   UNL     1       6.154   4.590  15.774  0.00  0.00    +0.000 C 
BRANCH  27  28
ATOM     28  C   UNL     1       5.532   3.842  14.581  0.00  0.00    +0.000 C 
BRANCH  28  30
ATOM     29  C   UNL     1       7.345   4.857  13.365  0.00  0.00    +0.000 C 
ATOM     30  N   UNL     1       6.013   4.249  13.242  0.00  0.00    +0.000 NA
ATOM     31  C   UNL     1       6.082   3.129  12.301  0.00  0.00    +0.000 C 
ENDBRANCH  28  30
ENDBRANCH  27  28
ENDBRANCH   1  27
TORSDOF 9
ENDMDL
MODEL 9
REMARK VINA RESULT:      -6.2      2.584      7.499
REMARK  Name = 
REMARK  11 active torsions:
REMARK  status: ('A' for Active; 'I' for Inactive)
REMARK    1  A    between atoms: C_1  and  N_2
REMARK    2  A    between atoms: N_2  and  C_3
REMARK    3  A    between atoms: N_2  and  C_4
REMARK    4  A    between atoms: C_4  and  C_5
REMARK    5  A    between atoms: C_5  and  N_6
REMARK    6  A    between atoms: C_11  and  N_12
REMARK    7  A    between atoms: N_12  and  C_13
REMARK    8  A    between atoms: C_13  and  C_14
REMARK    9  A    between atoms: C_14  and  C_15
REMARK   10  A    between atoms: C_15  and  C_16
REMARK   11  A    between atoms: C_16  and  N_17
REMARK                            x       y       z     vdW  Elec       q    Type
REMARK                         _______ _______ _______ _____ _____    ______ ____
ROOT
ATOM      1  N   UNL     1       4.554   6.443  17.002  0.00  0.00    +0.000 N 
ATOM      2  N   UNL     1       4.599   5.247  17.659  0.00  0.00    +0.000 NA
ATOM      3  C   UNL     1       3.701   5.394  18.639  0.00  0.00    +0.000 A 
ATOM      4  C   UNL     1       3.108   6.661  18.614  0.00  0.00    +0.000 A 
ATOM      5  C   UNL     1       2.140   7.209  19.460  0.00  0.00    +0.000 A 
ATOM      6  C   UNL     1       1.696   8.517  19.181  0.00  0.00    +0.000 A 
ATOM      7  C   UNL     1       2.282   9.193  18.081  0.00  0.00    +0.000 A 
ATOM      8  C   UNL     1       3.232   8.619  17.224  0.00  0.00    +0.000 A 
ATOM      9  C   UNL     1       3.646   7.327  17.534  0.00  0.00    +0.000 A 
ATOM     10  C   UNL     1       1.697   6.255  20.541  0.00  0.00    +0.000 C 
ATOM     11  O   UNL     1       0.867   6.561  21.387  0.00  0.00    +0.000 OA
ATOM     12  C   UNL     1       2.319   4.863  20.586  0.00  0.00    +0.000 A 
ATOM     13  C   UNL     1       1.914   3.967  21.581  0.00  0.00    +0.000 A 
ATOM     14  C   UNL     1       2.496   2.715  21.605  0.00  0.00    +0.000 A 
ATOM     15  N   UNL     1       3.434   2.292  20.720  0.00  0.00    +0.000 NA
ATOM     16  C   UNL     1       3.813   3.174  19.762  0.00  0.00    +0.000 A 
ATOM     17  C   UNL     1       3.296   4.453  19.655  0.00  0.00    +0.000 A 
ENDROOT
BRANCH   6  18
ATOM     18  N   UNL     1       0.747   9.176  19.980  0.00  0.00    +0.000 N 
ATOM     19  H   UNL     1       1.064   9.206  20.951  0.00  0.00    +0.000 HD
BRANCH  18  20
ATOM     20  C   UNL     1       0.214  10.450  19.502  0.00  0.00    +0.000 C 
BRANCH  20  21
ATOM     21  C   UNL     1      -1.215  10.314  19.000  0.00  0.00    +0.000 C 
BRANCH  21  22
ATOM     22  C   UNL     1      -1.277   9.934  17.519  0.00  0.00    +0.000 C 
BRANCH  22  23
ATOM     23  C   UNL     1      -2.692  10.026  16.940  0.00  0.00    +0.000 C 
BRANCH  23  24
ATOM     24  N   UNL     1      -3.402  11.131  17.585  0.00  0.00    +0.000 NA
ATOM     25  C   UNL     1      -4.538  11.641  16.834  0.00  0.00    +0.000 C 
ATOM     26  C   UNL     1      -4.742  10.767  18.044  0.00  0.00    +0.000 C 
ENDBRANCH  23  24
ENDBRANCH  22  23
ENDBRANCH  21  22
ENDBRANCH  20  21
ENDBRANCH  18  20
ENDBRANCH   6  18
BRANCH   1  27
ATOM     27  C   UNL     1       5.420   6.652  15.848  0.00  0.00    +0.000 C 
BRANCH  27  28
ATOM     28  C   UNL     1       5.293   5.533  14.799  0.00  0.00    +0.000 C 
BRANCH  28  30
ATOM     29  C   UNL     1       7.171   4.262  15.610  0.00  0.00    +0.000 C 
ATOM     30  N   UNL     1       6.555   4.860  14.417  0.00  0.00    +0.000 NA
ATOM     31  C   UNL     1       6.358   3.819  13.406  0.00  0.00    +0.000 C 
ENDBRANCH  28  30
ENDBRANCH  27  28
ENDBRANCH   1  27
TORSDOF 9
ENDMDL
