MODEL 1
REMARK VINA RESULT:      -7.9      0.000      0.000
REMARK  Name = 
REMARK  9 active torsions:
REMARK  status: ('A' for Active; 'I' for Inactive)
REMARK    1  A    between atoms: C_1  and  N_2
REMARK    2  A    between atoms: N_2  and  C_3
REMARK    3  A    between atoms: N_2  and  C_4
REMARK    4  A    between atoms: C_4  and  C_5
REMARK    5  A    between atoms: C_5  and  O_6
REMARK    6  A    between atoms: O_6  and  C_7
REMARK    7  A    between atoms: C_10  and  C_11
REMARK    8  A    between atoms: C_16  and  N_17
REMARK    9  A    between atoms: C_18  and  C_20
REMARK                            x       y       z     vdW  Elec       q    Type
REMARK                         _______ _______ _______ _____ _____    ______ ____
ROOT
ATOM      1  C   UNL     1       0.915   9.360  20.012  0.00  0.00    +0.000 A 
ATOM      2  C   UNL     1       1.269   9.821  18.729  0.00  0.00    +0.000 A 
ATOM      3  C   UNL     1       2.114   9.085  17.892  0.00  0.00    +0.000 A 
ATOM      4  C   UNL     1       2.649   7.876  18.333  0.00  0.00    +0.000 A 
ATOM      5 CL   UNL     1       3.668   6.985  17.261  0.00  0.00    +0.000 Cl
ATOM      6  C   UNL     1       2.291   7.369  19.588  0.00  0.00    +0.000 A 
ATOM      7  C   UNL     1       1.433   8.116  20.411  0.00  0.00    +0.000 A 
ENDROOT
BRANCH   1  11
ATOM      8  C   UNL     1      -1.685  11.614  22.634  0.00  0.00    +0.000 A 
ATOM      9  C   UNL     1      -0.928  10.543  23.105  0.00  0.00    +0.000 A 
ATOM     10  C   UNL     1      -0.095   9.821  22.251  0.00  0.00    +0.000 A 
ATOM     11  C   UNL     1       0.002  10.130  20.887  0.00  0.00    +0.000 A 
ATOM     12  C   UNL     1      -0.785  11.200  20.418  0.00  0.00    +0.000 A 
ATOM     13  C   UNL     1      -1.613  11.938  21.282  0.00  0.00    +0.000 A 
BRANCH   8  14
ATOM     14  O   UNL     1      -2.509  12.397  23.410  0.00  0.00    +0.000 OA
BRANCH  14  15
ATOM     15  C   UNL     1      -3.620  12.944  22.689  0.00  0.00    +0.000 C 
BRANCH  15  16
ATOM     16  C   UNL     1      -4.798  13.285  23.606  0.00  0.00    +0.000 C 
BRANCH  16  18
ATOM     17  C   UNL     1      -7.147  12.986  24.069  0.00  0.00    +0.000 C 
ATOM     18  N   UNL     1      -6.035  12.571  23.216  0.00  0.00    +0.000 NA
ATOM     19  C   UNL     1      -6.386  12.777  21.807  0.00  0.00    +0.000 C 
ENDBRANCH  16  18
ENDBRANCH  15  16
ENDBRANCH  14  15
ENDBRANCH   8  14
ENDBRANCH   1  11
BRANCH   6  20
ATOM     20  N   UNL     1       2.792   6.122  20.026  0.00  0.00    +0.000 N 
ATOM     21  C   UNL     1       2.277   4.924  19.580  0.00  0.00    +0.000 C 
ATOM     22  O   UNL     1       1.364   4.808  18.765  0.00  0.00    +0.000 OA
ATOM     23  H   UNL     1       3.739   6.086  20.385  0.00  0.00    +0.000 HD
BRANCH  21  24
ATOM     24  C   UNL     1       2.953   3.752  20.110  0.00  0.00    +0.000 A 
ATOM     25  C   UNL     1       2.642   3.133  21.300  0.00  0.00    +0.000 A 
ATOM     26  O   UNL     1       3.527   2.119  21.492  0.00  0.00    +0.000 OA
ATOM     27  C   UNL     1       4.330   2.171  20.394  0.00  0.00    +0.000 A 
ATOM     28  N   UNL     1       5.336   1.297  20.376  0.00  0.00    +0.000 N 
ATOM     29  N   UNL     1       4.028   3.105  19.523  0.00  0.00    +0.000 NA
ATOM     30  H   UNL     1       5.595   0.897  21.268  0.00  0.00    +0.000 HD
ATOM     31  H   UNL     1       6.127   1.541  19.789  0.00  0.00    +0.000 HD
ENDBRANCH  21  24
ENDBRANCH   6  20
TORSDOF 7
ENDMDL
MODEL 2
REMARK VINA RESULT:      -7.8      3.501      4.424
REMARK  Name = 
REMARK  9 active torsions:
REMARK  status: ('A' for Active; 'I' for Inactive)
REMARK    1  A    between atoms: C_1  and  N_2
REMARK    2  A    between atoms: N_2  and  C_3
REMARK    3  A    between atoms: N_2  and  C_4
REMARK    4  A    between atoms: C_4  and  C_5
REMARK    5  A    between atoms: C_5  and  O_6
REMARK    6  A    between atoms: O_6  and  C_7
REMARK    7  A    between atoms: C_10  and  C_11
REMARK    8  A    between atoms: C_16  and  N_17
REMARK    9  A    between atoms: C_18  and  C_20
REMARK                            x       y       z     vdW  Elec       q    Type
REMARK                         _______ _______ _______ _____ _____    ______ ____
ROOT
ATOM      1  C   UNL     1       1.952   6.795  20.083  0.00  0.00    +0.000 A 
ATOM      2  C   UNL     1       1.699   5.650  20.861  0.00  0.00    +0.000 A 
ATOM      3  C   UNL     1       2.180   4.389  20.491  0.00  0.00    +0.000 A 
ATOM      4  C   UNL     1       2.907   4.242  19.310  0.00  0.00    +0.000 A 
ATOM      5 CL   UNL     1       3.506   2.675  18.900  0.00  0.00    +0.000 Cl
ATOM      6  C   UNL     1       3.209   5.365  18.531  0.00  0.00    +0.000 A 
ATOM      7  C   UNL     1       2.727   6.623  18.923  0.00  0.00    +0.000 A 
ENDROOT
BRANCH   1  11
ATOM      8  C   UNL     1       0.578  10.700  21.342  0.00  0.00    +0.000 A 
ATOM      9  C   UNL     1       0.747   9.659  22.253  0.00  0.00    +0.000 A 
ATOM     10  C   UNL     1       1.187   8.403  21.837  0.00  0.00    +0.000 A 
ATOM     11  C   UNL     1       1.461   8.132  20.489  0.00  0.00    +0.000 A 
ATOM     12  C   UNL     1       1.266   9.185  19.575  0.00  0.00    +0.000 A 
ATOM     13  C   UNL     1       0.837  10.455  19.996  0.00  0.00    +0.000 A 
BRANCH   8  14
ATOM     14  O   UNL     1       0.176  11.974  21.670  0.00  0.00    +0.000 OA
BRANCH  14  15
ATOM     15  C   UNL     1      -0.982  12.007  22.514  0.00  0.00    +0.000 C 
BRANCH  15  16
ATOM     16  C   UNL     1      -2.201  12.607  21.808  0.00  0.00    +0.000 C 
BRANCH  16  18
ATOM     17  C   UNL     1      -3.418  12.479  23.887  0.00  0.00    +0.000 C 
ATOM     18  N   UNL     1      -3.472  12.206  22.452  0.00  0.00    +0.000 NA
ATOM     19  C   UNL     1      -4.639  12.870  21.863  0.00  0.00    +0.000 C 
ENDBRANCH  16  18
ENDBRANCH  15  16
ENDBRANCH  14  15
ENDBRANCH   8  14
ENDBRANCH   1  11
BRANCH   6  20
ATOM     20  N   UNL     1       3.985   5.233  17.356  0.00  0.00    +0.000 N 
ATOM     21  C   UNL     1       5.361   5.293  17.373  0.00  0.00    +0.000 C 
ATOM     22  O   UNL     1       6.049   5.446  18.380  0.00  0.00    +0.000 OA
ATOM     23  H   UNL     1       3.576   4.751  16.563  0.00  0.00    +0.000 HD
BRANCH  21  24
ATOM     24  C   UNL     1       5.981   5.092  16.074  0.00  0.00    +0.000 A 
ATOM     25  C   UNL     1       5.642   4.100  15.182  0.00  0.00    +0.000 A 
ATOM     26  O   UNL     1       6.479   4.188  14.114  0.00  0.00    +0.000 OA
ATOM     27  C   UNL     1       7.283   5.244  14.413  0.00  0.00    +0.000 A 
ATOM     28  N   UNL     1       8.248   5.500  13.529  0.00  0.00    +0.000 N 
ATOM     29  N   UNL     1       7.025   5.840  15.553  0.00  0.00    +0.000 NA
ATOM     30  H   UNL     1       8.487   4.745  12.900  0.00  0.00    +0.000 HD
ATOM     31  H   UNL     1       9.048   6.013  13.881  0.00  0.00    +0.000 HD
ENDBRANCH  21  24
ENDBRANCH   6  20
TORSDOF 7
ENDMDL
MODEL 3
REMARK VINA RESULT:      -7.7      3.917      5.249
REMARK  Name = 
REMARK  9 active torsions:
REMARK  status: ('A' for Active; 'I' for Inactive)
REMARK    1  A    between atoms: C_1  and  N_2
REMARK    2  A    between atoms: N_2  and  C_3
REMARK    3  A    between atoms: N_2  and  C_4
REMARK    4  A    between atoms: C_4  and  C_5
REMARK    5  A    between atoms: C_5  and  O_6
REMARK    6  A    between atoms: O_6  and  C_7
REMARK    7  A    between atoms: C_10  and  C_11
REMARK    8  A    between atoms: C_16  and  N_17
REMARK    9  A    between atoms: C_18  and  C_20
REMARK                            x       y       z     vdW  Elec       q    Type
REMARK                         _______ _______ _______ _____ _____    ______ ____
ROOT
ATOM      1  C   UNL     1       2.045   6.649  19.945  0.00  0.00    +0.000 A 
ATOM      2  C   UNL     1       1.733   5.484  20.671  0.00  0.00    +0.000 A 
ATOM      3  C   UNL     1       2.174   4.221  20.260  0.00  0.00    +0.000 A 
ATOM      4  C   UNL     1       2.918   4.094  19.088  0.00  0.00    +0.000 A 
ATOM      5 CL   UNL     1       3.465   2.522  18.626  0.00  0.00    +0.000 Cl
ATOM      6  C   UNL     1       3.278   5.234  18.360  0.00  0.00    +0.000 A 
ATOM      7  C   UNL     1       2.836   6.493  18.794  0.00  0.00    +0.000 A 
ENDROOT
BRANCH   1  11
ATOM      8  C   UNL     1       0.671  10.556  21.196  0.00  0.00    +0.000 A 
ATOM      9  C   UNL     1       0.883  10.255  19.852  0.00  0.00    +0.000 A 
ATOM     10  C   UNL     1       1.329   8.994  19.459  0.00  0.00    +0.000 A 
ATOM     11  C   UNL     1       1.598   7.987  20.396  0.00  0.00    +0.000 A 
ATOM     12  C   UNL     1       1.401   8.309  21.753  0.00  0.00    +0.000 A 
ATOM     13  C   UNL     1       0.937   9.576  22.148  0.00  0.00    +0.000 A 
BRANCH   8  14
ATOM     14  O   UNL     1       0.207  11.763  21.668  0.00  0.00    +0.000 OA
BRANCH  14  15
ATOM     15  C   UNL     1      -1.026  12.174  21.064  0.00  0.00    +0.000 C 
BRANCH  15  16
ATOM     16  C   UNL     1      -0.983  13.626  20.581  0.00  0.00    +0.000 C 
BRANCH  16  18
ATOM     17  C   UNL     1      -0.572  13.153  18.251  0.00  0.00    +0.000 C 
ATOM     18  N   UNL     1      -0.048  13.810  19.447  0.00  0.00    +0.000 NA
ATOM     19  C   UNL     1       0.224  15.221  19.161  0.00  0.00    +0.000 C 
ENDBRANCH  16  18
ENDBRANCH  15  16
ENDBRANCH  14  15
ENDBRANCH   8  14
ENDBRANCH   1  11
BRANCH   6  20
ATOM     20  N   UNL     1       4.072   5.119  17.196  0.00  0.00    +0.000 N 
ATOM     21  C   UNL     1       5.449   5.113  17.241  0.00  0.00    +0.000 C 
ATOM     22  O   UNL     1       6.122   5.189  18.268  0.00  0.00    +0.000 OA
ATOM     23  H   UNL     1       3.658   4.692  16.374  0.00  0.00    +0.000 HD
BRANCH  21  24
ATOM     24  C   UNL     1       6.086   4.942  15.946  0.00  0.00    +0.000 A 
ATOM     25  C   UNL     1       5.874   3.881  15.096  0.00  0.00    +0.000 A 
ATOM     26  O   UNL     1       6.691   4.032  14.020  0.00  0.00    +0.000 OA
ATOM     27  C   UNL     1       7.355   5.193  14.271  0.00  0.00    +0.000 A 
ATOM     28  N   UNL     1       8.276   5.536  13.372  0.00  0.00    +0.000 N 
ATOM     29  N   UNL     1       7.025   5.796  15.390  0.00  0.00    +0.000 NA
ATOM     30  H   UNL     1       8.609   4.793  12.771  0.00  0.00    +0.000 HD
ATOM     31  H   UNL     1       9.006   6.160  13.697  0.00  0.00    +0.000 HD
ENDBRANCH  21  24
ENDBRANCH   6  20
TORSDOF 7
ENDMDL
MODEL 4
REMARK VINA RESULT:      -7.7      3.451      4.488
REMARK  Name = 
REMARK  9 active torsions:
REMARK  status: ('A' for Active; 'I' for Inactive)
REMARK    1  A    between atoms: C_1  and  N_2
REMARK    2  A    between atoms: N_2  and  C_3
REMARK    3  A    between atoms: N_2  and  C_4
REMARK    4  A    between atoms: C_4  and  C_5
REMARK    5  A    between atoms: C_5  and  O_6
REMARK    6  A    between atoms: O_6  and  C_7
REMARK    7  A    between atoms: C_10  and  C_11
REMARK    8  A    between atoms: C_16  and  N_17
REMARK    9  A    between atoms: C_18  and  C_20
REMARK                            x       y       z     vdW  Elec       q    Type
REMARK                         _______ _______ _______ _____ _____    ______ ____
ROOT
ATOM      1  C   UNL     1       1.859   6.647  20.107  0.00  0.00    +0.000 A 
ATOM      2  C   UNL     1       1.456   5.497  20.813  0.00  0.00    +0.000 A 
ATOM      3  C   UNL     1       1.854   4.215  20.417  0.00  0.00    +0.000 A 
ATOM      4  C   UNL     1       2.647   4.053  19.282  0.00  0.00    +0.000 A 
ATOM      5 CL   UNL     1       3.138   2.458  18.839  0.00  0.00    +0.000 Cl
ATOM      6  C   UNL     1       3.096   5.175  18.577  0.00  0.00    +0.000 A 
ATOM      7  C   UNL     1       2.696   6.454  18.994  0.00  0.00    +0.000 A 
ENDROOT
BRANCH   1  11
ATOM      8  C   UNL     1       0.621  10.615  21.306  0.00  0.00    +0.000 A 
ATOM      9  C   UNL     1       0.919  10.315  19.977  0.00  0.00    +0.000 A 
ATOM     10  C   UNL     1       1.320   9.034  19.602  0.00  0.00    +0.000 A 
ATOM     11  C   UNL     1       1.456   8.003  20.542  0.00  0.00    +0.000 A 
ATOM     12  C   UNL     1       1.173   8.323  21.884  0.00  0.00    +0.000 A 
ATOM     13  C   UNL     1       0.754   9.611  22.261  0.00  0.00    +0.000 A 
BRANCH   8  14
ATOM     14  O   UNL     1       0.192  11.842  21.758  0.00  0.00    +0.000 OA
BRANCH  14  15
ATOM     15  C   UNL     1      -1.049  11.782  22.473  0.00  0.00    +0.000 C 
BRANCH  15  16
ATOM     16  C   UNL     1      -1.421  13.126  23.106  0.00  0.00    +0.000 C 
BRANCH  16  18
ATOM     17  C   UNL     1      -3.045  14.375  24.381  0.00  0.00    +0.000 C 
ATOM     18  N   UNL     1      -2.768  13.100  23.720  0.00  0.00    +0.000 NA
ATOM     19  C   UNL     1      -3.826  12.805  22.749  0.00  0.00    +0.000 C 
ENDBRANCH  16  18
ENDBRANCH  15  16
ENDBRANCH  14  15
ENDBRANCH   8  14
ENDBRANCH   1  11
BRANCH   6  20
ATOM     20  N   UNL     1       3.938   5.024  17.452  0.00  0.00    +0.000 N 
ATOM     21  C   UNL     1       5.310   4.961  17.562  0.00  0.00    +0.000 C 
ATOM     22  O   UNL     1       5.937   5.012  18.619  0.00  0.00    +0.000 OA
ATOM     23  H   UNL     1       3.546   4.613  16.611  0.00  0.00    +0.000 HD
BRANCH  21  24
ATOM     24  C   UNL     1       6.000   4.760  16.299  0.00  0.00    +0.000 A 
ATOM     25  C   UNL     1       7.145   5.418  15.912  0.00  0.00    +0.000 A 
ATOM     26  O   UNL     1       7.455   5.019  14.649  0.00  0.00    +0.000 OA
ATOM     27  C   UNL     1       6.478   4.125  14.338  0.00  0.00    +0.000 A 
ATOM     28  N   UNL     1       6.527   3.626  13.103  0.00  0.00    +0.000 N 
ATOM     29  N   UNL     1       5.594   3.908  15.284  0.00  0.00    +0.000 NA
ATOM     30  H   UNL     1       7.071   4.153  12.431  0.00  0.00    +0.000 HD
ATOM     31  H   UNL     1       5.655   3.264  12.734  0.00  0.00    +0.000 HD
ENDBRANCH  21  24
ENDBRANCH   6  20
TORSDOF 7
ENDMDL
MODEL 5
REMARK VINA RESULT:      -7.6      4.086      5.382
REMARK  Name = 
REMARK  9 active torsions:
REMARK  status: ('A' for Active; 'I' for Inactive)
REMARK    1  A    between atoms: C_1  and  N_2
REMARK    2  A    between atoms: N_2  and  C_3
REMARK    3  A    between atoms: N_2  and  C_4
REMARK    4  A    between atoms: C_4  and  C_5
REMARK    5  A    between atoms: C_5  and  O_6
REMARK    6  A    between atoms: O_6  and  C_7
REMARK    7  A    between atoms: C_10  and  C_11
REMARK    8  A    between atoms: C_16  and  N_17
REMARK    9  A    between atoms: C_18  and  C_20
REMARK                            x       y       z     vdW  Elec       q    Type
REMARK                         _______ _______ _______ _____ _____    ______ ____
ROOT
ATOM      1  C   UNL     1       2.304   6.852  19.379  0.00  0.00    +0.000 A 
ATOM      2  C   UNL     1       2.240   5.890  20.405  0.00  0.00    +0.000 A 
ATOM      3  C   UNL     1       2.803   4.618  20.256  0.00  0.00    +0.000 A 
ATOM      4  C   UNL     1       3.422   4.268  19.057  0.00  0.00    +0.000 A 
ATOM      5 CL   UNL     1       4.127   2.698  18.920  0.00  0.00    +0.000 Cl
ATOM      6  C   UNL     1       3.536   5.211  18.028  0.00  0.00    +0.000 A 
ATOM      7  C   UNL     1       2.975   6.486  18.199  0.00  0.00    +0.000 A 
ENDROOT
BRANCH   1  11
ATOM      8  C   UNL     1       0.575  10.796  19.792  0.00  0.00    +0.000 A 
ATOM      9  C   UNL     1       1.144  10.373  18.593  0.00  0.00    +0.000 A 
ATOM     10  C   UNL     1       1.702   9.101  18.471  0.00  0.00    +0.000 A 
ATOM     11  C   UNL     1       1.728   8.205  19.548  0.00  0.00    +0.000 A 
ATOM     12  C   UNL     1       1.168   8.651  20.762  0.00  0.00    +0.000 A 
ATOM     13  C   UNL     1       0.593   9.928  20.881  0.00  0.00    +0.000 A 
BRANCH   8  14
ATOM     14  O   UNL     1      -0.021  12.020  19.992  0.00  0.00    +0.000 OA
BRANCH  14  15
ATOM     15  C   UNL     1      -0.862  12.428  18.905  0.00  0.00    +0.000 C 
BRANCH  15  16
ATOM     16  C   UNL     1      -2.212  11.706  18.910  0.00  0.00    +0.000 C 
BRANCH  16  18
ATOM     17  C   UNL     1      -2.185  10.103  17.107  0.00  0.00    +0.000 C 
ATOM     18  N   UNL     1      -2.690  11.405  17.542  0.00  0.00    +0.000 NA
ATOM     19  C   UNL     1      -4.151  11.432  17.434  0.00  0.00    +0.000 C 
ENDBRANCH  16  18
ENDBRANCH  15  16
ENDBRANCH  14  15
ENDBRANCH   8  14
ENDBRANCH   1  11
BRANCH   6  20
ATOM     20  N   UNL     1       4.202   4.881  16.826  0.00  0.00    +0.000 N 
ATOM     21  C   UNL     1       5.524   5.201  16.605  0.00  0.00    +0.000 C 
ATOM     22  O   UNL     1       6.255   5.777  17.409  0.00  0.00    +0.000 OA
ATOM     23  H   UNL     1       3.838   4.114  16.271  0.00  0.00    +0.000 HD
BRANCH  21  24
ATOM     24  C   UNL     1       6.043   4.739  15.328  0.00  0.00    +0.000 A 
ATOM     25  C   UNL     1       7.139   5.267  14.685  0.00  0.00    +0.000 A 
ATOM     26  O   UNL     1       7.277   4.627  13.493  0.00  0.00    +0.000 OA
ATOM     27  C   UNL     1       6.254   3.730  13.480  0.00  0.00    +0.000 A 
ATOM     28  N   UNL     1       6.136   3.008  12.367  0.00  0.00    +0.000 N 
ATOM     29  N   UNL     1       5.496   3.730  14.552  0.00  0.00    +0.000 NA
ATOM     30  H   UNL     1       6.597   3.377  11.545  0.00  0.00    +0.000 HD
ATOM     31  H   UNL     1       5.218   2.619  12.184  0.00  0.00    +0.000 HD
ENDBRANCH  21  24
ENDBRANCH   6  20
TORSDOF 7
ENDMDL
MODEL 6
REMARK VINA RESULT:      -7.6      3.623      4.710
REMARK  Name = 
REMARK  9 active torsions:
REMARK  status: ('A' for Active; 'I' for Inactive)
REMARK    1  A    between atoms: C_1  and  N_2
REMARK    2  A    between atoms: N_2  and  C_3
REMARK    3  A    between atoms: N_2  and  C_4
REMARK    4  A    between atoms: C_4  and  C_5
REMARK    5  A    between atoms: C_5  and  O_6
REMARK    6  A    between atoms: O_6  and  C_7
REMARK    7  A    between atoms: C_10  and  C_11
REMARK    8  A    between atoms: C_16  and  N_17
REMARK    9  A    between atoms: C_18  and  C_20
REMARK                            x       y       z     vdW  Elec       q    Type
REMARK                         _______ _______ _______ _____ _____    ______ ____
ROOT
ATOM      1  C   UNL     1       2.054   6.592  19.983  0.00  0.00    +0.000 A 
ATOM      2  C   UNL     1       1.864   5.455  20.790  0.00  0.00    +0.000 A 
ATOM      3  C   UNL     1       2.397   4.209  20.442  0.00  0.00    +0.000 A 
ATOM      4  C   UNL     1       3.115   4.067  19.255  0.00  0.00    +0.000 A 
ATOM      5 CL   UNL     1       3.779   2.520  18.872  0.00  0.00    +0.000 Cl
ATOM      6  C   UNL     1       3.355   5.184  18.446  0.00  0.00    +0.000 A 
ATOM      7  C   UNL     1       2.821   6.428  18.816  0.00  0.00    +0.000 A 
ENDROOT
BRANCH   1  11
ATOM      8  C   UNL     1       0.407  10.455  21.022  0.00  0.00    +0.000 A 
ATOM      9  C   UNL     1       0.883  10.188  19.739  0.00  0.00    +0.000 A 
ATOM     10  C   UNL     1       1.415   8.940  19.415  0.00  0.00    +0.000 A 
ATOM     11  C   UNL     1       1.508   7.914  20.365  0.00  0.00    +0.000 A 
ATOM     12  C   UNL     1       1.044   8.203  21.663  0.00  0.00    +0.000 A 
ATOM     13  C   UNL     1       0.494   9.455  21.986  0.00  0.00    +0.000 A 
BRANCH   8  14
ATOM     14  O   UNL     1      -0.158  11.646  21.419  0.00  0.00    +0.000 OA
BRANCH  14  15
ATOM     15  C   UNL     1      -0.836  11.562  22.678  0.00  0.00    +0.000 C 
BRANCH  15  16
ATOM     16  C   UNL     1      -1.630  12.831  22.998  0.00  0.00    +0.000 C 
BRANCH  16  18
ATOM     17  C   UNL     1      -3.925  12.824  22.253  0.00  0.00    +0.000 C 
ATOM     18  N   UNL     1      -2.557  13.201  21.904  0.00  0.00    +0.000 NA
ATOM     19  C   UNL     1      -2.503  14.629  21.576  0.00  0.00    +0.000 C 
ENDBRANCH  16  18
ENDBRANCH  15  16
ENDBRANCH  14  15
ENDBRANCH   8  14
ENDBRANCH   1  11
BRANCH   6  20
ATOM     20  N   UNL     1       4.121   5.060  17.265  0.00  0.00    +0.000 N 
ATOM     21  C   UNL     1       5.493   5.187  17.260  0.00  0.00    +0.000 C 
ATOM     22  O   UNL     1       6.186   5.399  18.253  0.00  0.00    +0.000 OA
ATOM     23  H   UNL     1       3.726   4.539  16.490  0.00  0.00    +0.000 HD
BRANCH  21  24
ATOM     24  C   UNL     1       6.105   4.983  15.958  0.00  0.00    +0.000 A 
ATOM     25  C   UNL     1       5.850   3.919  15.123  0.00  0.00    +0.000 A 
ATOM     26  O   UNL     1       6.654   4.035  14.033  0.00  0.00    +0.000 OA
ATOM     27  C   UNL     1       7.354   5.179  14.261  0.00  0.00    +0.000 A 
ATOM     28  N   UNL     1       8.271   5.485  13.343  0.00  0.00    +0.000 N 
ATOM     29  N   UNL     1       7.060   5.803  15.377  0.00  0.00    +0.000 NA
ATOM     30  H   UNL     1       8.574   4.726  12.746  0.00  0.00    +0.000 HD
ATOM     31  H   UNL     1       9.023   6.092  13.650  0.00  0.00    +0.000 HD
ENDBRANCH  21  24
ENDBRANCH   6  20
TORSDOF 7
ENDMDL
MODEL 7
REMARK VINA RESULT:      -7.6      3.616      4.916
REMARK  Name = 
REMARK  9 active torsions:
REMARK  status: ('A' for Active; 'I' for Inactive)
REMARK    1  A    between atoms: C_1  and  N_2
REMARK    2  A    between atoms: N_2  and  C_3
REMARK    3  A    between atoms: N_2  and  C_4
REMARK    4  A    between atoms: C_4  and  C_5
REMARK    5  A    between atoms: C_5  and  O_6
REMARK    6  A    between atoms: O_6  and  C_7
REMARK    7  A    between atoms: C_10  and  C_11
REMARK    8  A    between atoms: C_16  and  N_17
REMARK    9  A    between atoms: C_18  and  C_20
REMARK                            x       y       z     vdW  Elec       q    Type
REMARK                         _______ _______ _______ _____ _____    ______ ____
ROOT
ATOM      1  C   UNL     1       1.896   6.557  20.105  0.00  0.00    +0.000 A 
ATOM      2  C   UNL     1       1.485   5.420  20.826  0.00  0.00    +0.000 A 
ATOM      3  C   UNL     1       1.864   4.129  20.442  0.00  0.00    +0.000 A 
ATOM      4  C   UNL     1       2.647   3.944  19.304  0.00  0.00    +0.000 A 
ATOM      5 CL   UNL     1       3.115   2.338  18.876  0.00  0.00    +0.000 Cl
ATOM      6  C   UNL     1       3.104   5.053  18.583  0.00  0.00    +0.000 A 
ATOM      7  C   UNL     1       2.723   6.342  18.988  0.00  0.00    +0.000 A 
ENDROOT
BRANCH   1  11
ATOM      8  C   UNL     1       0.719  10.555  21.262  0.00  0.00    +0.000 A 
ATOM      9  C   UNL     1       1.067  10.251  19.948  0.00  0.00    +0.000 A 
ATOM     10  C   UNL     1       1.449   8.960  19.585  0.00  0.00    +0.000 A 
ATOM     11  C   UNL     1       1.513   7.923  20.526  0.00  0.00    +0.000 A 
ATOM     12  C   UNL     1       1.179   8.247  21.856  0.00  0.00    +0.000 A 
ATOM     13  C   UNL     1       0.780   9.545  22.218  0.00  0.00    +0.000 A 
BRANCH   8  14
ATOM     14  O   UNL     1       0.304  11.793  21.700  0.00  0.00    +0.000 OA
BRANCH  14  15
ATOM     15  C   UNL     1      -1.102  12.013  21.536  0.00  0.00    +0.000 C 
BRANCH  15  16
ATOM     16  C   UNL     1      -1.404  13.307  20.774  0.00  0.00    +0.000 C 
BRANCH  16  18
ATOM     17  C   UNL     1      -0.522  13.276  18.528  0.00  0.00    +0.000 C 
ATOM     18  N   UNL     1      -1.713  13.055  19.348  0.00  0.00    +0.000 NA
ATOM     19  C   UNL     1      -2.236  11.707  19.111  0.00  0.00    +0.000 C 
ENDBRANCH  16  18
ENDBRANCH  15  16
ENDBRANCH  14  15
ENDBRANCH   8  14
ENDBRANCH   1  11
BRANCH   6  20
ATOM     20  N   UNL     1       3.937   4.879  17.453  0.00  0.00    +0.000 N 
ATOM     21  C   UNL     1       5.311   4.876  17.545  0.00  0.00    +0.000 C 
ATOM     22  O   UNL     1       5.950   5.005  18.589  0.00  0.00    +0.000 OA
ATOM     23  H   UNL     1       3.550   4.410  16.641  0.00  0.00    +0.000 HD
BRANCH  21  24
ATOM     24  C   UNL     1       5.992   4.638  16.283  0.00  0.00    +0.000 A 
ATOM     25  C   UNL     1       7.183   5.217  15.908  0.00  0.00    +0.000 A 
ATOM     26  O   UNL     1       7.470   4.810  14.643  0.00  0.00    +0.000 OA
ATOM     27  C   UNL     1       6.433   3.991  14.318  0.00  0.00    +0.000 A 
ATOM     28  N   UNL     1       6.452   3.503  13.078  0.00  0.00    +0.000 N 
ATOM     29  N   UNL     1       5.531   3.829  15.257  0.00  0.00    +0.000 NA
ATOM     30  H   UNL     1       7.036   3.996  12.414  0.00  0.00    +0.000 HD
ATOM     31  H   UNL     1       5.558   3.209  12.701  0.00  0.00    +0.000 HD
ENDBRANCH  21  24
ENDBRANCH   6  20
TORSDOF 7
ENDMDL
MODEL 8
REMARK VINA RESULT:      -7.6      3.468      4.448
REMARK  Name = 
REMARK  9 active torsions:
REMARK  status: ('A' for Active; 'I' for Inactive)
REMARK    1  A    between atoms: C_1  and  N_2
REMARK    2  A    between atoms: N_2  and  C_3
REMARK    3  A    between atoms: N_2  and  C_4
REMARK    4  A    between atoms: C_4  and  C_5
REMARK    5  A    between atoms: C_5  and  O_6
REMARK    6  A    between atoms: O_6  and  C_7
REMARK    7  A    between atoms: C_10  and  C_11
REMARK    8  A    between atoms: C_16  and  N_17
REMARK    9  A    between atoms: C_18  and  C_20
REMARK                            x       y       z     vdW  Elec       q    Type
REMARK                         _______ _______ _______ _____ _____    ______ ____
ROOT
ATOM      1  C   UNL     1       1.908   6.768  20.126  0.00  0.00    +0.000 A 
ATOM      2  C   UNL     1       1.644   5.660  20.954  0.00  0.00    +0.000 A 
ATOM      3  C   UNL     1       2.146   4.387  20.662  0.00  0.00    +0.000 A 
ATOM      4  C   UNL     1       2.907   4.188  19.510  0.00  0.00    +0.000 A 
ATOM      5 CL   UNL     1       3.529   2.609  19.197  0.00  0.00    +0.000 Cl
ATOM      6  C   UNL     1       3.220   5.273  18.683  0.00  0.00    +0.000 A 
ATOM      7  C   UNL     1       2.716   6.545  18.998  0.00  0.00    +0.000 A 
ENDROOT
BRANCH   1  11
ATOM      8  C   UNL     1       0.466  10.716  21.148  0.00  0.00    +0.000 A 
ATOM      9  C   UNL     1       0.591   9.715  22.110  0.00  0.00    +0.000 A 
ATOM     10  C   UNL     1       1.054   8.445  21.770  0.00  0.00    +0.000 A 
ATOM     11  C   UNL     1       1.395   8.118  20.450  0.00  0.00    +0.000 A 
ATOM     12  C   UNL     1       1.244   9.131  19.483  0.00  0.00    +0.000 A 
ATOM     13  C   UNL     1       0.792  10.416  19.828  0.00  0.00    +0.000 A 
BRANCH   8  14
ATOM     14  O   UNL     1       0.045  12.002  21.401  0.00  0.00    +0.000 OA
BRANCH  14  15
ATOM     15  C   UNL     1      -0.764  12.115  22.578  0.00  0.00    +0.000 C 
BRANCH  15  16
ATOM     16  C   UNL     1      -2.212  12.494  22.255  0.00  0.00    +0.000 C 
BRANCH  16  18
ATOM     17  C   UNL     1      -3.717  13.107  24.039  0.00  0.00    +0.000 C 
ATOM     18  N   UNL     1      -2.703  13.601  23.108  0.00  0.00    +0.000 NA
ATOM     19  C   UNL     1      -1.627  14.263  23.851  0.00  0.00    +0.000 C 
ENDBRANCH  16  18
ENDBRANCH  15  16
ENDBRANCH  14  15
ENDBRANCH   8  14
ENDBRANCH   1  11
BRANCH   6  20
ATOM     20  N   UNL     1       4.029   5.089  17.538  0.00  0.00    +0.000 N 
ATOM     21  C   UNL     1       5.404   5.137  17.594  0.00  0.00    +0.000 C 
ATOM     22  O   UNL     1       6.064   5.324  18.615  0.00  0.00    +0.000 OA
ATOM     23  H   UNL     1       3.639   4.581  16.752  0.00  0.00    +0.000 HD
BRANCH  21  24
ATOM     24  C   UNL     1       6.061   4.882  16.322  0.00  0.00    +0.000 A 
ATOM     25  C   UNL     1       7.179   5.540  15.865  0.00  0.00    +0.000 A 
ATOM     26  O   UNL     1       7.460   5.080  14.617  0.00  0.00    +0.000 OA
ATOM     27  C   UNL     1       6.493   4.151  14.384  0.00  0.00    +0.000 A 
ATOM     28  N   UNL     1       6.515   3.587  13.177  0.00  0.00    +0.000 N 
ATOM     29  N   UNL     1       5.642   3.969  15.367  0.00  0.00    +0.000 NA
ATOM     30  H   UNL     1       7.027   4.088  12.461  0.00  0.00    +0.000 HD
ATOM     31  H   UNL     1       5.640   3.189  12.855  0.00  0.00    +0.000 HD
ENDBRANCH  21  24
ENDBRANCH   6  20
TORSDOF 7
ENDMDL
MODEL 9
REMARK VINA RESULT:      -7.6      4.101      5.650
REMARK  Name = 
REMARK  9 active torsions:
REMARK  status: ('A' for Active; 'I' for Inactive)
REMARK    1  A    between atoms: C_1  and  N_2
REMARK    2  A    between atoms: N_2  and  C_3
REMARK    3  A    between atoms: N_2  and  C_4
REMARK    4  A    between atoms: C_4  and  C_5
REMARK    5  A    between atoms: C_5  and  O_6
REMARK    6  A    between atoms: O_6  and  C_7
REMARK    7  A    between atoms: C_10  and  C_11
REMARK    8  A    between atoms: C_16  and  N_17
REMARK    9  A    between atoms: C_18  and  C_20
REMARK                            x       y       z     vdW  Elec       q    Type
REMARK                         _______ _______ _______ _____ _____    ______ ____
ROOT
ATOM      1  C   UNL     1       1.973   6.721  19.977  0.00  0.00    +0.000 A 
ATOM      2  C   UNL     1       1.687   5.569  20.734  0.00  0.00    +0.000 A 
ATOM      3  C   UNL     1       2.148   4.305  20.352  0.00  0.00    +0.000 A 
ATOM      4  C   UNL     1       2.888   4.161  19.179  0.00  0.00    +0.000 A 
ATOM      5 CL   UNL     1       3.461   2.589  18.753  0.00  0.00    +0.000 Cl
ATOM      6  C   UNL     1       3.222   5.288  18.420  0.00  0.00    +0.000 A 
ATOM      7  C   UNL     1       2.760   6.550  18.824  0.00  0.00    +0.000 A 
ENDROOT
BRANCH   1  11
ATOM      8  C   UNL     1       0.662  10.634  21.274  0.00  0.00    +0.000 A 
ATOM      9  C   UNL     1       0.829   9.586  22.178  0.00  0.00    +0.000 A 
ATOM     10  C   UNL     1       1.249   8.327  21.749  0.00  0.00    +0.000 A 
ATOM     11  C   UNL     1       1.503   8.061  20.397  0.00  0.00    +0.000 A 
ATOM     12  C   UNL     1       1.310   9.122  19.490  0.00  0.00    +0.000 A 
ATOM     13  C   UNL     1       0.902  10.394  19.924  0.00  0.00    +0.000 A 
BRANCH   8  14
ATOM     14  O   UNL     1       0.279  11.912  21.614  0.00  0.00    +0.000 OA
BRANCH  14  15
ATOM     15  C   UNL     1       0.482  12.865  20.563  0.00  0.00    +0.000 C 
BRANCH  15  16
ATOM     16  C   UNL     1       1.280  14.085  21.030  0.00  0.00    +0.000 C 
BRANCH  16  18
ATOM     17  C   UNL     1       2.760  13.595  19.188  0.00  0.00    +0.000 C 
ATOM     18  N   UNL     1       2.690  14.035  20.581  0.00  0.00    +0.000 NA
ATOM     19  C   UNL     1       3.378  15.321  20.730  0.00  0.00    +0.000 C 
ENDBRANCH  16  18
ENDBRANCH  15  16
ENDBRANCH  14  15
ENDBRANCH   8  14
ENDBRANCH   1  11
BRANCH   6  20
ATOM     20  N   UNL     1       4.010   5.158  17.254  0.00  0.00    +0.000 N 
ATOM     21  C   UNL     1       5.388   5.163  17.292  0.00  0.00    +0.000 C 
ATOM     22  O   UNL     1       6.065   5.263  18.313  0.00  0.00    +0.000 OA
ATOM     23  H   UNL     1       3.595   4.714  16.442  0.00  0.00    +0.000 HD
BRANCH  21  24
ATOM     24  C   UNL     1       6.020   4.974  15.997  0.00  0.00    +0.000 A 
ATOM     25  C   UNL     1       5.764   3.929  15.139  0.00  0.00    +0.000 A 
ATOM     26  O   UNL     1       6.588   4.052  14.065  0.00  0.00    +0.000 OA
ATOM     27  C   UNL     1       7.301   5.182  14.326  0.00  0.00    +0.000 A 
ATOM     28  N   UNL     1       8.239   5.490  13.430  0.00  0.00    +0.000 N 
ATOM     29  N   UNL     1       6.996   5.790  15.448  0.00  0.00    +0.000 NA
ATOM     30  H   UNL     1       8.540   4.737  12.825  0.00  0.00    +0.000 HD
ATOM     31  H   UNL     1       8.994   6.079  13.762  0.00  0.00    +0.000 HD
ENDBRANCH  21  24
ENDBRANCH   6  20
TORSDOF 7
ENDMDL
