MODEL 1
REMARK VINA RESULT:      -8.4      0.000      0.000
REMARK  Name = 
REMARK  14 active torsions:
REMARK  status: ('A' for Active; 'I' for Inactive)
REMARK    1  A    between atoms: C_1  and  C_2
REMARK    2  A    between atoms: C_4  and  N_5
REMARK    3  A    between atoms: N_5  and  C_6
REMARK    4  A    between atoms: C_13  and  N_14
REMARK    5  A    between atoms: N_14  and  C_15
REMARK    6  A    between atoms: N_14  and  C_16
REMARK    7  A    between atoms: C_21  and  O_22
REMARK    8  A    between atoms: O_22  and  C_23
REMARK    9  A    between atoms: C_26  and  C_27
REMARK   10  A    between atoms: N_29  and  C_30
REMARK   11  A    between atoms: C_30  and  C_31
REMARK   12  A    between atoms: C_31  and  C_32
REMARK   13  A    between atoms: C_31  and  C_33
REMARK   14  A    between atoms: C_31  and  C_34
REMARK                            x       y       z     vdW  Elec       q    Type
REMARK                         _______ _______ _______ _____ _____    ______ ____
ROOT
ATOM      1  C   UNL     1       2.005   9.771  17.529  0.00  0.00    +0.000 C 
ATOM      2  C   UNL     1       1.629   9.380  18.931  0.00  0.00    +0.000 A 
ATOM      3  C   UNL     1       1.959   8.054  19.309  0.00  0.00    +0.000 A 
ATOM      4  C   UNL     1       1.702   7.549  20.584  0.00  0.00    +0.000 A 
ATOM      5  C   UNL     1       1.024   8.374  21.481  0.00  0.00    +0.000 A 
ATOM      6  C   UNL     1       0.646   9.648  21.116  0.00  0.00    +0.000 A 
ATOM      7  C   UNL     1       0.976  10.216  19.870  0.00  0.00    +0.000 A 
ENDROOT
BRANCH   4   8
ATOM      8  N   UNL     1       2.089   6.255  20.938  0.00  0.00    +0.000 N 
ATOM      9  H   UNL     1       2.694   6.182  21.737  0.00  0.00    +0.000 HD
BRANCH   8  10
ATOM     10  C   UNL     1       1.881   5.052  20.232  0.00  0.00    +0.000 A 
ATOM     11  N   UNL     1       0.797   4.311  20.542  0.00  0.00    +0.000 NA
ATOM     12  C   UNL     1       0.672   3.138  19.920  0.00  0.00    +0.000 A 
ATOM     13  N   UNL     1       1.531   2.615  19.040  0.00  0.00    +0.000 NA
ATOM     14  C   UNL     1       2.617   3.358  18.752  0.00  0.00    +0.000 A 
ATOM     15  C   UNL     1       3.598   2.911  17.895  0.00  0.00    +0.000 A 
ATOM     16  N   UNL     1       4.730   3.590  17.550  0.00  0.00    +0.000 NA
ATOM     17  C   UNL     1       4.949   4.807  18.080  0.00  0.00    +0.000 A 
ATOM     18  C   UNL     1       4.011   5.326  18.965  0.00  0.00    +0.000 A 
ATOM     19  C   UNL     1       2.837   4.609  19.310  0.00  0.00    +0.000 A 
BRANCH  17  20
ATOM     20  N   UNL     1       6.098   5.489  17.738  0.00  0.00    +0.000 N 
ATOM     21  C   UNL     1       7.370   4.776  17.692  0.00  0.00    +0.000 C 
ATOM     22  C   UNL     1       6.153   6.900  17.387  0.00  0.00    +0.000 C 
ENDBRANCH  17  20
ENDBRANCH   8  10
ENDBRANCH   4   8
BRANCH   7  23
ATOM     23  O   UNL     1       0.646  11.545  19.620  0.00  0.00    +0.000 OA
BRANCH  23  24
ATOM     24  C   UNL     1      -0.691  11.938  19.817  0.00  0.00    +0.000 A 
ATOM     25  C   UNL     1      -1.100  12.595  20.985  0.00  0.00    +0.000 A 
ATOM     26  C   UNL     1      -2.455  12.751  21.307  0.00  0.00    +0.000 A 
ATOM     27  C   UNL     1      -3.438  12.409  20.380  0.00  0.00    +0.000 A 
ATOM     28  C   UNL     1      -3.031  11.891  19.137  0.00  0.00    +0.000 A 
ATOM     29  C   UNL     1      -1.668  11.629  18.866  0.00  0.00    +0.000 A 
BRANCH  27  30
ATOM     30  C   UNL     1      -4.905  12.589  20.644  0.00  0.00    +0.000 C 
ATOM     31  O   UNL     1      -5.712  11.932  20.023  0.00  0.00    +0.000 OA
ATOM     32  N   UNL     1      -5.258  13.497  21.644  0.00  0.00    +0.000 N 
ATOM     33  H   UNL     1      -4.546  13.998  22.143  0.00  0.00    +0.000 HD
BRANCH  32  34
ATOM     34  C   UNL     1      -6.649  13.721  22.025  0.00  0.00    +0.000 C 
BRANCH  34  35
ATOM     35  C   UNL     1      -7.040  13.048  23.373  0.00  0.00    +0.000 C 
ATOM     36  C   UNL     1      -7.860  14.012  24.248  0.00  0.00    +0.000 C 
ATOM     37  C   UNL     1      -7.877  11.777  23.105  0.00  0.00    +0.000 C 
ATOM     38  C   UNL     1      -5.774  12.636  24.141  0.00  0.00    +0.000 C 
ENDBRANCH  34  35
ENDBRANCH  32  34
ENDBRANCH  27  30
ENDBRANCH  23  24
ENDBRANCH   7  23
TORSDOF 8
ENDMDL
MODEL 2
REMARK VINA RESULT:      -8.3      0.974      1.536
REMARK  Name = 
REMARK  14 active torsions:
REMARK  status: ('A' for Active; 'I' for Inactive)
REMARK    1  A    between atoms: C_1  and  C_2
REMARK    2  A    between atoms: C_4  and  N_5
REMARK    3  A    between atoms: N_5  and  C_6
REMARK    4  A    between atoms: C_13  and  N_14
REMARK    5  A    between atoms: N_14  and  C_15
REMARK    6  A    between atoms: N_14  and  C_16
REMARK    7  A    between atoms: C_21  and  O_22
REMARK    8  A    between atoms: O_22  and  C_23
REMARK    9  A    between atoms: C_26  and  C_27
REMARK   10  A    between atoms: N_29  and  C_30
REMARK   11  A    between atoms: C_30  and  C_31
REMARK   12  A    between atoms: C_31  and  C_32
REMARK   13  A    between atoms: C_31  and  C_33
REMARK   14  A    between atoms: C_31  and  C_34
REMARK                            x       y       z     vdW  Elec       q    Type
REMARK                         _______ _______ _______ _____ _____    ______ ____
ROOT
ATOM      1  C   UNL     1       0.510  10.599  21.393  0.00  0.00    +0.000 C 
ATOM      2  C   UNL     1       1.082   9.713  20.322  0.00  0.00    +0.000 A 
ATOM      3  C   UNL     1       1.538   8.442  20.755  0.00  0.00    +0.000 A 
ATOM      4  C   UNL     1       2.068   7.495  19.878  0.00  0.00    +0.000 A 
ATOM      5  C   UNL     1       2.215   7.862  18.541  0.00  0.00    +0.000 A 
ATOM      6  C   UNL     1       1.827   9.112  18.110  0.00  0.00    +0.000 A 
ATOM      7  C   UNL     1       1.204  10.053  18.953  0.00  0.00    +0.000 A 
ENDROOT
BRANCH   4   8
ATOM      8  N   UNL     1       2.459   6.233  20.332  0.00  0.00    +0.000 N 
ATOM      9  H   UNL     1       3.209   6.221  21.002  0.00  0.00    +0.000 HD
BRANCH   8  10
ATOM     10  C   UNL     1       2.060   4.967  19.857  0.00  0.00    +0.000 A 
ATOM     11  N   UNL     1       0.988   4.380  20.431  0.00  0.00    +0.000 NA
ATOM     12  C   UNL     1       0.686   3.148  20.022  0.00  0.00    +0.000 A 
ATOM     13  N   UNL     1       1.359   2.428  19.118  0.00  0.00    +0.000 NA
ATOM     14  C   UNL     1       2.435   3.019  18.565  0.00  0.00    +0.000 A 
ATOM     15  C   UNL     1       3.236   2.367  17.655  0.00  0.00    +0.000 A 
ATOM     16  N   UNL     1       4.345   2.882  17.050  0.00  0.00    +0.000 NA
ATOM     17  C   UNL     1       4.729   4.137  17.348  0.00  0.00    +0.000 A 
ATOM     18  C   UNL     1       3.979   4.860  18.269  0.00  0.00    +0.000 A 
ATOM     19  C   UNL     1       2.827   4.311  18.886  0.00  0.00    +0.000 A 
BRANCH  17  20
ATOM     20  N   UNL     1       5.856   4.655  16.744  0.00  0.00    +0.000 N 
ATOM     21  C   UNL     1       5.749   5.253  15.418  0.00  0.00    +0.000 C 
ATOM     22  C   UNL     1       7.181   4.678  17.342  0.00  0.00    +0.000 C 
ENDBRANCH  17  20
ENDBRANCH   8  10
ENDBRANCH   4   8
BRANCH   7  23
ATOM     23  O   UNL     1       0.749  11.253  18.414  0.00  0.00    +0.000 OA
BRANCH  23  24
ATOM     24  C   UNL     1      -0.587  11.620  18.660  0.00  0.00    +0.000 A 
ATOM     25  C   UNL     1      -0.912  12.707  19.482  0.00  0.00    +0.000 A 
ATOM     26  C   UNL     1      -2.218  12.917  19.945  0.00  0.00    +0.000 A 
ATOM     27  C   UNL     1      -3.268  12.143  19.451  0.00  0.00    +0.000 A 
ATOM     28  C   UNL     1      -2.973  11.146  18.503  0.00  0.00    +0.000 A 
ATOM     29  C   UNL     1      -1.637  10.866  18.130  0.00  0.00    +0.000 A 
BRANCH  27  30
ATOM     30  C   UNL     1      -4.694  12.342  19.872  0.00  0.00    +0.000 C 
ATOM     31  O   UNL     1      -5.590  11.909  19.180  0.00  0.00    +0.000 OA
ATOM     32  N   UNL     1      -4.908  12.996  21.086  0.00  0.00    +0.000 N 
ATOM     33  H   UNL     1      -4.127  13.315  21.631  0.00  0.00    +0.000 HD
BRANCH  32  34
ATOM     34  C   UNL     1      -6.248  13.205  21.625  0.00  0.00    +0.000 C 
BRANCH  34  35
ATOM     35  C   UNL     1      -6.270  13.440  23.164  0.00  0.00    +0.000 C 
ATOM     36  C   UNL     1      -6.444  14.935  23.486  0.00  0.00    +0.000 C 
ATOM     37  C   UNL     1      -7.433  12.650  23.802  0.00  0.00    +0.000 C 
ATOM     38  C   UNL     1      -4.954  12.948  23.788  0.00  0.00    +0.000 C 
ENDBRANCH  34  35
ENDBRANCH  32  34
ENDBRANCH  27  30
ENDBRANCH  23  24
ENDBRANCH   7  23
TORSDOF 8
ENDMDL
MODEL 3
REMARK VINA RESULT:      -8.1      3.969      6.648
REMARK  Name = 
REMARK  14 active torsions:
REMARK  status: ('A' for Active; 'I' for Inactive)
REMARK    1  A    between atoms: C_1  and  C_2
REMARK    2  A    between atoms: C_4  and  N_5
REMARK    3  A    between atoms: N_5  and  C_6
REMARK    4  A    between atoms: C_13  and  N_14
REMARK    5  A    between atoms: N_14  and  C_15
REMARK    6  A    between atoms: N_14  and  C_16
REMARK    7  A    between atoms: C_21  and  O_22
REMARK    8  A    between atoms: O_22  and  C_23
REMARK    9  A    between atoms: C_26  and  C_27
REMARK   10  A    between atoms: N_29  and  C_30
REMARK   11  A    between atoms: C_30  and  C_31
REMARK   12  A    between atoms: C_31  and  C_32
REMARK   13  A    between atoms: C_31  and  C_33
REMARK   14  A    between atoms: C_31  and  C_34
REMARK                            x       y       z     vdW  Elec       q    Type
REMARK                         _______ _______ _______ _____ _____    ______ ____
ROOT
ATOM      1  C   UNL     1       1.803  10.074  17.797  0.00  0.00    +0.000 C 
ATOM      2  C   UNL     1       1.268   9.507  19.082  0.00  0.00    +0.000 A 
ATOM      3  C   UNL     1       1.804   8.253  19.471  0.00  0.00    +0.000 A 
ATOM      4  C   UNL     1       1.431   7.611  20.652  0.00  0.00    +0.000 A 
ATOM      5  C   UNL     1       0.435   8.206  21.426  0.00  0.00    +0.000 A 
ATOM      6  C   UNL     1      -0.137   9.398  21.037  0.00  0.00    +0.000 A 
ATOM      7  C   UNL     1       0.286  10.115  19.902  0.00  0.00    +0.000 A 
ENDROOT
BRANCH   4   8
ATOM      8  N   UNL     1       2.018   6.401  21.030  0.00  0.00    +0.000 N 
ATOM      9  H   UNL     1       2.634   6.443  21.824  0.00  0.00    +0.000 HD
BRANCH   8  10
ATOM     10  C   UNL     1       1.997   5.164  20.353  0.00  0.00    +0.000 A 
ATOM     11  N   UNL     1       0.947   4.343  20.562  0.00  0.00    +0.000 NA
ATOM     12  C   UNL     1       0.995   3.146  19.977  0.00  0.00    +0.000 A 
ATOM     13  N   UNL     1       1.995   2.672  19.226  0.00  0.00    +0.000 NA
ATOM     14  C   UNL     1       3.044   3.497  19.041  0.00  0.00    +0.000 A 
ATOM     15  C   UNL     1       4.155   3.110  18.325  0.00  0.00    +0.000 A 
ATOM     16  N   UNL     1       5.261   3.872  18.090  0.00  0.00    +0.000 NA
ATOM     17  C   UNL     1       5.314   5.120  18.593  0.00  0.00    +0.000 A 
ATOM     18  C   UNL     1       4.236   5.582  19.339  0.00  0.00    +0.000 A 
ATOM     19  C   UNL     1       3.091   4.778  19.570  0.00  0.00    +0.000 A 
BRANCH  17  20
ATOM     20  N   UNL     1       6.437   5.887  18.364  0.00  0.00    +0.000 N 
ATOM     21  C   UNL     1       7.587   5.762  19.253  0.00  0.00    +0.000 C 
ATOM     22  C   UNL     1       6.590   6.826  17.264  0.00  0.00    +0.000 C 
ENDBRANCH  17  20
ENDBRANCH   8  10
ENDBRANCH   4   8
BRANCH   7  23
ATOM     23  O   UNL     1      -0.274  11.362  19.637  0.00  0.00    +0.000 OA
BRANCH  23  24
ATOM     24  C   UNL     1       0.559  12.491  19.739  0.00  0.00    +0.000 A 
ATOM     25  C   UNL     1       0.598  13.471  18.737  0.00  0.00    +0.000 A 
ATOM     26  C   UNL     1       1.603  14.447  18.699  0.00  0.00    +0.000 A 
ATOM     27  C   UNL     1       2.494  14.576  19.763  0.00  0.00    +0.000 A 
ATOM     28  C   UNL     1       2.365  13.693  20.851  0.00  0.00    +0.000 A 
ATOM     29  C   UNL     1       1.423  12.638  20.828  0.00  0.00    +0.000 A 
BRANCH  27  30
ATOM     30  C   UNL     1       3.566  15.625  19.806  0.00  0.00    +0.000 C 
ATOM     31  O   UNL     1       3.635  16.375  20.756  0.00  0.00    +0.000 OA
ATOM     32  N   UNL     1       4.467  15.649  18.740  0.00  0.00    +0.000 N 
ATOM     33  H   UNL     1       4.376  14.988  17.989  0.00  0.00    +0.000 HD
BRANCH  32  34
ATOM     34  C   UNL     1       5.581  16.591  18.693  0.00  0.00    +0.000 C 
BRANCH  34  35
ATOM     35  C   UNL     1       6.978  15.902  18.717  0.00  0.00    +0.000 C 
ATOM     36  C   UNL     1       7.018  14.715  17.739  0.00  0.00    +0.000 C 
ATOM     37  C   UNL     1       8.073  16.917  18.322  0.00  0.00    +0.000 C 
ATOM     38  C   UNL     1       7.286  15.389  20.133  0.00  0.00    +0.000 C 
ENDBRANCH  34  35
ENDBRANCH  32  34
ENDBRANCH  27  30
ENDBRANCH  23  24
ENDBRANCH   7  23
TORSDOF 8
ENDMDL
MODEL 4
REMARK VINA RESULT:      -8.1      3.944      6.606
REMARK  Name = 
REMARK  14 active torsions:
REMARK  status: ('A' for Active; 'I' for Inactive)
REMARK    1  A    between atoms: C_1  and  C_2
REMARK    2  A    between atoms: C_4  and  N_5
REMARK    3  A    between atoms: N_5  and  C_6
REMARK    4  A    between atoms: C_13  and  N_14
REMARK    5  A    between atoms: N_14  and  C_15
REMARK    6  A    between atoms: N_14  and  C_16
REMARK    7  A    between atoms: C_21  and  O_22
REMARK    8  A    between atoms: O_22  and  C_23
REMARK    9  A    between atoms: C_26  and  C_27
REMARK   10  A    between atoms: N_29  and  C_30
REMARK   11  A    between atoms: C_30  and  C_31
REMARK   12  A    between atoms: C_31  and  C_32
REMARK   13  A    between atoms: C_31  and  C_33
REMARK   14  A    between atoms: C_31  and  C_34
REMARK                            x       y       z     vdW  Elec       q    Type
REMARK                         _______ _______ _______ _____ _____    ______ ____
ROOT
ATOM      1  C   UNL     1      -0.337   9.663  22.525  0.00  0.00    +0.000 C 
ATOM      2  C   UNL     1       0.407   9.288  21.273  0.00  0.00    +0.000 A 
ATOM      3  C   UNL     1       1.161   8.089  21.342  0.00  0.00    +0.000 A 
ATOM      4  C   UNL     1       1.882   7.591  20.257  0.00  0.00    +0.000 A 
ATOM      5  C   UNL     1       1.909   8.358  19.092  0.00  0.00    +0.000 A 
ATOM      6  C   UNL     1       1.227   9.553  19.023  0.00  0.00    +0.000 A 
ATOM      7  C   UNL     1       0.416  10.033  20.069  0.00  0.00    +0.000 A 
ENDROOT
BRANCH   4   8
ATOM      8  N   UNL     1       2.570   6.379  20.344  0.00  0.00    +0.000 N 
ATOM      9  H   UNL     1       3.535   6.443  20.621  0.00  0.00    +0.000 HD
BRANCH   8  10
ATOM     10  C   UNL     1       2.146   5.097  19.940  0.00  0.00    +0.000 A 
ATOM     11  N   UNL     1       1.120   4.526  20.606  0.00  0.00    +0.000 NA
ATOM     12  C   UNL     1       0.797   3.280  20.259  0.00  0.00    +0.000 A 
ATOM     13  N   UNL     1       1.410   2.533  19.335  0.00  0.00    +0.000 NA
ATOM     14  C   UNL     1       2.442   3.109  18.690  0.00  0.00    +0.000 A 
ATOM     15  C   UNL     1       3.182   2.429  17.748  0.00  0.00    +0.000 A 
ATOM     16  N   UNL     1       4.243   2.928  17.051  0.00  0.00    +0.000 NA
ATOM     17  C   UNL     1       4.640   4.193  17.281  0.00  0.00    +0.000 A 
ATOM     18  C   UNL     1       3.952   4.944  18.227  0.00  0.00    +0.000 A 
ATOM     19  C   UNL     1       2.848   4.412  18.940  0.00  0.00    +0.000 A 
BRANCH  17  20
ATOM     20  N   UNL     1       5.719   4.694  16.583  0.00  0.00    +0.000 N 
ATOM     21  C   UNL     1       6.960   4.987  17.292  0.00  0.00    +0.000 C 
ATOM     22  C   UNL     1       5.737   4.944  15.150  0.00  0.00    +0.000 C 
ENDBRANCH  17  20
ENDBRANCH   8  10
ENDBRANCH   4   8
BRANCH   7  23
ATOM     23  O   UNL     1      -0.322  11.198  19.878  0.00  0.00    +0.000 OA
BRANCH  23  24
ATOM     24  C   UNL     1       0.376  12.421  19.853  0.00  0.00    +0.000 A 
ATOM     25  C   UNL     1       0.193  13.352  18.823  0.00  0.00    +0.000 A 
ATOM     26  C   UNL     1       1.063  14.436  18.645  0.00  0.00    +0.000 A 
ATOM     27  C   UNL     1       2.037  14.715  19.602  0.00  0.00    +0.000 A 
ATOM     28  C   UNL     1       2.129  13.872  20.725  0.00  0.00    +0.000 A 
ATOM     29  C   UNL     1       1.323  12.715  20.838  0.00  0.00    +0.000 A 
BRANCH  27  30
ATOM     30  C   UNL     1       2.973  15.883  19.495  0.00  0.00    +0.000 C 
ATOM     31  O   UNL     1       2.668  16.945  19.993  0.00  0.00    +0.000 OA
ATOM     32  N   UNL     1       4.189  15.659  18.847  0.00  0.00    +0.000 N 
ATOM     33  H   UNL     1       4.401  14.751  18.473  0.00  0.00    +0.000 HD
BRANCH  32  34
ATOM     34  C   UNL     1       5.202  16.703  18.724  0.00  0.00    +0.000 C 
BRANCH  34  35
ATOM     35  C   UNL     1       6.659  16.175  18.867  0.00  0.00    +0.000 C 
ATOM     36  C   UNL     1       6.922  15.021  17.883  0.00  0.00    +0.000 C 
ATOM     37  C   UNL     1       7.664  17.314  18.586  0.00  0.00    +0.000 C 
ATOM     38  C   UNL     1       6.896  15.668  20.300  0.00  0.00    +0.000 C 
ENDBRANCH  34  35
ENDBRANCH  32  34
ENDBRANCH  27  30
ENDBRANCH  23  24
ENDBRANCH   7  23
TORSDOF 8
ENDMDL
MODEL 5
REMARK VINA RESULT:      -8.1      4.053      7.029
REMARK  Name = 
REMARK  14 active torsions:
REMARK  status: ('A' for Active; 'I' for Inactive)
REMARK    1  A    between atoms: C_1  and  C_2
REMARK    2  A    between atoms: C_4  and  N_5
REMARK    3  A    between atoms: N_5  and  C_6
REMARK    4  A    between atoms: C_13  and  N_14
REMARK    5  A    between atoms: N_14  and  C_15
REMARK    6  A    between atoms: N_14  and  C_16
REMARK    7  A    between atoms: C_21  and  O_22
REMARK    8  A    between atoms: O_22  and  C_23
REMARK    9  A    between atoms: C_26  and  C_27
REMARK   10  A    between atoms: N_29  and  C_30
REMARK   11  A    between atoms: C_30  and  C_31
REMARK   12  A    between atoms: C_31  and  C_32
REMARK   13  A    between atoms: C_31  and  C_33
REMARK   14  A    between atoms: C_31  and  C_34
REMARK                            x       y       z     vdW  Elec       q    Type
REMARK                         _______ _______ _______ _____ _____    ______ ____
ROOT
ATOM      1  C   UNL     1      -0.153  10.186  22.270  0.00  0.00    +0.000 C 
ATOM      2  C   UNL     1       0.560   9.530  21.120  0.00  0.00    +0.000 A 
ATOM      3  C   UNL     1       1.118   8.255  21.391  0.00  0.00    +0.000 A 
ATOM      4  C   UNL     1       1.785   7.505  20.421  0.00  0.00    +0.000 A 
ATOM      5  C   UNL     1       1.964   8.085  19.166  0.00  0.00    +0.000 A 
ATOM      6  C   UNL     1       1.476   9.345  18.899  0.00  0.00    +0.000 A 
ATOM      7  C   UNL     1       0.718  10.085  19.827  0.00  0.00    +0.000 A 
ENDROOT
BRANCH   4   8
ATOM      8  N   UNL     1       2.276   6.230  20.709  0.00  0.00    +0.000 N 
ATOM      9  H   UNL     1       2.969   6.181  21.436  0.00  0.00    +0.000 HD
BRANCH   8  10
ATOM     10  C   UNL     1       2.055   5.025  20.009  0.00  0.00    +0.000 A 
ATOM     11  N   UNL     1       0.947   4.314  20.300  0.00  0.00    +0.000 NA
ATOM     12  C   UNL     1       0.808   3.138  19.687  0.00  0.00    +0.000 A 
ATOM     13  N   UNL     1       1.675   2.586  18.832  0.00  0.00    +0.000 NA
ATOM     14  C   UNL     1       2.785   3.300  18.563  0.00  0.00    +0.000 A 
ATOM     15  C   UNL     1       3.774   2.821  17.734  0.00  0.00    +0.000 A 
ATOM     16  N   UNL     1       4.930   3.469  17.409  0.00  0.00    +0.000 NA
ATOM     17  C   UNL     1       5.166   4.686  17.932  0.00  0.00    +0.000 A 
ATOM     18  C   UNL     1       4.220   5.236  18.790  0.00  0.00    +0.000 A 
ATOM     19  C   UNL     1       3.022   4.551  19.114  0.00  0.00    +0.000 A 
BRANCH  17  20
ATOM     20  N   UNL     1       6.339   5.337  17.612  0.00  0.00    +0.000 N 
ATOM     21  C   UNL     1       7.253   5.736  18.677  0.00  0.00    +0.000 C 
ATOM     22  C   UNL     1       6.771   5.652  16.259  0.00  0.00    +0.000 C 
ENDBRANCH  17  20
ENDBRANCH   8  10
ENDBRANCH   4   8
BRANCH   7  23
ATOM     23  O   UNL     1       0.175  11.307  19.442  0.00  0.00    +0.000 OA
BRANCH  23  24
ATOM     24  C   UNL     1       1.028  12.427  19.415  0.00  0.00    +0.000 A 
ATOM     25  C   UNL     1       1.564  12.916  18.217  0.00  0.00    +0.000 A 
ATOM     26  C   UNL     1       2.610  13.848  18.203  0.00  0.00    +0.000 A 
ATOM     27  C   UNL     1       3.027  14.449  19.390  0.00  0.00    +0.000 A 
ATOM     28  C   UNL     1       2.386  14.077  20.586  0.00  0.00    +0.000 A 
ATOM     29  C   UNL     1       1.412  13.052  20.605  0.00  0.00    +0.000 A 
BRANCH  27  30
ATOM     30  C   UNL     1       4.112  15.484  19.442  0.00  0.00    +0.000 C 
ATOM     31  O   UNL     1       3.833  16.653  19.282  0.00  0.00    +0.000 OA
ATOM     32  N   UNL     1       5.403  15.032  19.718  0.00  0.00    +0.000 N 
ATOM     33  H   UNL     1       5.573  14.053  19.865  0.00  0.00    +0.000 HD
BRANCH  32  34
ATOM     34  C   UNL     1       6.531  15.949  19.843  0.00  0.00    +0.000 C 
BRANCH  34  35
ATOM     35  C   UNL     1       7.738  15.577  18.932  0.00  0.00    +0.000 C 
ATOM     36  C   UNL     1       8.715  14.647  19.673  0.00  0.00    +0.000 C 
ATOM     37  C   UNL     1       7.237  14.866  17.656  0.00  0.00    +0.000 C 
ATOM     38  C   UNL     1       8.489  16.851  18.510  0.00  0.00    +0.000 C 
ENDBRANCH  34  35
ENDBRANCH  32  34
ENDBRANCH  27  30
ENDBRANCH  23  24
ENDBRANCH   7  23
TORSDOF 8
ENDMDL
MODEL 6
REMARK VINA RESULT:      -8.1      4.150      6.958
REMARK  Name = 
REMARK  14 active torsions:
REMARK  status: ('A' for Active; 'I' for Inactive)
REMARK    1  A    between atoms: C_1  and  C_2
REMARK    2  A    between atoms: C_4  and  N_5
REMARK    3  A    between atoms: N_5  and  C_6
REMARK    4  A    between atoms: C_13  and  N_14
REMARK    5  A    between atoms: N_14  and  C_15
REMARK    6  A    between atoms: N_14  and  C_16
REMARK    7  A    between atoms: C_21  and  O_22
REMARK    8  A    between atoms: O_22  and  C_23
REMARK    9  A    between atoms: C_26  and  C_27
REMARK   10  A    between atoms: N_29  and  C_30
REMARK   11  A    between atoms: C_30  and  C_31
REMARK   12  A    between atoms: C_31  and  C_32
REMARK   13  A    between atoms: C_31  and  C_33
REMARK   14  A    between atoms: C_31  and  C_34
REMARK                            x       y       z     vdW  Elec       q    Type
REMARK                         _______ _______ _______ _____ _____    ______ ____
ROOT
ATOM      1  C   UNL     1       1.634   9.965  17.648  0.00  0.00    +0.000 C 
ATOM      2  C   UNL     1       1.339   9.434  19.024  0.00  0.00    +0.000 A 
ATOM      3  C   UNL     1       1.850   8.142  19.306  0.00  0.00    +0.000 A 
ATOM      4  C   UNL     1       1.687   7.523  20.546  0.00  0.00    +0.000 A 
ATOM      5  C   UNL     1       0.923   8.188  21.505  0.00  0.00    +0.000 A 
ATOM      6  C   UNL     1       0.372   9.421  21.231  0.00  0.00    +0.000 A 
ATOM      7  C   UNL     1       0.599  10.110  20.024  0.00  0.00    +0.000 A 
ENDROOT
BRANCH   4   8
ATOM      8  N   UNL     1       2.249   6.272  20.806  0.00  0.00    +0.000 N 
ATOM      9  H   UNL     1       2.990   6.257  21.485  0.00  0.00    +0.000 HD
BRANCH   8  10
ATOM     10  C   UNL     1       2.032   5.053  20.129  0.00  0.00    +0.000 A 
ATOM     11  N   UNL     1       0.959   4.313  20.478  0.00  0.00    +0.000 NA
ATOM     12  C   UNL     1       0.827   3.128  19.883  0.00  0.00    +0.000 A 
ATOM     13  N   UNL     1       1.671   2.591  18.995  0.00  0.00    +0.000 NA
ATOM     14  C   UNL     1       2.746   3.333  18.669  0.00  0.00    +0.000 A 
ATOM     15  C   UNL     1       3.710   2.874  17.800  0.00  0.00    +0.000 A 
ATOM     16  N   UNL     1       4.831   3.551  17.417  0.00  0.00    +0.000 NA
ATOM     17  C   UNL     1       5.055   4.780  17.917  0.00  0.00    +0.000 A 
ATOM     18  C   UNL     1       4.133   5.312  18.811  0.00  0.00    +0.000 A 
ATOM     19  C   UNL     1       2.971   4.596  19.196  0.00  0.00    +0.000 A 
BRANCH  17  20
ATOM     20  N   UNL     1       6.193   5.461  17.537  0.00  0.00    +0.000 N 
ATOM     21  C   UNL     1       7.466   4.751  17.470  0.00  0.00    +0.000 C 
ATOM     22  C   UNL     1       6.233   6.866  17.164  0.00  0.00    +0.000 C 
ENDBRANCH  17  20
ENDBRANCH   8  10
ENDBRANCH   4   8
BRANCH   7  23
ATOM     23  O   UNL     1       0.091  11.397  19.869  0.00  0.00    +0.000 OA
BRANCH  23  24
ATOM     24  C   UNL     1       1.009  12.453  19.721  0.00  0.00    +0.000 A 
ATOM     25  C   UNL     1       1.105  13.184  18.529  0.00  0.00    +0.000 A 
ATOM     26  C   UNL     1       2.180  14.047  18.278  0.00  0.00    +0.000 A 
ATOM     27  C   UNL     1       3.096  14.335  19.289  0.00  0.00    +0.000 A 
ATOM     28  C   UNL     1       2.919  13.724  20.544  0.00  0.00    +0.000 A 
ATOM     29  C   UNL     1       1.899  12.766  20.752  0.00  0.00    +0.000 A 
BRANCH  27  30
ATOM     30  C   UNL     1       4.245  15.282  19.100  0.00  0.00    +0.000 C 
ATOM     31  O   UNL     1       4.158  16.421  19.507  0.00  0.00    +0.000 OA
ATOM     32  N   UNL     1       5.390  14.770  18.488  0.00  0.00    +0.000 N 
ATOM     33  H   UNL     1       5.416  13.811  18.190  0.00  0.00    +0.000 HD
BRANCH  32  34
ATOM     34  C   UNL     1       6.589  15.580  18.295  0.00  0.00    +0.000 C 
BRANCH  34  35
ATOM     35  C   UNL     1       7.899  14.866  18.740  0.00  0.00    +0.000 C 
ATOM     36  C   UNL     1       7.834  14.484  20.229  0.00  0.00    +0.000 C 
ATOM     37  C   UNL     1       8.114  13.586  17.902  0.00  0.00    +0.000 C 
ATOM     38  C   UNL     1       9.104  15.795  18.518  0.00  0.00    +0.000 C 
ENDBRANCH  34  35
ENDBRANCH  32  34
ENDBRANCH  27  30
ENDBRANCH  23  24
ENDBRANCH   7  23
TORSDOF 8
ENDMDL
MODEL 7
REMARK VINA RESULT:      -8.0      1.458      1.877
REMARK  Name = 
REMARK  14 active torsions:
REMARK  status: ('A' for Active; 'I' for Inactive)
REMARK    1  A    between atoms: C_1  and  C_2
REMARK    2  A    between atoms: C_4  and  N_5
REMARK    3  A    between atoms: N_5  and  C_6
REMARK    4  A    between atoms: C_13  and  N_14
REMARK    5  A    between atoms: N_14  and  C_15
REMARK    6  A    between atoms: N_14  and  C_16
REMARK    7  A    between atoms: C_21  and  O_22
REMARK    8  A    between atoms: O_22  and  C_23
REMARK    9  A    between atoms: C_26  and  C_27
REMARK   10  A    between atoms: N_29  and  C_30
REMARK   11  A    between atoms: C_30  and  C_31
REMARK   12  A    between atoms: C_31  and  C_32
REMARK   13  A    between atoms: C_31  and  C_33
REMARK   14  A    between atoms: C_31  and  C_34
REMARK                            x       y       z     vdW  Elec       q    Type
REMARK                         _______ _______ _______ _____ _____    ______ ____
ROOT
ATOM      1  C   UNL     1       2.071   9.724  17.586  0.00  0.00    +0.000 C 
ATOM      2  C   UNL     1       1.663   9.255  18.955  0.00  0.00    +0.000 A 
ATOM      3  C   UNL     1       2.025   7.924  19.282  0.00  0.00    +0.000 A 
ATOM      4  C   UNL     1       1.744   7.351  20.522  0.00  0.00    +0.000 A 
ATOM      5  C   UNL     1       1.010   8.110  21.433  0.00  0.00    +0.000 A 
ATOM      6  C   UNL     1       0.601   9.387  21.115  0.00  0.00    +0.000 A 
ATOM      7  C   UNL     1       0.952  10.024  19.908  0.00  0.00    +0.000 A 
ENDROOT
BRANCH   4   8
ATOM      8  N   UNL     1       2.162   6.055  20.829  0.00  0.00    +0.000 N 
ATOM      9  H   UNL     1       2.801   5.972  21.601  0.00  0.00    +0.000 HD
BRANCH   8  10
ATOM     10  C   UNL     1       1.943   4.866  20.103  0.00  0.00    +0.000 A 
ATOM     11  N   UNL     1       0.848   4.134  20.396  0.00  0.00    +0.000 NA
ATOM     12  C   UNL     1       0.711   2.973  19.755  0.00  0.00    +0.000 A 
ATOM     13  N   UNL     1       1.568   2.453  18.870  0.00  0.00    +0.000 NA
ATOM     14  C   UNL     1       2.665   3.187  18.600  0.00  0.00    +0.000 A 
ATOM     15  C   UNL     1       3.644   2.741  17.740  0.00  0.00    +0.000 A 
ATOM     16  N   UNL     1       4.786   3.411  17.411  0.00  0.00    +0.000 NA
ATOM     17  C   UNL     1       5.018   4.617  17.961  0.00  0.00    +0.000 A 
ATOM     18  C   UNL     1       4.082   5.133  18.850  0.00  0.00    +0.000 A 
ATOM     19  C   UNL     1       2.898   4.426  19.178  0.00  0.00    +0.000 A 
BRANCH  17  20
ATOM     20  N   UNL     1       6.177   5.290  17.636  0.00  0.00    +0.000 N 
ATOM     21  C   UNL     1       6.112   6.703  17.281  0.00  0.00    +0.000 C 
ATOM     22  C   UNL     1       7.507   4.700  17.638  0.00  0.00    +0.000 C 
ENDBRANCH  17  20
ENDBRANCH   8  10
ENDBRANCH   4   8
BRANCH   7  23
ATOM     23  O   UNL     1       0.585  11.352  19.709  0.00  0.00    +0.000 OA
BRANCH  23  24
ATOM     24  C   UNL     1      -0.451  11.875  20.505  0.00  0.00    +0.000 A 
ATOM     25  C   UNL     1      -0.246  12.220  21.847  0.00  0.00    +0.000 A 
ATOM     26  C   UNL     1      -1.316  12.485  22.712  0.00  0.00    +0.000 A 
ATOM     27  C   UNL     1      -2.613  12.583  22.210  0.00  0.00    +0.000 A 
ATOM     28  C   UNL     1      -2.811  12.391  20.831  0.00  0.00    +0.000 A 
ATOM     29  C   UNL     1      -1.742  12.010  19.986  0.00  0.00    +0.000 A 
BRANCH  27  30
ATOM     30  C   UNL     1      -3.798  12.906  23.073  0.00  0.00    +0.000 C 
ATOM     31  O   UNL     1      -4.214  12.078  23.855  0.00  0.00    +0.000 OA
ATOM     32  N   UNL     1      -4.339  14.186  22.949  0.00  0.00    +0.000 N 
ATOM     33  H   UNL     1      -3.939  14.841  22.301  0.00  0.00    +0.000 HD
BRANCH  32  34
ATOM     34  C   UNL     1      -5.460  14.634  23.770  0.00  0.00    +0.000 C 
BRANCH  34  35
ATOM     35  C   UNL     1      -5.916  16.089  23.459  0.00  0.00    +0.000 C 
ATOM     36  C   UNL     1      -5.321  16.575  22.126  0.00  0.00    +0.000 C 
ATOM     37  C   UNL     1      -7.457  16.153  23.374  0.00  0.00    +0.000 C 
ATOM     38  C   UNL     1      -5.457  17.034  24.581  0.00  0.00    +0.000 C 
ENDBRANCH  34  35
ENDBRANCH  32  34
ENDBRANCH  27  30
ENDBRANCH  23  24
ENDBRANCH   7  23
TORSDOF 8
ENDMDL
MODEL 8
REMARK VINA RESULT:      -8.0      2.162     11.763
REMARK  Name = 
REMARK  14 active torsions:
REMARK  status: ('A' for Active; 'I' for Inactive)
REMARK    1  A    between atoms: C_1  and  C_2
REMARK    2  A    between atoms: C_4  and  N_5
REMARK    3  A    between atoms: N_5  and  C_6
REMARK    4  A    between atoms: C_13  and  N_14
REMARK    5  A    between atoms: N_14  and  C_15
REMARK    6  A    between atoms: N_14  and  C_16
REMARK    7  A    between atoms: C_21  and  O_22
REMARK    8  A    between atoms: O_22  and  C_23
REMARK    9  A    between atoms: C_26  and  C_27
REMARK   10  A    between atoms: N_29  and  C_30
REMARK   11  A    between atoms: C_30  and  C_31
REMARK   12  A    between atoms: C_31  and  C_32
REMARK   13  A    between atoms: C_31  and  C_33
REMARK   14  A    between atoms: C_31  and  C_34
REMARK                            x       y       z     vdW  Elec       q    Type
REMARK                         _______ _______ _______ _____ _____    ______ ____
ROOT
ATOM      1  C   UNL     1      -0.703  12.325  22.060  0.00  0.00    +0.000 C 
ATOM      2  C   UNL     1      -1.445  12.171  20.762  0.00  0.00    +0.000 A 
ATOM      3  C   UNL     1      -2.841  12.409  20.820  0.00  0.00    +0.000 A 
ATOM      4  C   UNL     1      -3.664  12.335  19.696  0.00  0.00    +0.000 A 
ATOM      5  C   UNL     1      -3.082  11.934  18.494  0.00  0.00    +0.000 A 
ATOM      6  C   UNL     1      -1.736  11.645  18.428  0.00  0.00    +0.000 A 
ATOM      7  C   UNL     1      -0.865  11.803  19.523  0.00  0.00    +0.000 A 
ENDROOT
BRANCH   4   8
ATOM      8  N   UNL     1      -5.027  12.628  19.780  0.00  0.00    +0.000 N 
ATOM      9  H   UNL     1      -5.367  13.319  19.134  0.00  0.00    +0.000 HD
BRANCH   8  10
ATOM     10  C   UNL     1      -5.957  12.210  20.754  0.00  0.00    +0.000 A 
ATOM     11  N   UNL     1      -6.604  11.042  20.557  0.00  0.00    +0.000 NA
ATOM     12  C   UNL     1      -7.539  10.715  21.450  0.00  0.00    +0.000 A 
ATOM     13  N   UNL     1      -7.914  11.445  22.505  0.00  0.00    +0.000 NA
ATOM     14  C   UNL     1      -7.271  12.615  22.680  0.00  0.00    +0.000 A 
ATOM     15  C   UNL     1      -7.596  13.478  23.703  0.00  0.00    +0.000 A 
ATOM     16  N   UNL     1      -7.005  14.681  23.954  0.00  0.00    +0.000 NA
ATOM     17  C   UNL     1      -6.015  15.105  23.147  0.00  0.00    +0.000 A 
ATOM     18  C   UNL     1      -5.635  14.296  22.081  0.00  0.00    +0.000 A 
ATOM     19  C   UNL     1      -6.257  13.046  21.837  0.00  0.00    +0.000 A 
BRANCH  17  20
ATOM     20  N   UNL     1      -5.425  16.326  23.394  0.00  0.00    +0.000 N 
ATOM     21  C   UNL     1      -4.950  16.635  24.739  0.00  0.00    +0.000 C 
ATOM     22  C   UNL     1      -5.205  17.360  22.395  0.00  0.00    +0.000 C 
ENDBRANCH  17  20
ENDBRANCH   8  10
ENDBRANCH   4   8
BRANCH   7  23
ATOM     23  O   UNL     1       0.499  11.588  19.344  0.00  0.00    +0.000 OA
BRANCH  23  24
ATOM     24  C   UNL     1       0.942  10.259  19.205  0.00  0.00    +0.000 A 
ATOM     25  C   UNL     1       0.912   9.357  20.276  0.00  0.00    +0.000 A 
ATOM     26  C   UNL     1       1.587   8.130  20.226  0.00  0.00    +0.000 A 
ATOM     27  C   UNL     1       2.166   7.698  19.033  0.00  0.00    +0.000 A 
ATOM     28  C   UNL     1       2.067   8.532  17.904  0.00  0.00    +0.000 A 
ATOM     29  C   UNL     1       1.484   9.817  17.995  0.00  0.00    +0.000 A 
BRANCH  27  30
ATOM     30  C   UNL     1       2.867   6.378  18.899  0.00  0.00    +0.000 C 
ATOM     31  O   UNL     1       2.675   5.510  19.723  0.00  0.00    +0.000 OA
ATOM     32  N   UNL     1       3.689   6.212  17.784  0.00  0.00    +0.000 N 
ATOM     33  H   UNL     1       3.795   6.958  17.120  0.00  0.00    +0.000 HD
BRANCH  32  34
ATOM     34  C   UNL     1       4.384   4.956  17.518  0.00  0.00    +0.000 C 
BRANCH  34  35
ATOM     35  C   UNL     1       5.579   5.104  16.531  0.00  0.00    +0.000 C 
ATOM     36  C   UNL     1       5.301   6.212  15.500  0.00  0.00    +0.000 C 
ATOM     37  C   UNL     1       6.867   5.452  17.308  0.00  0.00    +0.000 C 
ATOM     38  C   UNL     1       5.810   3.779  15.785  0.00  0.00    +0.000 C 
ENDBRANCH  34  35
ENDBRANCH  32  34
ENDBRANCH  27  30
ENDBRANCH  23  24
ENDBRANCH   7  23
TORSDOF 8
ENDMDL
MODEL 9
REMARK VINA RESULT:      -7.9      3.930      6.433
REMARK  Name = 
REMARK  14 active torsions:
REMARK  status: ('A' for Active; 'I' for Inactive)
REMARK    1  A    between atoms: C_1  and  C_2
REMARK    2  A    between atoms: C_4  and  N_5
REMARK    3  A    between atoms: N_5  and  C_6
REMARK    4  A    between atoms: C_13  and  N_14
REMARK    5  A    between atoms: N_14  and  C_15
REMARK    6  A    between atoms: N_14  and  C_16
REMARK    7  A    between atoms: C_21  and  O_22
REMARK    8  A    between atoms: O_22  and  C_23
REMARK    9  A    between atoms: C_26  and  C_27
REMARK   10  A    between atoms: N_29  and  C_30
REMARK   11  A    between atoms: C_30  and  C_31
REMARK   12  A    between atoms: C_31  and  C_32
REMARK   13  A    between atoms: C_31  and  C_33
REMARK   14  A    between atoms: C_31  and  C_34
REMARK                            x       y       z     vdW  Elec       q    Type
REMARK                         _______ _______ _______ _____ _____    ______ ____
ROOT
ATOM      1  C   UNL     1       1.498  10.144  17.819  0.00  0.00    +0.000 C 
ATOM      2  C   UNL     1       1.212   9.400  19.094  0.00  0.00    +0.000 A 
ATOM      3  C   UNL     1       1.920   8.184  19.267  0.00  0.00    +0.000 A 
ATOM      4  C   UNL     1       1.787   7.392  20.408  0.00  0.00    +0.000 A 
ATOM      5  C   UNL     1       0.860   7.794  21.369  0.00  0.00    +0.000 A 
ATOM      6  C   UNL     1       0.123   8.945  21.195  0.00  0.00    +0.000 A 
ATOM      7  C   UNL     1       0.304   9.812  20.100  0.00  0.00    +0.000 A 
ENDROOT
BRANCH   4   8
ATOM      8  N   UNL     1       2.539   6.227  20.568  0.00  0.00    +0.000 N 
ATOM      9  H   UNL     1       3.474   6.353  20.916  0.00  0.00    +0.000 HD
BRANCH   8  10
ATOM     10  C   UNL     1       2.226   4.915  20.154  0.00  0.00    +0.000 A 
ATOM     11  N   UNL     1       1.280   4.240  20.840  0.00  0.00    +0.000 NA
ATOM     12  C   UNL     1       1.066   2.974  20.482  0.00  0.00    +0.000 A 
ATOM     13  N   UNL     1       1.717   2.302  19.526  0.00  0.00    +0.000 NA
ATOM     14  C   UNL     1       2.669   2.983  18.861  0.00  0.00    +0.000 A 
ATOM     15  C   UNL     1       3.440   2.391  17.885  0.00  0.00    +0.000 A 
ATOM     16  N   UNL     1       4.426   2.999  17.165  0.00  0.00    +0.000 NA
ATOM     17  C   UNL     1       4.708   4.293  17.405  0.00  0.00    +0.000 A 
ATOM     18  C   UNL     1       3.982   4.961  18.385  0.00  0.00    +0.000 A 
ATOM     19  C   UNL     1       2.957   4.315  19.122  0.00  0.00    +0.000 A 
BRANCH  17  20
ATOM     20  N   UNL     1       5.712   4.905  16.684  0.00  0.00    +0.000 N 
ATOM     21  C   UNL     1       7.101   4.726  17.092  0.00  0.00    +0.000 C 
ATOM     22  C   UNL     1       5.503   5.723  15.500  0.00  0.00    +0.000 C 
ENDBRANCH  17  20
ENDBRANCH   8  10
ENDBRANCH   4   8
BRANCH   7  23
ATOM     23  O   UNL     1      -0.408  11.007  20.052  0.00  0.00    +0.000 OA
BRANCH  23  24
ATOM     24  C   UNL     1       0.325  12.206  19.985  0.00  0.00    +0.000 A 
ATOM     25  C   UNL     1       0.021  13.204  19.050  0.00  0.00    +0.000 A 
ATOM     26  C   UNL     1       0.895  14.270  18.797  0.00  0.00    +0.000 A 
ATOM     27  C   UNL     1       2.017  14.460  19.603  0.00  0.00    +0.000 A 
ATOM     28  C   UNL     1       2.249  13.548  20.649  0.00  0.00    +0.000 A 
ATOM     29  C   UNL     1       1.425  12.411  20.823  0.00  0.00    +0.000 A 
BRANCH  27  30
ATOM     30  C   UNL     1       2.971  15.603  19.415  0.00  0.00    +0.000 C 
ATOM     31  O   UNL     1       2.702  16.691  19.875  0.00  0.00    +0.000 OA
ATOM     32  N   UNL     1       4.159  15.327  18.737  0.00  0.00    +0.000 N 
ATOM     33  H   UNL     1       4.341  14.400  18.396  0.00  0.00    +0.000 HD
BRANCH  32  34
ATOM     34  C   UNL     1       5.187  16.344  18.536  0.00  0.00    +0.000 C 
BRANCH  34  35
ATOM     35  C   UNL     1       6.635  15.814  18.746  0.00  0.00    +0.000 C 
ATOM     36  C   UNL     1       7.666  16.932  18.508  0.00  0.00    +0.000 C 
ATOM     37  C   UNL     1       6.798  15.277  20.185  0.00  0.00    +0.000 C 
ATOM     38  C   UNL     1       6.920  14.662  17.768  0.00  0.00    +0.000 C 
ENDBRANCH  34  35
ENDBRANCH  32  34
ENDBRANCH  27  30
ENDBRANCH  23  24
ENDBRANCH   7  23
TORSDOF 8
ENDMDL
