MODEL 1
REMARK VINA RESULT:      -7.5      0.000      0.000
REMARK  Name = 
REMARK  7 active torsions:
REMARK  status: ('A' for Active; 'I' for Inactive)
REMARK    1  A    between atoms: C_1  and  O_2
REMARK    2  A    between atoms: O_2  and  C_3
REMARK    3  A    between atoms: C_9  and  N_10
REMARK    4  A    between atoms: N_10  and  C_11
REMARK    5  A    between atoms: C_13  and  C_14
REMARK    6  A    between atoms: C_16  and  C_17
REMARK    7  A    between atoms: C_18  and  C_19
REMARK                            x       y       z     vdW  Elec       q    Type
REMARK                         _______ _______ _______ _____ _____    ______ ____
ROOT
ATOM      1  N   UNL     1       5.422   3.416  18.595  0.00  0.00    +0.000 N 
ATOM      2  H   UNL     1       5.181   2.577  18.070  0.00  0.00    +0.000 HD
ENDROOT
BRANCH   1   3
ATOM      3  C   UNL     1       6.018   4.314  17.679  0.00  0.00    +0.000 A 
ATOM      4  N   UNL     1       5.868   4.072  16.368  0.00  0.00    +0.000 NA
ATOM      5  C   UNL     1       6.457   4.911  15.502  0.00  0.00    +0.000 A 
ATOM      6  C   UNL     1       6.468   4.525  14.058  0.00  0.00    +0.000 C 
ATOM      7  N   UNL     1       7.108   6.028  15.847  0.00  0.00    +0.000 NA
ATOM      8  C   UNL     1       7.221   6.289  17.165  0.00  0.00    +0.000 A 
ATOM      9  C   UNL     1       7.917   7.578  17.497  0.00  0.00    +0.000 C 
ATOM     10  C   UNL     1       6.731   5.424  18.144  0.00  0.00    +0.000 A 
ATOM     11  C   UNL     1       6.926   5.703  19.605  0.00  0.00    +0.000 C 
ENDBRANCH   1   3
BRANCH   1  18
ATOM     12  C   UNL     1       3.507   2.826  20.115  0.00  0.00    +0.000 C 
ATOM     13  C   UNL     1       2.771   2.020  19.046  0.00  0.00    +0.000 C 
ATOM     14  S   UNL     1       2.223   3.235  17.866  0.00  0.00    +0.000 S 
ATOM     15  O   UNL     1       0.834   3.554  18.127  0.00  0.00    +0.000 OA
ATOM     16  O   UNL     1       2.672   2.842  16.544  0.00  0.00    +0.000 OA
ATOM     17  C   UNL     1       3.239   4.580  18.427  0.00  0.00    +0.000 C 
ATOM     18  C   UNL     1       4.271   3.947  19.361  0.00  0.00    +0.000 C 
BRANCH  12  20
ATOM     19  C   UNL     1       1.580   2.631  21.556  0.00  0.00    +0.000 C 
ATOM     20  O   UNL     1       2.610   3.464  21.041  0.00  0.00    +0.000 OA
ENDBRANCH  12  20
ENDBRANCH   1  18
TORSDOF 3
ENDMDL
MODEL 2
REMARK VINA RESULT:      -7.5      3.215      5.659
REMARK  Name = 
REMARK  7 active torsions:
REMARK  status: ('A' for Active; 'I' for Inactive)
REMARK    1  A    between atoms: C_1  and  O_2
REMARK    2  A    between atoms: O_2  and  C_3
REMARK    3  A    between atoms: C_9  and  N_10
REMARK    4  A    between atoms: N_10  and  C_11
REMARK    5  A    between atoms: C_13  and  C_14
REMARK    6  A    between atoms: C_16  and  C_17
REMARK    7  A    between atoms: C_18  and  C_19
REMARK                            x       y       z     vdW  Elec       q    Type
REMARK                         _______ _______ _______ _____ _____    ______ ____
ROOT
ATOM      1  N   UNL     1       3.618   4.664  17.509  0.00  0.00    +0.000 N 
ATOM      2  H   UNL     1       3.059   3.994  16.984  0.00  0.00    +0.000 HD
ENDROOT
BRANCH   1   3
ATOM      3  C   UNL     1       2.934   4.905  18.724  0.00  0.00    +0.000 A 
ATOM      4  N   UNL     1       2.748   3.871  19.560  0.00  0.00    +0.000 NA
ATOM      5  C   UNL     1       2.076   4.097  20.698  0.00  0.00    +0.000 A 
ATOM      6  C   UNL     1       1.688   2.912  21.523  0.00  0.00    +0.000 C 
ATOM      7  N   UNL     1       1.656   5.299  21.109  0.00  0.00    +0.000 NA
ATOM      8  C   UNL     1       1.882   6.342  20.285  0.00  0.00    +0.000 A 
ATOM      9  C   UNL     1       1.436   7.675  20.815  0.00  0.00    +0.000 C 
ATOM     10  C   UNL     1       2.481   6.190  19.034  0.00  0.00    +0.000 A 
ATOM     11  C   UNL     1       2.663   7.356  18.107  0.00  0.00    +0.000 C 
ENDBRANCH   1   3
BRANCH   1  18
ATOM     12  C   UNL     1       5.887   5.278  18.405  0.00  0.00    +0.000 C 
ATOM     13  C   UNL     1       6.052   6.468  17.461  0.00  0.00    +0.000 C 
ATOM     14  S   UNL     1       6.242   5.738  15.849  0.00  0.00    +0.000 S 
ATOM     15  O   UNL     1       7.652   5.687  15.517  0.00  0.00    +0.000 OA
ATOM     16  O   UNL     1       5.276   6.333  14.947  0.00  0.00    +0.000 OA
ATOM     17  C   UNL     1       5.689   4.102  16.266  0.00  0.00    +0.000 C 
ATOM     18  C   UNL     1       5.030   4.235  17.639  0.00  0.00    +0.000 C 
BRANCH  12  20
ATOM     19  C   UNL     1       8.123   5.515  19.285  0.00  0.00    +0.000 C 
ATOM     20  O   UNL     1       7.141   4.651  18.729  0.00  0.00    +0.000 OA
ENDBRANCH  12  20
ENDBRANCH   1  18
TORSDOF 3
ENDMDL
MODEL 3
REMARK VINA RESULT:      -7.3      0.862      2.229
REMARK  Name = 
REMARK  7 active torsions:
REMARK  status: ('A' for Active; 'I' for Inactive)
REMARK    1  A    between atoms: C_1  and  O_2
REMARK    2  A    between atoms: O_2  and  C_3
REMARK    3  A    between atoms: C_9  and  N_10
REMARK    4  A    between atoms: N_10  and  C_11
REMARK    5  A    between atoms: C_13  and  C_14
REMARK    6  A    between atoms: C_16  and  C_17
REMARK    7  A    between atoms: C_18  and  C_19
REMARK                            x       y       z     vdW  Elec       q    Type
REMARK                         _______ _______ _______ _____ _____    ______ ____
ROOT
ATOM      1  N   UNL     1       5.420   3.566  18.450  0.00  0.00    +0.000 N 
ATOM      2  H   UNL     1       5.116   2.800  17.853  0.00  0.00    +0.000 HD
ENDROOT
BRANCH   1   3
ATOM      3  C   UNL     1       6.114   4.481  17.624  0.00  0.00    +0.000 A 
ATOM      4  N   UNL     1       6.704   5.536  18.205  0.00  0.00    +0.000 NA
ATOM      5  C   UNL     1       7.337   6.416  17.416  0.00  0.00    +0.000 A 
ATOM      6  C   UNL     1       7.809   7.692  18.035  0.00  0.00    +0.000 C 
ATOM      7  N   UNL     1       7.506   6.272  16.096  0.00  0.00    +0.000 NA
ATOM      8  C   UNL     1       6.946   5.188  15.522  0.00  0.00    +0.000 A 
ATOM      9  C   UNL     1       7.206   5.048  14.049  0.00  0.00    +0.000 C 
ATOM     10  C   UNL     1       6.181   4.271  16.243  0.00  0.00    +0.000 A 
ATOM     11  C   UNL     1       5.514   3.108  15.570  0.00  0.00    +0.000 C 
ENDBRANCH   1   3
BRANCH   1  18
ATOM     12  C   UNL     1       3.583   3.049  20.089  0.00  0.00    +0.000 C 
ATOM     13  C   UNL     1       2.800   2.189  19.099  0.00  0.00    +0.000 C 
ATOM     14  S   UNL     1       2.191   3.342  17.888  0.00  0.00    +0.000 S 
ATOM     15  O   UNL     1       0.815   3.671  18.199  0.00  0.00    +0.000 OA
ATOM     16  O   UNL     1       2.577   2.884  16.567  0.00  0.00    +0.000 OA
ATOM     17  C   UNL     1       3.226   4.716  18.330  0.00  0.00    +0.000 C 
ATOM     18  C   UNL     1       4.305   4.133  19.244  0.00  0.00    +0.000 C 
BRANCH  12  20
ATOM     19  C   UNL     1       1.719   2.927  21.619  0.00  0.00    +0.000 C 
ATOM     20  O   UNL     1       2.729   3.732  21.024  0.00  0.00    +0.000 OA
ENDBRANCH  12  20
ENDBRANCH   1  18
TORSDOF 3
ENDMDL
MODEL 4
REMARK VINA RESULT:      -7.2      3.120      5.790
REMARK  Name = 
REMARK  7 active torsions:
REMARK  status: ('A' for Active; 'I' for Inactive)
REMARK    1  A    between atoms: C_1  and  O_2
REMARK    2  A    between atoms: O_2  and  C_3
REMARK    3  A    between atoms: C_9  and  N_10
REMARK    4  A    between atoms: N_10  and  C_11
REMARK    5  A    between atoms: C_13  and  C_14
REMARK    6  A    between atoms: C_16  and  C_17
REMARK    7  A    between atoms: C_18  and  C_19
REMARK                            x       y       z     vdW  Elec       q    Type
REMARK                         _______ _______ _______ _____ _____    ______ ____
ROOT
ATOM      1  N   UNL     1       3.698   4.366  17.407  0.00  0.00    +0.000 N 
ATOM      2  H   UNL     1       3.219   3.619  16.908  0.00  0.00    +0.000 HD
ENDROOT
BRANCH   1   3
ATOM      3  C   UNL     1       2.981   4.583  18.607  0.00  0.00    +0.000 A 
ATOM      4  N   UNL     1       2.634   5.841  18.917  0.00  0.00    +0.000 NA
ATOM      5  C   UNL     1       1.978   6.047  20.069  0.00  0.00    +0.000 A 
ATOM      6  C   UNL     1       1.780   7.460  20.514  0.00  0.00    +0.000 C 
ATOM      7  N   UNL     1       1.559   5.078  20.890  0.00  0.00    +0.000 NA
ATOM      8  C   UNL     1       1.873   3.810  20.553  0.00  0.00    +0.000 A 
ATOM      9  C   UNL     1       1.337   2.758  21.481  0.00  0.00    +0.000 C 
ATOM     10  C   UNL     1       2.641   3.504  19.429  0.00  0.00    +0.000 A 
ATOM     11  C   UNL     1       3.033   2.092  19.110  0.00  0.00    +0.000 C 
ENDBRANCH   1   3
BRANCH   1  18
ATOM     12  C   UNL     1       5.848   5.173  18.432  0.00  0.00    +0.000 C 
ATOM     13  C   UNL     1       5.900   6.440  17.580  0.00  0.00    +0.000 C 
ATOM     14  S   UNL     1       6.226   5.857  15.930  0.00  0.00    +0.000 S 
ATOM     15  O   UNL     1       7.641   5.995  15.651  0.00  0.00    +0.000 OA
ATOM     16  O   UNL     1       5.224   6.400  15.033  0.00  0.00    +0.000 OA
ATOM     17  C   UNL     1       5.859   4.142  16.211  0.00  0.00    +0.000 C 
ATOM     18  C   UNL     1       5.146   4.096  17.563  0.00  0.00    +0.000 C 
BRANCH  12  20
ATOM     19  C   UNL     1       8.038   5.627  19.343  0.00  0.00    +0.000 C 
ATOM     20  O   UNL     1       7.157   4.674  18.761  0.00  0.00    +0.000 OA
ENDBRANCH  12  20
ENDBRANCH   1  18
TORSDOF 3
ENDMDL
MODEL 5
REMARK VINA RESULT:      -7.1      3.082      5.869
REMARK  Name = 
REMARK  7 active torsions:
REMARK  status: ('A' for Active; 'I' for Inactive)
REMARK    1  A    between atoms: C_1  and  O_2
REMARK    2  A    between atoms: O_2  and  C_3
REMARK    3  A    between atoms: C_9  and  N_10
REMARK    4  A    between atoms: N_10  and  C_11
REMARK    5  A    between atoms: C_13  and  C_14
REMARK    6  A    between atoms: C_16  and  C_17
REMARK    7  A    between atoms: C_18  and  C_19
REMARK                            x       y       z     vdW  Elec       q    Type
REMARK                         _______ _______ _______ _____ _____    ______ ____
ROOT
ATOM      1  N   UNL     1       4.271   4.318  17.540  0.00  0.00    +0.000 N 
ATOM      2  H   UNL     1       4.168   3.326  17.333  0.00  0.00    +0.000 HD
ENDROOT
BRANCH   1   3
ATOM      3  C   UNL     1       3.488   4.580  18.688  0.00  0.00    +0.000 A 
ATOM      4  N   UNL     1       2.991   5.817  18.846  0.00  0.00    +0.000 NA
ATOM      5  C   UNL     1       2.272   6.070  19.948  0.00  0.00    +0.000 A 
ATOM      6  C   UNL     1       1.900   7.491  20.226  0.00  0.00    +0.000 C 
ATOM      7  N   UNL     1       1.931   5.154  20.863  0.00  0.00    +0.000 NA
ATOM      8  C   UNL     1       2.398   3.902  20.679  0.00  0.00    +0.000 A 
ATOM      9  C   UNL     1       1.947   2.903  21.705  0.00  0.00    +0.000 C 
ATOM     10  C   UNL     1       3.239   3.566  19.618  0.00  0.00    +0.000 A 
ATOM     11  C   UNL     1       3.799   2.182  19.471  0.00  0.00    +0.000 C 
ENDBRANCH   1   3
BRANCH   1  18
ATOM     12  C   UNL     1       5.877   6.246  17.363  0.00  0.00    +0.000 C 
ATOM     13  C   UNL     1       5.623   6.455  15.872  0.00  0.00    +0.000 C 
ATOM     14  S   UNL     1       6.342   5.028  15.090  0.00  0.00    +0.000 S 
ATOM     15  O   UNL     1       7.657   5.374  14.589  0.00  0.00    +0.000 OA
ATOM     16  O   UNL     1       5.347   4.410  14.234  0.00  0.00    +0.000 OA
ATOM     17  C   UNL     1       6.526   4.029  16.548  0.00  0.00    +0.000 C 
ATOM     18  C   UNL     1       5.693   4.727  17.624  0.00  0.00    +0.000 C 
BRANCH  12  20
ATOM     19  C   UNL     1       7.583   7.946  17.536  0.00  0.00    +0.000 C 
ATOM     20  O   UNL     1       7.220   6.588  17.749  0.00  0.00    +0.000 OA
ENDBRANCH  12  20
ENDBRANCH   1  18
TORSDOF 3
ENDMDL
MODEL 6
REMARK VINA RESULT:      -7.1      3.323      6.252
REMARK  Name = 
REMARK  7 active torsions:
REMARK  status: ('A' for Active; 'I' for Inactive)
REMARK    1  A    between atoms: C_1  and  O_2
REMARK    2  A    between atoms: O_2  and  C_3
REMARK    3  A    between atoms: C_9  and  N_10
REMARK    4  A    between atoms: N_10  and  C_11
REMARK    5  A    between atoms: C_13  and  C_14
REMARK    6  A    between atoms: C_16  and  C_17
REMARK    7  A    between atoms: C_18  and  C_19
REMARK                            x       y       z     vdW  Elec       q    Type
REMARK                         _______ _______ _______ _____ _____    ______ ____
ROOT
ATOM      1  N   UNL     1       4.907   4.293  18.472  0.00  0.00    +0.000 N 
ATOM      2  H   UNL     1       5.486   4.700  19.204  0.00  0.00    +0.000 HD
ENDROOT
BRANCH   1   3
ATOM      3  C   UNL     1       3.587   4.241  18.976  0.00  0.00    +0.000 A 
ATOM      4  N   UNL     1       3.117   5.314  19.630  0.00  0.00    +0.000 NA
ATOM      5  C   UNL     1       1.874   5.251  20.130  0.00  0.00    +0.000 A 
ATOM      6  C   UNL     1       1.431   6.356  21.033  0.00  0.00    +0.000 C 
ATOM      7  N   UNL     1       1.029   4.230  19.944  0.00  0.00    +0.000 NA
ATOM      8  C   UNL     1       1.492   3.170  19.251  0.00  0.00    +0.000 A 
ATOM      9  C   UNL     1       0.489   2.074  19.029  0.00  0.00    +0.000 C 
ATOM     10  C   UNL     1       2.803   3.099  18.780  0.00  0.00    +0.000 A 
ATOM     11  C   UNL     1       3.314   1.882  18.067  0.00  0.00    +0.000 C 
ENDBRANCH   1   3
BRANCH   1  18
ATOM     12  C   UNL     1       6.158   4.317  16.290  0.00  0.00    +0.000 C 
ATOM     13  C   UNL     1       7.501   4.639  16.944  0.00  0.00    +0.000 C 
ATOM     14  S   UNL     1       7.324   6.310  17.530  0.00  0.00    +0.000 S 
ATOM     15  O   UNL     1       7.935   7.213  16.576  0.00  0.00    +0.000 OA
ATOM     16  O   UNL     1       7.671   6.353  18.938  0.00  0.00    +0.000 OA
ATOM     17  C   UNL     1       5.557   6.425  17.384  0.00  0.00    +0.000 C 
ATOM     18  C   UNL     1       5.075   4.989  17.175  0.00  0.00    +0.000 C 
BRANCH  12  20
ATOM     19  C   UNL     1       6.237   3.951  13.904  0.00  0.00    +0.000 C 
ATOM     20  O   UNL     1       6.040   4.873  14.968  0.00  0.00    +0.000 OA
ENDBRANCH  12  20
ENDBRANCH   1  18
TORSDOF 3
ENDMDL
MODEL 7
REMARK VINA RESULT:      -7.1      1.541      2.727
REMARK  Name = 
REMARK  7 active torsions:
REMARK  status: ('A' for Active; 'I' for Inactive)
REMARK    1  A    between atoms: C_1  and  O_2
REMARK    2  A    between atoms: O_2  and  C_3
REMARK    3  A    between atoms: C_9  and  N_10
REMARK    4  A    between atoms: N_10  and  C_11
REMARK    5  A    between atoms: C_13  and  C_14
REMARK    6  A    between atoms: C_16  and  C_17
REMARK    7  A    between atoms: C_18  and  C_19
REMARK                            x       y       z     vdW  Elec       q    Type
REMARK                         _______ _______ _______ _____ _____    ______ ____
ROOT
ATOM      1  N   UNL     1       4.918   4.262  18.627  0.00  0.00    +0.000 N 
ATOM      2  H   UNL     1       4.896   3.290  18.324  0.00  0.00    +0.000 HD
ENDROOT
BRANCH   1   3
ATOM      3  C   UNL     1       5.786   4.946  17.744  0.00  0.00    +0.000 A 
ATOM      4  N   UNL     1       6.459   6.008  18.215  0.00  0.00    +0.000 NA
ATOM      5  C   UNL     1       7.260   6.671  17.369  0.00  0.00    +0.000 A 
ATOM      6  C   UNL     1       7.841   7.968  17.833  0.00  0.00    +0.000 C 
ATOM      7  N   UNL     1       7.514   6.297  16.110  0.00  0.00    +0.000 NA
ATOM      8  C   UNL     1       6.867   5.205  15.653  0.00  0.00    +0.000 A 
ATOM      9  C   UNL     1       7.224   4.800  14.251  0.00  0.00    +0.000 C 
ATOM     10  C   UNL     1       5.936   4.510  16.424  0.00  0.00    +0.000 A 
ATOM     11  C   UNL     1       5.181   3.337  15.872  0.00  0.00    +0.000 C 
ENDBRANCH   1   3
BRANCH   1  18
ATOM     12  C   UNL     1       3.054   4.786  20.232  0.00  0.00    +0.000 C 
ATOM     13  C   UNL     1       2.759   3.317  20.531  0.00  0.00    +0.000 C 
ATOM     14  S   UNL     1       2.063   2.684  19.020  0.00  0.00    +0.000 S 
ATOM     15  O   UNL     1       0.619   2.666  19.135  0.00  0.00    +0.000 OA
ATOM     16  O   UNL     1       2.802   1.501  18.622  0.00  0.00    +0.000 OA
ATOM     17  C   UNL     1       2.540   4.028  17.961  0.00  0.00    +0.000 C 
ATOM     18  C   UNL     1       3.559   4.836  18.765  0.00  0.00    +0.000 C 
BRANCH  12  20
ATOM     19  C   UNL     1       2.097   6.997  20.073  0.00  0.00    +0.000 C 
ATOM     20  O   UNL     1       1.879   5.613  20.311  0.00  0.00    +0.000 OA
ENDBRANCH  12  20
ENDBRANCH   1  18
TORSDOF 3
ENDMDL
MODEL 8
REMARK VINA RESULT:      -7.0      3.058      5.805
REMARK  Name = 
REMARK  7 active torsions:
REMARK  status: ('A' for Active; 'I' for Inactive)
REMARK    1  A    between atoms: C_1  and  O_2
REMARK    2  A    between atoms: O_2  and  C_3
REMARK    3  A    between atoms: C_9  and  N_10
REMARK    4  A    between atoms: N_10  and  C_11
REMARK    5  A    between atoms: C_13  and  C_14
REMARK    6  A    between atoms: C_16  and  C_17
REMARK    7  A    between atoms: C_18  and  C_19
REMARK                            x       y       z     vdW  Elec       q    Type
REMARK                         _______ _______ _______ _____ _____    ______ ____
ROOT
ATOM      1  N   UNL     1       4.560   3.969  17.024  0.00  0.00    +0.000 N 
ATOM      2  H   UNL     1       4.584   3.156  16.412  0.00  0.00    +0.000 HD
ENDROOT
BRANCH   1   3
ATOM      3  C   UNL     1       4.046   3.530  18.267  0.00  0.00    +0.000 A 
ATOM      4  N   UNL     1       4.844   2.796  19.058  0.00  0.00    +0.000 NA
ATOM      5  C   UNL     1       4.345   2.359  20.223  0.00  0.00    +0.000 A 
ATOM      6  C   UNL     1       5.155   1.373  21.001  0.00  0.00    +0.000 C 
ATOM      7  N   UNL     1       3.137   2.679  20.702  0.00  0.00    +0.000 NA
ATOM      8  C   UNL     1       2.353   3.451  19.922  0.00  0.00    +0.000 A 
ATOM      9  C   UNL     1       1.029   3.822  20.527  0.00  0.00    +0.000 C 
ATOM     10  C   UNL     1       2.744   3.869  18.650  0.00  0.00    +0.000 A 
ATOM     11  C   UNL     1       1.830   4.674  17.775  0.00  0.00    +0.000 C 
ENDBRANCH   1   3
BRANCH   1  18
ATOM     12  C   UNL     1       5.741   6.163  16.680  0.00  0.00    +0.000 C 
ATOM     13  C   UNL     1       5.486   6.182  15.174  0.00  0.00    +0.000 C 
ATOM     14  S   UNL     1       6.501   4.869  14.531  0.00  0.00    +0.000 S 
ATOM     15  O   UNL     1       7.729   5.434  14.008  0.00  0.00    +0.000 OA
ATOM     16  O   UNL     1       5.675   3.987  13.730  0.00  0.00    +0.000 OA
ATOM     17  C   UNL     1       6.849   4.064  16.076  0.00  0.00    +0.000 C 
ATOM     18  C   UNL     1       5.865   4.668  17.078  0.00  0.00    +0.000 C 
BRANCH  12  20
ATOM     19  C   UNL     1       7.457   6.506  18.344  0.00  0.00    +0.000 C 
ATOM     20  O   UNL     1       6.975   6.808  17.041  0.00  0.00    +0.000 OA
ENDBRANCH  12  20
ENDBRANCH   1  18
TORSDOF 3
ENDMDL
MODEL 9
REMARK VINA RESULT:      -7.0      3.176      5.856
REMARK  Name = 
REMARK  7 active torsions:
REMARK  status: ('A' for Active; 'I' for Inactive)
REMARK    1  A    between atoms: C_1  and  O_2
REMARK    2  A    between atoms: O_2  and  C_3
REMARK    3  A    between atoms: C_9  and  N_10
REMARK    4  A    between atoms: N_10  and  C_11
REMARK    5  A    between atoms: C_13  and  C_14
REMARK    6  A    between atoms: C_16  and  C_17
REMARK    7  A    between atoms: C_18  and  C_19
REMARK                            x       y       z     vdW  Elec       q    Type
REMARK                         _______ _______ _______ _____ _____    ______ ____
ROOT
ATOM      1  N   UNL     1       4.043   4.802  17.561  0.00  0.00    +0.000 N 
ATOM      2  H   UNL     1       3.834   3.881  17.181  0.00  0.00    +0.000 HD
ENDROOT
BRANCH   1   3
ATOM      3  C   UNL     1       3.298   4.930  18.757  0.00  0.00    +0.000 A 
ATOM      4  N   UNL     1       3.251   3.878  19.588  0.00  0.00    +0.000 NA
ATOM      5  C   UNL     1       2.523   3.993  20.708  0.00  0.00    +0.000 A 
ATOM      6  C   UNL     1       2.300   2.760  21.523  0.00  0.00    +0.000 C 
ATOM      7  N   UNL     1       1.912   5.114  21.108  0.00  0.00    +0.000 NA
ATOM      8  C   UNL     1       1.996   6.182  20.289  0.00  0.00    +0.000 A 
ATOM      9  C   UNL     1       1.336   7.429  20.806  0.00  0.00    +0.000 C 
ATOM     10  C   UNL     1       2.644   6.130  19.055  0.00  0.00    +0.000 A 
ATOM     11  C   UNL     1       2.669   7.312  18.132  0.00  0.00    +0.000 C 
ENDBRANCH   1   3
BRANCH   1  18
ATOM     12  C   UNL     1       5.882   6.500  17.317  0.00  0.00    +0.000 C 
ATOM     13  C   UNL     1       5.713   6.619  15.803  0.00  0.00    +0.000 C 
ATOM     14  S   UNL     1       6.277   5.056  15.166  0.00  0.00    +0.000 S 
ATOM     15  O   UNL     1       7.643   5.199  14.703  0.00  0.00    +0.000 OA
ATOM     16  O   UNL     1       5.247   4.498  14.312  0.00  0.00    +0.000 OA
ATOM     17  C   UNL     1       6.280   4.163  16.702  0.00  0.00    +0.000 C 
ATOM     18  C   UNL     1       5.500   5.041  17.681  0.00  0.00    +0.000 C 
BRANCH  12  20
ATOM     19  C   UNL     1       7.731   8.032  17.574  0.00  0.00    +0.000 C 
ATOM     20  O   UNL     1       7.242   6.707  17.739  0.00  0.00    +0.000 OA
ENDBRANCH  12  20
ENDBRANCH   1  18
TORSDOF 3
ENDMDL
