MODEL 1
REMARK VINA RESULT:      -6.8      0.000      0.000
REMARK  Name = 
REMARK  5 active torsions:
REMARK  status: ('A' for Active; 'I' for Inactive)
REMARK    1  A    between atoms: C_1  and  N_2
REMARK    2  A    between atoms: N_2  and  C_3
REMARK    3  A    between atoms: C_4  and  O_6
REMARK    4  A    between atoms: O_6  and  N_7
REMARK    5  A    between atoms: C_17  and  N_18
REMARK                            x       y       z     vdW  Elec       q    Type
REMARK                         _______ _______ _______ _____ _____    ______ ____
ROOT
ATOM      1  N   UNL     1      -3.171  12.854  20.349  0.00  0.00    +0.000 NA
ATOM      2  C   UNL     1      -2.647  12.027  19.523  0.00  0.00    +0.000 C 
ATOM      3  C   UNL     1      -3.023  11.522  18.203  0.00  0.00    +0.000 A 
ATOM      4  C   UNL     1      -4.154  11.835  17.461  0.00  0.00    +0.000 A 
ATOM      5  C   UNL     1      -4.400  11.104  16.307  0.00  0.00    +0.000 A 
ATOM      6  C   UNL     1      -3.522  10.072  15.933  0.00  0.00    +0.000 A 
ATOM      7  C   UNL     1      -2.363   9.773  16.689  0.00  0.00    +0.000 A 
ATOM      8  C   UNL     1      -2.115  10.501  17.846  0.00  0.00    +0.000 A 
ATOM      9  C   UNL     1      -1.138  10.336  18.918  0.00  0.00    +0.000 A 
ATOM     10  C   UNL     1      -1.455  11.232  19.926  0.00  0.00    +0.000 A 
ATOM     11  C   UNL     1      -0.856  11.186  21.157  0.00  0.00    +0.000 A 
ATOM     12  N   UNL     1      -0.135  10.095  21.497  0.00  0.00    +0.000 NA
ATOM     13  C   UNL     1       0.311   9.321  20.506  0.00  0.00    +0.000 A 
ATOM     14  C   UNL     1       1.258   8.405  20.848  0.00  0.00    +0.000 A 
ATOM     15  C   UNL     1       2.304   8.151  19.998  0.00  0.00    +0.000 A 
ATOM     16  C   UNL     1       2.065   8.321  18.652  0.00  0.00    +0.000 A 
ATOM     17 BR   UNL     1       3.424   7.829  17.438  0.00  0.00    +0.000 Br
ATOM     18  C   UNL     1       0.826   8.849  18.198  0.00  0.00    +0.000 A 
ATOM     19  C   UNL     1      -0.016   9.479  19.132  0.00  0.00    +0.000 A 
ENDROOT
BRANCH  11  20
ATOM     20  N   UNL     1      -0.769  12.302  22.034  0.00  0.00    +0.000 N 
ATOM     21  C   UNL     1      -0.081  13.465  21.782  0.00  0.00    +0.000 A 
ATOM     22  C   UNL     1      -0.390  14.320  22.811  0.00  0.00    +0.000 A 
ATOM     23  N   UNL     1      -1.298  13.762  23.660  0.00  0.00    +0.000 NA
ATOM     24  C   UNL     1      -1.512  12.555  23.175  0.00  0.00    +0.000 A 
ENDBRANCH  11  20
BRANCH   1  25
ATOM     25  O   UNL     1      -4.335  13.489  19.892  0.00  0.00    +0.000 OA
BRANCH  25  29
ATOM     26  C   UNL     1      -7.817  13.086  20.891  0.00  0.00    +0.000 C 
ATOM     27  N   UNL     1      -6.629  13.420  20.118  0.00  0.00    +0.000 N 
ATOM     28  C   UNL     1      -6.736  14.317  19.007  0.00  0.00    +0.000 C 
ATOM     29  C   UNL     1      -5.388  13.042  20.666  0.00  0.00    +0.000 C 
ATOM     30  O   UNL     1      -5.301  12.396  21.701  0.00  0.00    +0.000 OA
ENDBRANCH  25  29
ENDBRANCH   1  25
TORSDOF 3
ENDMDL
MODEL 2
REMARK VINA RESULT:      -6.6      3.641      6.583
REMARK  Name = 
REMARK  5 active torsions:
REMARK  status: ('A' for Active; 'I' for Inactive)
REMARK    1  A    between atoms: C_1  and  N_2
REMARK    2  A    between atoms: N_2  and  C_3
REMARK    3  A    between atoms: C_4  and  O_6
REMARK    4  A    between atoms: O_6  and  N_7
REMARK    5  A    between atoms: C_17  and  N_18
REMARK                            x       y       z     vdW  Elec       q    Type
REMARK                         _______ _______ _______ _____ _____    ______ ____
ROOT
ATOM      1  N   UNL     1       0.868  13.462  21.457  0.00  0.00    +0.000 NA
ATOM      2  C   UNL     1      -0.091  12.827  20.894  0.00  0.00    +0.000 C 
ATOM      3  C   UNL     1      -0.166  11.724  19.936  0.00  0.00    +0.000 A 
ATOM      4  C   UNL     1       0.885  11.044  19.336  0.00  0.00    +0.000 A 
ATOM      5  C   UNL     1       0.586  10.145  18.322  0.00  0.00    +0.000 A 
ATOM      6  C   UNL     1      -0.749   9.962  17.922  0.00  0.00    +0.000 A 
ATOM      7  C   UNL     1      -1.814  10.650  18.552  0.00  0.00    +0.000 A 
ATOM      8  C   UNL     1      -1.518  11.551  19.567  0.00  0.00    +0.000 A 
ATOM      9  C   UNL     1      -2.336  12.527  20.281  0.00  0.00    +0.000 A 
ATOM     10  C   UNL     1      -1.493  13.298  21.064  0.00  0.00    +0.000 A 
ATOM     11  C   UNL     1      -1.924  14.434  21.698  0.00  0.00    +0.000 A 
ATOM     12  N   UNL     1      -3.116  14.968  21.352  0.00  0.00    +0.000 NA
ATOM     13  C   UNL     1      -3.992  14.168  20.742  0.00  0.00    +0.000 A 
ATOM     14  C   UNL     1      -5.268  14.637  20.662  0.00  0.00    +0.000 A 
ATOM     15  C   UNL     1      -6.324  13.780  20.836  0.00  0.00    +0.000 A 
ATOM     16  C   UNL     1      -6.124  12.466  20.474  0.00  0.00    +0.000 A 
ATOM     17 BR   UNL     1      -7.598  11.289  20.545  0.00  0.00    +0.000 Br
ATOM     18  C   UNL     1      -4.842  12.018  20.055  0.00  0.00    +0.000 A 
ATOM     19  C   UNL     1      -3.729  12.839  20.313  0.00  0.00    +0.000 A 
ENDROOT
BRANCH  11  20
ATOM     20  N   UNL     1      -1.293  14.984  22.848  0.00  0.00    +0.000 N 
ATOM     21  C   UNL     1      -0.727  16.234  22.927  0.00  0.00    +0.000 A 
ATOM     22  C   UNL     1      -0.380  16.411  24.244  0.00  0.00    +0.000 A 
ATOM     23  N   UNL     1      -0.770  15.350  25.003  0.00  0.00    +0.000 NA
ATOM     24  C   UNL     1      -1.316  14.508  24.148  0.00  0.00    +0.000 A 
ENDBRANCH  11  20
BRANCH   1  25
ATOM     25  O   UNL     1       2.150  12.977  21.164  0.00  0.00    +0.000 OA
BRANCH  25  29
ATOM     26  C   UNL     1       4.492  15.589  20.177  0.00  0.00    +0.000 C 
ATOM     27  N   UNL     1       3.476  14.547  20.118  0.00  0.00    +0.000 N 
ATOM     28  C   UNL     1       3.159  13.936  18.863  0.00  0.00    +0.000 C 
ATOM     29  C   UNL     1       3.043  14.014  21.348  0.00  0.00    +0.000 C 
ATOM     30  O   UNL     1       3.434  14.449  22.421  0.00  0.00    +0.000 OA
ENDBRANCH  25  29
ENDBRANCH   1  25
TORSDOF 3
ENDMDL
MODEL 3
REMARK VINA RESULT:      -6.6      2.904      4.864
REMARK  Name = 
REMARK  5 active torsions:
REMARK  status: ('A' for Active; 'I' for Inactive)
REMARK    1  A    between atoms: C_1  and  N_2
REMARK    2  A    between atoms: N_2  and  C_3
REMARK    3  A    between atoms: C_4  and  O_6
REMARK    4  A    between atoms: O_6  and  N_7
REMARK    5  A    between atoms: C_17  and  N_18
REMARK                            x       y       z     vdW  Elec       q    Type
REMARK                         _______ _______ _______ _____ _____    ______ ____
ROOT
ATOM      1  N   UNL     1      -2.254  13.952  21.826  0.00  0.00    +0.000 NA
ATOM      2  C   UNL     1      -3.051  13.412  20.983  0.00  0.00    +0.000 C 
ATOM      3  C   UNL     1      -4.506  13.295  20.879  0.00  0.00    +0.000 A 
ATOM      4  C   UNL     1      -5.464  13.772  21.763  0.00  0.00    +0.000 A 
ATOM      5  C   UNL     1      -6.785  13.395  21.560  0.00  0.00    +0.000 A 
ATOM      6  C   UNL     1      -7.110  12.541  20.493  0.00  0.00    +0.000 A 
ATOM      7  C   UNL     1      -6.126  12.072  19.589  0.00  0.00    +0.000 A 
ATOM      8  C   UNL     1      -4.804  12.447  19.790  0.00  0.00    +0.000 A 
ATOM      9  C   UNL     1      -3.556  12.012  19.170  0.00  0.00    +0.000 A 
ATOM     10  C   UNL     1      -2.508  12.571  19.881  0.00  0.00    +0.000 A 
ATOM     11  C   UNL     1      -1.207  12.194  19.680  0.00  0.00    +0.000 A 
ATOM     12  N   UNL     1      -0.949  11.073  18.970  0.00  0.00    +0.000 NA
ATOM     13  C   UNL     1      -1.909  10.630  18.156  0.00  0.00    +0.000 A 
ATOM     14  C   UNL     1      -1.531   9.683  17.254  0.00  0.00    +0.000 A 
ATOM     15  C   UNL     1      -2.032   9.715  15.978  0.00  0.00    +0.000 A 
ATOM     16  C   UNL     1      -3.290  10.255  15.818  0.00  0.00    +0.000 A 
ATOM     17 BR   UNL     1      -4.083  10.173  14.107  0.00  0.00    +0.000 Br
ATOM     18  C   UNL     1      -3.966  10.853  16.917  0.00  0.00    +0.000 A 
ATOM     19  C   UNL     1      -3.223  11.164  18.069  0.00  0.00    +0.000 A 
ENDROOT
BRANCH  11  20
ATOM     20  N   UNL     1      -0.088  13.014  19.996  0.00  0.00    +0.000 N 
ATOM     21  C   UNL     1       0.895  12.707  20.905  0.00  0.00    +0.000 A 
ATOM     22  C   UNL     1       1.847  13.689  20.781  0.00  0.00    +0.000 A 
ATOM     23  N   UNL     1       1.531  14.559  19.782  0.00  0.00    +0.000 NA
ATOM     24  C   UNL     1       0.369  14.135  19.324  0.00  0.00    +0.000 A 
ENDBRANCH  11  20
BRANCH   1  25
ATOM     25  O   UNL     1      -2.879  14.655  22.866  0.00  0.00    +0.000 OA
BRANCH  25  29
ATOM     26  C   UNL     1      -1.610  15.798  26.086  0.00  0.00    +0.000 C 
ATOM     27  N   UNL     1      -2.510  15.499  24.980  0.00  0.00    +0.000 N 
ATOM     28  C   UNL     1      -3.796  16.126  24.923  0.00  0.00    +0.000 C 
ATOM     29  C   UNL     1      -1.960  14.802  23.886  0.00  0.00    +0.000 C 
ATOM     30  O   UNL     1      -0.808  14.394  23.885  0.00  0.00    +0.000 OA
ENDBRANCH  25  29
ENDBRANCH   1  25
TORSDOF 3
ENDMDL
MODEL 4
REMARK VINA RESULT:      -6.5      3.595      7.840
REMARK  Name = 
REMARK  5 active torsions:
REMARK  status: ('A' for Active; 'I' for Inactive)
REMARK    1  A    between atoms: C_1  and  N_2
REMARK    2  A    between atoms: N_2  and  C_3
REMARK    3  A    between atoms: C_4  and  O_6
REMARK    4  A    between atoms: O_6  and  N_7
REMARK    5  A    between atoms: C_17  and  N_18
REMARK                            x       y       z     vdW  Elec       q    Type
REMARK                         _______ _______ _______ _____ _____    ______ ____
ROOT
ATOM      1  N   UNL     1      -1.354  10.933  19.369  0.00  0.00    +0.000 NA
ATOM      2  C   UNL     1      -2.076  11.845  19.904  0.00  0.00    +0.000 C 
ATOM      3  C   UNL     1      -1.971  12.653  21.119  0.00  0.00    +0.000 A 
ATOM      4  C   UNL     1      -0.977  12.612  22.086  0.00  0.00    +0.000 A 
ATOM      5  C   UNL     1      -1.167  13.346  23.249  0.00  0.00    +0.000 A 
ATOM      6  C   UNL     1      -2.350  14.086  23.422  0.00  0.00    +0.000 A 
ATOM      7  C   UNL     1      -3.350  14.132  22.422  0.00  0.00    +0.000 A 
ATOM      8  C   UNL     1      -3.163  13.398  21.257  0.00  0.00    +0.000 A 
ATOM      9  C   UNL     1      -4.049  13.093  20.138  0.00  0.00    +0.000 A 
ATOM     10  C   UNL     1      -3.415  12.160  19.334  0.00  0.00    +0.000 A 
ATOM     11  C   UNL     1      -4.064  11.514  18.315  0.00  0.00    +0.000 A 
ATOM     12  N   UNL     1      -5.412  11.581  18.247  0.00  0.00    +0.000 NA
ATOM     13  C   UNL     1      -6.009  12.586  18.891  0.00  0.00    +0.000 A 
ATOM     14  C   UNL     1      -7.317  12.797  18.580  0.00  0.00    +0.000 A 
ATOM     15  C   UNL     1      -7.798  14.076  18.476  0.00  0.00    +0.000 A 
ATOM     16  C   UNL     1      -7.184  15.035  19.251  0.00  0.00    +0.000 A 
ATOM     17 BR   UNL     1      -7.917  16.775  19.260  0.00  0.00    +0.000 Br
ATOM     18  C   UNL     1      -6.035  14.715  20.023  0.00  0.00    +0.000 A 
ATOM     19  C   UNL     1      -5.356  13.515  19.746  0.00  0.00    +0.000 A 
ENDROOT
BRANCH  11  20
ATOM     20  N   UNL     1      -3.401  10.939  17.195  0.00  0.00    +0.000 N 
ATOM     21  C   UNL     1      -3.086   9.610  17.050  0.00  0.00    +0.000 A 
ATOM     22  C   UNL     1      -2.603   9.471  15.772  0.00  0.00    +0.000 A 
ATOM     23  N   UNL     1      -2.670  10.647  15.090  0.00  0.00    +0.000 NA
ATOM     24  C   UNL     1      -3.152  11.513  15.960  0.00  0.00    +0.000 A 
ENDBRANCH  11  20
BRANCH   1  25
ATOM     25  O   UNL     1      -0.149  10.666  20.035  0.00  0.00    +0.000 OA
BRANCH  25  29
ATOM     26  C   UNL     1       2.066   7.871  19.288  0.00  0.00    +0.000 C 
ATOM     27  N   UNL     1       1.184   8.786  20.000  0.00  0.00    +0.000 N 
ATOM     28  C   UNL     1       1.161   8.777  21.431  0.00  0.00    +0.000 C 
ATOM     29  C   UNL     1       0.590   9.813  19.241  0.00  0.00    +0.000 C 
ATOM     30  O   UNL     1       0.736   9.897  18.030  0.00  0.00    +0.000 OA
ENDBRANCH  25  29
ENDBRANCH   1  25
TORSDOF 3
ENDMDL
MODEL 5
REMARK VINA RESULT:      -6.4      2.874      4.617
REMARK  Name = 
REMARK  5 active torsions:
REMARK  status: ('A' for Active; 'I' for Inactive)
REMARK    1  A    between atoms: C_1  and  N_2
REMARK    2  A    between atoms: N_2  and  C_3
REMARK    3  A    between atoms: C_4  and  O_6
REMARK    4  A    between atoms: O_6  and  N_7
REMARK    5  A    between atoms: C_17  and  N_18
REMARK                            x       y       z     vdW  Elec       q    Type
REMARK                         _______ _______ _______ _____ _____    ______ ____
ROOT
ATOM      1  N   UNL     1      -3.006  13.983  21.910  0.00  0.00    +0.000 NA
ATOM      2  C   UNL     1      -3.693  13.400  21.000  0.00  0.00    +0.000 C 
ATOM      3  C   UNL     1      -5.123  13.195  20.771  0.00  0.00    +0.000 A 
ATOM      4  C   UNL     1      -6.182  13.606  21.569  0.00  0.00    +0.000 A 
ATOM      5  C   UNL     1      -7.454  13.151  21.252  0.00  0.00    +0.000 A 
ATOM      6  C   UNL     1      -7.633  12.284  20.160  0.00  0.00    +0.000 A 
ATOM      7  C   UNL     1      -6.548  11.883  19.344  0.00  0.00    +0.000 A 
ATOM      8  C   UNL     1      -5.273  12.337  19.659  0.00  0.00    +0.000 A 
ATOM      9  C   UNL     1      -3.952  11.983  19.149  0.00  0.00    +0.000 A 
ATOM     10  C   UNL     1      -3.006  12.601  19.948  0.00  0.00    +0.000 A 
ATOM     11  C   UNL     1      -1.671  12.306  19.860  0.00  0.00    +0.000 A 
ATOM     12  N   UNL     1      -1.285  11.207  19.174  0.00  0.00    +0.000 NA
ATOM     13  C   UNL     1      -2.142  10.711  18.280  0.00  0.00    +0.000 A 
ATOM     14  C   UNL     1      -1.630   9.794  17.413  0.00  0.00    +0.000 A 
ATOM     15  C   UNL     1      -2.020   9.804  16.099  0.00  0.00    +0.000 A 
ATOM     16  C   UNL     1      -3.290  10.267  15.831  0.00  0.00    +0.000 A 
ATOM     17 BR   UNL     1      -3.926  10.147  14.058  0.00  0.00    +0.000 Br
ATOM     18  C   UNL     1      -4.094  10.815  16.868  0.00  0.00    +0.000 A 
ATOM     19  C   UNL     1      -3.474  11.164  18.081  0.00  0.00    +0.000 A 
ENDROOT
BRANCH  11  20
ATOM     20  N   UNL     1      -0.637  13.191  20.273  0.00  0.00    +0.000 N 
ATOM     21  C   UNL     1       0.328  12.910  21.210  0.00  0.00    +0.000 A 
ATOM     22  C   UNL     1       1.202  13.968  21.184  0.00  0.00    +0.000 A 
ATOM     23  N   UNL     1       0.861  14.866  20.219  0.00  0.00    +0.000 NA
ATOM     24  C   UNL     1      -0.242  14.380  19.684  0.00  0.00    +0.000 A 
ENDBRANCH  11  20
BRANCH   1  25
ATOM     25  O   UNL     1      -3.761  14.640  22.892  0.00  0.00    +0.000 OA
BRANCH  25  29
ATOM     26  C   UNL     1      -3.761  18.136  23.918  0.00  0.00    +0.000 C 
ATOM     27  N   UNL     1      -4.118  16.730  23.797  0.00  0.00    +0.000 N 
ATOM     28  C   UNL     1      -5.404  16.285  24.244  0.00  0.00    +0.000 C 
ATOM     29  C   UNL     1      -3.275  15.926  23.005  0.00  0.00    +0.000 C 
ATOM     30  O   UNL     1      -2.246  16.358  22.504  0.00  0.00    +0.000 OA
ENDBRANCH  25  29
ENDBRANCH   1  25
TORSDOF 3
ENDMDL
MODEL 6
REMARK VINA RESULT:      -6.3      3.919      7.806
REMARK  Name = 
REMARK  5 active torsions:
REMARK  status: ('A' for Active; 'I' for Inactive)
REMARK    1  A    between atoms: C_1  and  N_2
REMARK    2  A    between atoms: N_2  and  C_3
REMARK    3  A    between atoms: C_4  and  O_6
REMARK    4  A    between atoms: O_6  and  N_7
REMARK    5  A    between atoms: C_17  and  N_18
REMARK                            x       y       z     vdW  Elec       q    Type
REMARK                         _______ _______ _______ _____ _____    ______ ____
ROOT
ATOM      1  N   UNL     1      -4.382  12.196  18.968  0.00  0.00    +0.000 NA
ATOM      2  C   UNL     1      -3.947  12.741  20.042  0.00  0.00    +0.000 C 
ATOM      3  C   UNL     1      -2.723  12.611  20.834  0.00  0.00    +0.000 A 
ATOM      4  C   UNL     1      -1.642  11.774  20.599  0.00  0.00    +0.000 A 
ATOM      5  C   UNL     1      -0.661  11.685  21.577  0.00  0.00    +0.000 A 
ATOM      6  C   UNL     1      -0.794  12.420  22.767  0.00  0.00    +0.000 A 
ATOM      7  C   UNL     1      -1.894  13.283  22.989  0.00  0.00    +0.000 A 
ATOM      8  C   UNL     1      -2.878  13.373  22.013  0.00  0.00    +0.000 A 
ATOM      9  C   UNL     1      -4.191  14.010  22.000  0.00  0.00    +0.000 A 
ATOM     10  C   UNL     1      -4.839  13.630  20.836  0.00  0.00    +0.000 A 
ATOM     11  C   UNL     1      -6.166  13.892  20.622  0.00  0.00    +0.000 A 
ATOM     12  N   UNL     1      -6.934  14.292  21.660  0.00  0.00    +0.000 NA
ATOM     13  C   UNL     1      -6.310  14.814  22.717  0.00  0.00    +0.000 A 
ATOM     14  C   UNL     1      -7.103  15.461  23.615  0.00  0.00    +0.000 A 
ATOM     15  C   UNL     1      -6.664  16.617  24.208  0.00  0.00    +0.000 A 
ATOM     16  C   UNL     1      -5.303  16.749  24.377  0.00  0.00    +0.000 A 
ATOM     17 BR   UNL     1      -4.667  18.247  25.333  0.00  0.00    +0.000 Br
ATOM     18  C   UNL     1      -4.410  15.778  23.848  0.00  0.00    +0.000 A 
ATOM     19  C   UNL     1      -4.901  14.868  22.895  0.00  0.00    +0.000 A 
ENDROOT
BRANCH  11  20
ATOM     20  N   UNL     1      -6.757  13.969  19.330  0.00  0.00    +0.000 N 
ATOM     21  C   UNL     1      -6.545  14.969  18.413  0.00  0.00    +0.000 A 
ATOM     22  C   UNL     1      -7.178  14.570  17.262  0.00  0.00    +0.000 A 
ATOM     23  N   UNL     1      -7.719  13.328  17.402  0.00  0.00    +0.000 NA
ATOM     24  C   UNL     1      -7.454  12.986  18.647  0.00  0.00    +0.000 A 
ENDBRANCH  11  20
BRANCH   1  25
ATOM     25  O   UNL     1      -3.484  11.316  18.346  0.00  0.00    +0.000 OA
BRANCH  25  29
ATOM     26  C   UNL     1      -3.137  10.322  14.857  0.00  0.00    +0.000 C 
ATOM     27  N   UNL     1      -2.955  10.394  16.300  0.00  0.00    +0.000 N 
ATOM     28  C   UNL     1      -1.794   9.807  16.898  0.00  0.00    +0.000 C 
ATOM     29  C   UNL     1      -3.807  11.266  17.005  0.00  0.00    +0.000 C 
ATOM     30  O   UNL     1      -4.711  11.879  16.455  0.00  0.00    +0.000 OA
ENDBRANCH  25  29
ENDBRANCH   1  25
TORSDOF 3
ENDMDL
MODEL 7
REMARK VINA RESULT:      -6.3      2.918      4.664
REMARK  Name = 
REMARK  5 active torsions:
REMARK  status: ('A' for Active; 'I' for Inactive)
REMARK    1  A    between atoms: C_1  and  N_2
REMARK    2  A    between atoms: N_2  and  C_3
REMARK    3  A    between atoms: C_4  and  O_6
REMARK    4  A    between atoms: O_6  and  N_7
REMARK    5  A    between atoms: C_17  and  N_18
REMARK                            x       y       z     vdW  Elec       q    Type
REMARK                         _______ _______ _______ _____ _____    ______ ____
ROOT
ATOM      1  N   UNL     1      -3.662  14.472  22.323  0.00  0.00    +0.000 NA
ATOM      2  C   UNL     1      -4.183  13.725  21.424  0.00  0.00    +0.000 C 
ATOM      3  C   UNL     1      -5.538  13.247  21.148  0.00  0.00    +0.000 A 
ATOM      4  C   UNL     1      -6.694  13.500  21.873  0.00  0.00    +0.000 A 
ATOM      5  C   UNL     1      -7.844  12.801  21.532  0.00  0.00    +0.000 A 
ATOM      6  C   UNL     1      -7.805  11.859  20.490  0.00  0.00    +0.000 A 
ATOM      7  C   UNL     1      -6.624  11.620  19.748  0.00  0.00    +0.000 A 
ATOM      8  C   UNL     1      -5.471  12.317  20.087  0.00  0.00    +0.000 A 
ATOM      9  C   UNL     1      -4.083  12.186  19.656  0.00  0.00    +0.000 A 
ATOM     10  C   UNL     1      -3.308  13.010  20.455  0.00  0.00    +0.000 A 
ATOM     11  C   UNL     1      -1.939  12.961  20.441  0.00  0.00    +0.000 A 
ATOM     12  N   UNL     1      -1.324  11.917  19.842  0.00  0.00    +0.000 NA
ATOM     13  C   UNL     1      -2.028  11.224  18.946  0.00  0.00    +0.000 A 
ATOM     14  C   UNL     1      -1.313  10.372  18.161  0.00  0.00    +0.000 A 
ATOM     15  C   UNL     1      -1.629  10.238  16.833  0.00  0.00    +0.000 A 
ATOM     16  C   UNL     1      -2.945  10.444  16.484  0.00  0.00    +0.000 A 
ATOM     17 BR   UNL     1      -3.454  10.113  14.697  0.00  0.00    +0.000 Br
ATOM     18  C   UNL     1      -3.889  10.890  17.449  0.00  0.00    +0.000 A 
ATOM     19  C   UNL     1      -3.408  11.412  18.663  0.00  0.00    +0.000 A 
ENDROOT
BRANCH  11  20
ATOM     20  N   UNL     1      -1.106  14.043  20.841  0.00  0.00    +0.000 N 
ATOM     21  C   UNL     1      -0.222  14.024  21.893  0.00  0.00    +0.000 A 
ATOM     22  C   UNL     1       0.478  15.203  21.823  0.00  0.00    +0.000 A 
ATOM     23  N   UNL     1       0.115  15.927  20.728  0.00  0.00    +0.000 NA
ATOM     24  C   UNL     1      -0.833  15.213  20.153  0.00  0.00    +0.000 A 
ENDBRANCH  11  20
BRANCH   1  25
ATOM     25  O   UNL     1      -4.574  15.031  23.230  0.00  0.00    +0.000 OA
BRANCH  25  29
ATOM     26  C   UNL     1      -3.806  17.887  25.359  0.00  0.00    +0.000 C 
ATOM     27  N   UNL     1      -4.509  16.976  24.467  0.00  0.00    +0.000 N 
ATOM     28  C   UNL     1      -5.669  17.430  23.760  0.00  0.00    +0.000 C 
ATOM     29  C   UNL     1      -3.856  15.769  24.148  0.00  0.00    +0.000 C 
ATOM     30  O   UNL     1      -2.786  15.455  24.651  0.00  0.00    +0.000 OA
ENDBRANCH  25  29
ENDBRANCH   1  25
TORSDOF 3
ENDMDL
MODEL 8
REMARK VINA RESULT:      -6.2      2.746      4.807
REMARK  Name = 
REMARK  5 active torsions:
REMARK  status: ('A' for Active; 'I' for Inactive)
REMARK    1  A    between atoms: C_1  and  N_2
REMARK    2  A    between atoms: N_2  and  C_3
REMARK    3  A    between atoms: C_4  and  O_6
REMARK    4  A    between atoms: O_6  and  N_7
REMARK    5  A    between atoms: C_17  and  N_18
REMARK                            x       y       z     vdW  Elec       q    Type
REMARK                         _______ _______ _______ _____ _____    ______ ____
ROOT
ATOM      1  N   UNL     1      -3.338  14.414  22.343  0.00  0.00    +0.000 NA
ATOM      2  C   UNL     1      -3.921  13.719  21.440  0.00  0.00    +0.000 C 
ATOM      3  C   UNL     1      -5.311  13.344  21.175  0.00  0.00    +0.000 A 
ATOM      4  C   UNL     1      -6.437  13.667  21.918  0.00  0.00    +0.000 A 
ATOM      5  C   UNL     1      -7.638  13.057  21.582  0.00  0.00    +0.000 A 
ATOM      6  C   UNL     1      -7.678  12.131  20.526  0.00  0.00    +0.000 A 
ATOM      7  C   UNL     1      -6.526  11.820  19.765  0.00  0.00    +0.000 A 
ATOM      8  C   UNL     1      -5.323  12.428  20.100  0.00  0.00    +0.000 A 
ATOM      9  C   UNL     1      -3.952  12.204  19.649  0.00  0.00    +0.000 A 
ATOM     10  C   UNL     1      -3.111  12.959  20.449  0.00  0.00    +0.000 A 
ATOM     11  C   UNL     1      -1.749  12.813  20.418  0.00  0.00    +0.000 A 
ATOM     12  N   UNL     1      -1.218  11.736  19.796  0.00  0.00    +0.000 NA
ATOM     13  C   UNL     1      -1.980  11.109  18.899  0.00  0.00    +0.000 A 
ATOM     14  C   UNL     1      -1.338  10.220  18.092  0.00  0.00    +0.000 A 
ATOM     15  C   UNL     1      -1.678  10.129  16.767  0.00  0.00    +0.000 A 
ATOM     16  C   UNL     1      -2.980  10.434  16.438  0.00  0.00    +0.000 A 
ATOM     17 BR   UNL     1      -3.533  10.168  14.652  0.00  0.00    +0.000 Br
ATOM     18  C   UNL     1      -3.878  10.932  17.421  0.00  0.00    +0.000 A 
ATOM     19  C   UNL     1      -3.347  11.400  18.636  0.00  0.00    +0.000 A 
ENDROOT
BRANCH  11  20
ATOM     20  N   UNL     1      -0.836  13.826  20.821  0.00  0.00    +0.000 N 
ATOM     21  C   UNL     1       0.099  13.706  21.821  0.00  0.00    +0.000 A 
ATOM     22  C   UNL     1       0.860  14.847  21.769  0.00  0.00    +0.000 A 
ATOM     23  N   UNL     1       0.482  15.645  20.731  0.00  0.00    +0.000 NA
ATOM     24  C   UNL     1      -0.534  15.013  20.176  0.00  0.00    +0.000 A 
ENDBRANCH  11  20
BRANCH   1  25
ATOM     25  O   UNL     1      -4.197  15.022  23.269  0.00  0.00    +0.000 OA
BRANCH  25  29
ATOM     26  C   UNL     1      -2.319  17.455  25.227  0.00  0.00    +0.000 C 
ATOM     27  N   UNL     1      -2.863  16.196  24.738  0.00  0.00    +0.000 N 
ATOM     28  C   UNL     1      -2.788  15.025  25.560  0.00  0.00    +0.000 C 
ATOM     29  C   UNL     1      -3.668  16.258  23.585  0.00  0.00    +0.000 C 
ATOM     30  O   UNL     1      -3.845  17.299  22.968  0.00  0.00    +0.000 OA
ENDBRANCH  25  29
ENDBRANCH   1  25
TORSDOF 3
ENDMDL
MODEL 9
REMARK VINA RESULT:      -6.2      3.520      6.556
REMARK  Name = 
REMARK  5 active torsions:
REMARK  status: ('A' for Active; 'I' for Inactive)
REMARK    1  A    between atoms: C_1  and  N_2
REMARK    2  A    between atoms: N_2  and  C_3
REMARK    3  A    between atoms: C_4  and  O_6
REMARK    4  A    between atoms: O_6  and  N_7
REMARK    5  A    between atoms: C_17  and  N_18
REMARK                            x       y       z     vdW  Elec       q    Type
REMARK                         _______ _______ _______ _____ _____    ______ ____
ROOT
ATOM      1  N   UNL     1      -0.092   9.731  18.945  0.00  0.00    +0.000 NA
ATOM      2  C   UNL     1      -1.221  10.291  18.726  0.00  0.00    +0.000 C 
ATOM      3  C   UNL     1      -2.143  10.329  17.590  0.00  0.00    +0.000 A 
ATOM      4  C   UNL     1      -1.994   9.721  16.352  0.00  0.00    +0.000 A 
ATOM      5  C   UNL     1      -2.910  10.033  15.357  0.00  0.00    +0.000 A 
ATOM      6  C   UNL     1      -3.938  10.954  15.619  0.00  0.00    +0.000 A 
ATOM      7  C   UNL     1      -4.089  11.557  16.891  0.00  0.00    +0.000 A 
ATOM      8  C   UNL     1      -3.173  11.248  17.888  0.00  0.00    +0.000 A 
ATOM      9  C   UNL     1      -2.942  11.809  19.216  0.00  0.00    +0.000 A 
ATOM     10  C   UNL     1      -1.775  11.255  19.716  0.00  0.00    +0.000 A 
ATOM     11  C   UNL     1      -1.173  11.727  20.853  0.00  0.00    +0.000 A 
ATOM     12  N   UNL     1      -1.564  12.918  21.358  0.00  0.00    +0.000 NA
ATOM     13  C   UNL     1      -2.766  13.371  21.000  0.00  0.00    +0.000 A 
ATOM     14  C   UNL     1      -3.250  14.413  21.730  0.00  0.00    +0.000 A 
ATOM     15  C   UNL     1      -4.581  14.460  22.057  0.00  0.00    +0.000 A 
ATOM     16  C   UNL     1      -5.457  13.860  21.179  0.00  0.00    +0.000 A 
ATOM     17 BR   UNL     1      -7.308  14.041  21.507  0.00  0.00    +0.000 Br
ATOM     18  C   UNL     1      -4.974  13.131  20.059  0.00  0.00    +0.000 A 
ATOM     19  C   UNL     1      -3.616  12.767  20.033  0.00  0.00    +0.000 A 
ENDROOT
BRANCH  11  20
ATOM     20  N   UNL     1      -0.297  10.952  21.662  0.00  0.00    +0.000 N 
ATOM     21  C   UNL     1      -0.685  10.092  22.662  0.00  0.00    +0.000 A 
ATOM     22  C   UNL     1       0.455   9.444  23.069  0.00  0.00    +0.000 A 
ATOM     23  N   UNL     1       1.528   9.814  22.316  0.00  0.00    +0.000 NA
ATOM     24  C   UNL     1       1.055  10.715  21.479  0.00  0.00    +0.000 A 
ENDBRANCH  11  20
BRANCH   1  25
ATOM     25  O   UNL     1       0.369   8.904  17.910  0.00  0.00    +0.000 OA
BRANCH  25  29
ATOM     26  C   UNL     1       3.895   7.995  17.768  0.00  0.00    +0.000 C 
ATOM     27  N   UNL     1       2.443   7.901  17.807  0.00  0.00    +0.000 N 
ATOM     28  C   UNL     1       1.822   6.651  18.130  0.00  0.00    +0.000 C 
ATOM     29  C   UNL     1       1.727   9.114  17.778  0.00  0.00    +0.000 C 
ATOM     30  O   UNL     1       2.283  10.195  17.647  0.00  0.00    +0.000 OA
ENDBRANCH  25  29
ENDBRANCH   1  25
TORSDOF 3
ENDMDL
