MODEL 1
REMARK VINA RESULT:      -8.9      0.000      0.000
REMARK  Name = 
REMARK  7 active torsions:
REMARK  status: ('A' for Active; 'I' for Inactive)
REMARK    1  A    between atoms: C_1  and  O_2
REMARK    2  A    between atoms: O_2  and  C_3
REMARK    3  A    between atoms: N_14  and  C_15
REMARK    4  A    between atoms: C_15  and  C_16
REMARK    5  A    between atoms: C_16  and  C_17
REMARK    6  A    between atoms: C_17  and  C_18
REMARK    7  A    between atoms: C_18  and  C_19
REMARK                            x       y       z     vdW  Elec       q    Type
REMARK                         _______ _______ _______ _____ _____    ______ ____
ROOT
ATOM      1  C   UNL     1       7.922   8.718  17.571  0.00  0.00    +0.000 C 
ENDROOT
BRANCH   1  13
ATOM      2  C   UNL     1       2.547   2.864  18.197  0.00  0.00    +0.000 A 
ATOM      3  C   UNL     1       3.246   2.203  19.211  0.00  0.00    +0.000 A 
ATOM      4  C   UNL     1       4.528   2.604  19.609  0.00  0.00    +0.000 A 
ATOM      5  C   UNL     1       5.065   3.729  18.959  0.00  0.00    +0.000 A 
ATOM      6  N   UNL     1       6.279   4.355  19.136  0.00  0.00    +0.000 N 
ATOM      7  C   UNL     1       6.333   5.456  18.324  0.00  0.00    +0.000 A 
ATOM      8  C   UNL     1       5.193   5.499  17.568  0.00  0.00    +0.000 A 
ATOM      9  C   UNL     1       4.371   4.412  17.967  0.00  0.00    +0.000 A 
ATOM     10  C   UNL     1       3.098   3.989  17.585  0.00  0.00    +0.000 A 
ATOM     11  C   UNL     1       4.961   6.589  16.597  0.00  0.00    +0.000 C 
ATOM     12  C   UNL     1       5.808   7.808  17.005  0.00  0.00    +0.000 C 
ATOM     13  N   UNL     1       7.236   7.470  17.246  0.00  0.00    +0.000 NA
ATOM     14  C   UNL     1       7.425   6.468  18.329  0.00  0.00    +0.000 C 
ATOM     15  H   UNL     1       6.980   4.073  19.794  0.00  0.00    +0.000 HD
BRANCH   2  17
ATOM     16  C   UNL     1       0.390   2.351  18.981  0.00  0.00    +0.000 C 
ATOM     17  O   UNL     1       1.310   2.355  17.891  0.00  0.00    +0.000 OA
ENDBRANCH   2  17
ENDBRANCH   1  13
BRANCH   1  18
ATOM     18  C   UNL     1       8.876   8.611  18.746  0.00  0.00    +0.000 C 
BRANCH  18  19
ATOM     19  C   UNL     1       9.002  10.011  19.346  0.00  0.00    +0.000 C 
BRANCH  19  20
ATOM     20  C   UNL     1       9.597  10.942  18.313  0.00  0.00    +0.000 C 
BRANCH  20  21
ATOM     21  C   UNL     1      10.138  12.353  18.752  0.00  0.00    +0.000 C 
ATOM     22  C   UNL     1       9.451  12.576  20.128  0.00  0.00    +0.000 C 
ATOM     23  C   UNL     1       9.257  14.003  20.642  0.00  0.00    +0.000 C 
ATOM     24  C   UNL     1       8.659  14.913  19.567  0.00  0.00    +0.000 C 
ATOM     25  C   UNL     1       9.518  14.863  18.341  0.00  0.00    +0.000 A 
ATOM     26  C   UNL     1       9.904  16.065  17.717  0.00  0.00    +0.000 A 
ATOM     27  C   UNL     1      10.929  16.077  16.763  0.00  0.00    +0.000 A 
ATOM     28  C   UNL     1      11.596  14.898  16.441  0.00  0.00    +0.000 A 
ATOM     29  C   UNL     1      11.198  13.736  17.092  0.00  0.00    +0.000 A 
ATOM     30  C   UNL     1      10.108  13.654  17.955  0.00  0.00    +0.000 A 
ATOM     31  N   UNL     1      12.025  12.645  17.303  0.00  0.00    +0.000 N 
ATOM     32  C   UNL     1      11.647  11.987  18.488  0.00  0.00    +0.000 C 
ATOM     33  O   UNL     1      12.333  11.137  19.045  0.00  0.00    +0.000 OA
ATOM     34  H   UNL     1      12.938  12.533  16.883  0.00  0.00    +0.000 HD
ENDBRANCH  20  21
ENDBRANCH  19  20
ENDBRANCH  18  19
ENDBRANCH   1  18
TORSDOF 6
ENDMDL
MODEL 2
REMARK VINA RESULT:      -8.7      6.969     10.237
REMARK  Name = 
REMARK  7 active torsions:
REMARK  status: ('A' for Active; 'I' for Inactive)
REMARK    1  A    between atoms: C_1  and  O_2
REMARK    2  A    between atoms: O_2  and  C_3
REMARK    3  A    between atoms: N_14  and  C_15
REMARK    4  A    between atoms: C_15  and  C_16
REMARK    5  A    between atoms: C_16  and  C_17
REMARK    6  A    between atoms: C_17  and  C_18
REMARK    7  A    between atoms: C_18  and  C_19
REMARK                            x       y       z     vdW  Elec       q    Type
REMARK                         _______ _______ _______ _____ _____    ______ ____
ROOT
ATOM      1  C   UNL     1       1.873   7.438  20.142  0.00  0.00    +0.000 C 
ENDROOT
BRANCH   1  13
ATOM      2  C   UNL     1      -3.110  12.999  22.937  0.00  0.00    +0.000 A 
ATOM      3  C   UNL     1      -3.346  13.554  21.677  0.00  0.00    +0.000 A 
ATOM      4  C   UNL     1      -2.630  13.149  20.543  0.00  0.00    +0.000 A 
ATOM      5  C   UNL     1      -1.682  12.129  20.730  0.00  0.00    +0.000 A 
ATOM      6  N   UNL     1      -0.843  11.525  19.819  0.00  0.00    +0.000 N 
ATOM      7  C   UNL     1      -0.143  10.532  20.449  0.00  0.00    +0.000 A 
ATOM      8  C   UNL     1      -0.468  10.545  21.779  0.00  0.00    +0.000 A 
ATOM      9  C   UNL     1      -1.453  11.548  21.972  0.00  0.00    +0.000 A 
ATOM     10  C   UNL     1      -2.176  11.974  23.086  0.00  0.00    +0.000 A 
ATOM     11  C   UNL     1       0.128   9.573  22.720  0.00  0.00    +0.000 C 
ATOM     12  C   UNL     1       0.604   8.341  21.929  0.00  0.00    +0.000 C 
ATOM     13  N   UNL     1       1.455   8.693  20.761  0.00  0.00    +0.000 NA
ATOM     14  C   UNL     1       0.761   9.562  19.773  0.00  0.00    +0.000 C 
ATOM     15  H   UNL     1      -0.799  11.748  18.842  0.00  0.00    +0.000 HD
BRANCH   2  17
ATOM     16  C   UNL     1      -5.205  13.012  24.003  0.00  0.00    +0.000 C 
ATOM     17  O   UNL     1      -3.865  13.500  23.966  0.00  0.00    +0.000 OA
ENDBRANCH   2  17
ENDBRANCH   1  13
BRANCH   1  18
ATOM     18  C   UNL     1       2.495   7.603  18.768  0.00  0.00    +0.000 C 
BRANCH  18  19
ATOM     19  C   UNL     1       2.743   6.198  18.219  0.00  0.00    +0.000 C 
BRANCH  19  20
ATOM     20  C   UNL     1       3.752   5.494  19.098  0.00  0.00    +0.000 C 
BRANCH  20  21
ATOM     21  C   UNL     1       5.109   4.990  18.480  0.00  0.00    +0.000 C 
ATOM     22  C   UNL     1       6.176   5.692  19.365  0.00  0.00    +0.000 C 
ATOM     23  C   UNL     1       7.578   5.925  18.802  0.00  0.00    +0.000 C 
ATOM     24  C   UNL     1       7.528   6.536  17.400  0.00  0.00    +0.000 C 
ATOM     25  C   UNL     1       6.693   5.667  16.509  0.00  0.00    +0.000 A 
ATOM     26  C   UNL     1       7.183   5.306  15.239  0.00  0.00    +0.000 A 
ATOM     27  C   UNL     1       6.580   4.275  14.508  0.00  0.00    +0.000 A 
ATOM     28  C   UNL     1       5.501   3.578  15.046  0.00  0.00    +0.000 A 
ATOM     29  C   UNL     1       5.059   3.952  16.310  0.00  0.00    +0.000 A 
ATOM     30  C   UNL     1       5.548   5.046  17.020  0.00  0.00    +0.000 A 
ATOM     31  N   UNL     1       4.405   3.100  17.185  0.00  0.00    +0.000 N 
ATOM     32  C   UNL     1       4.694   3.471  18.511  0.00  0.00    +0.000 C 
ATOM     33  O   UNL     1       4.448   2.768  19.485  0.00  0.00    +0.000 OA
ATOM     34  H   UNL     1       4.063   2.182  16.936  0.00  0.00    +0.000 HD
ENDBRANCH  20  21
ENDBRANCH  19  20
ENDBRANCH  18  19
ENDBRANCH   1  18
TORSDOF 6
ENDMDL
MODEL 3
REMARK VINA RESULT:      -8.7      6.843     10.195
REMARK  Name = 
REMARK  7 active torsions:
REMARK  status: ('A' for Active; 'I' for Inactive)
REMARK    1  A    between atoms: C_1  and  O_2
REMARK    2  A    between atoms: O_2  and  C_3
REMARK    3  A    between atoms: N_14  and  C_15
REMARK    4  A    between atoms: C_15  and  C_16
REMARK    5  A    between atoms: C_16  and  C_17
REMARK    6  A    between atoms: C_17  and  C_18
REMARK    7  A    between atoms: C_18  and  C_19
REMARK                            x       y       z     vdW  Elec       q    Type
REMARK                         _______ _______ _______ _____ _____    ______ ____
ROOT
ATOM      1  C   UNL     1       1.629   8.253  17.930  0.00  0.00    +0.000 C 
ENDROOT
BRANCH   1  13
ATOM      2  C   UNL     1      -2.656  12.819  22.864  0.00  0.00    +0.000 A 
ATOM      3  C   UNL     1      -3.489  13.298  21.849  0.00  0.00    +0.000 A 
ATOM      4  C   UNL     1      -3.247  13.016  20.499  0.00  0.00    +0.000 A 
ATOM      5  C   UNL     1      -2.140  12.197  20.216  0.00  0.00    +0.000 A 
ATOM      6  N   UNL     1      -1.661  11.746  19.005  0.00  0.00    +0.000 N 
ATOM      7  C   UNL     1      -0.596  10.915  19.230  0.00  0.00    +0.000 A 
ATOM      8  C   UNL     1      -0.338  10.890  20.574  0.00  0.00    +0.000 A 
ATOM      9  C   UNL     1      -1.317  11.692  21.216  0.00  0.00    +0.000 A 
ATOM     10  C   UNL     1      -1.577  11.993  22.554  0.00  0.00    +0.000 A 
ATOM     11  C   UNL     1       0.758  10.065  21.125  0.00  0.00    +0.000 C 
ATOM     12  C   UNL     1       1.076   8.932  20.133  0.00  0.00    +0.000 C 
ATOM     13  N   UNL     1       1.288   9.417  18.743  0.00  0.00    +0.000 NA
ATOM     14  C   UNL     1       0.104  10.122  18.184  0.00  0.00    +0.000 C 
ATOM     15  H   UNL     1      -2.066  11.957  18.113  0.00  0.00    +0.000 HD
BRANCH   2  17
ATOM     16  C   UNL     1      -3.933  14.258  24.216  0.00  0.00    +0.000 C 
ATOM     17  O   UNL     1      -2.994  13.187  24.142  0.00  0.00    +0.000 OA
ENDBRANCH   2  17
ENDBRANCH   1  13
BRANCH   1  18
ATOM     18  C   UNL     1       2.945   7.599  18.309  0.00  0.00    +0.000 C 
BRANCH  18  19
ATOM     19  C   UNL     1       2.698   6.092  18.351  0.00  0.00    +0.000 C 
BRANCH  19  20
ATOM     20  C   UNL     1       3.756   5.440  19.213  0.00  0.00    +0.000 C 
BRANCH  20  21
ATOM     21  C   UNL     1       5.104   4.954  18.562  0.00  0.00    +0.000 C 
ATOM     22  C   UNL     1       6.182   5.683  19.412  0.00  0.00    +0.000 C 
ATOM     23  C   UNL     1       7.564   5.936  18.808  0.00  0.00    +0.000 C 
ATOM     24  C   UNL     1       7.464   6.534  17.403  0.00  0.00    +0.000 C 
ATOM     25  C   UNL     1       6.621   5.643  16.543  0.00  0.00    +0.000 A 
ATOM     26  C   UNL     1       7.082   5.280  15.262  0.00  0.00    +0.000 A 
ATOM     27  C   UNL     1       6.478   4.232  14.557  0.00  0.00    +0.000 A 
ATOM     28  C   UNL     1       5.427   3.520  15.130  0.00  0.00    +0.000 A 
ATOM     29  C   UNL     1       5.014   3.898  16.402  0.00  0.00    +0.000 A 
ATOM     30  C   UNL     1       5.502   5.006  17.090  0.00  0.00    +0.000 A 
ATOM     31  N   UNL     1       4.399   3.041  17.302  0.00  0.00    +0.000 N 
ATOM     32  C   UNL     1       4.718   3.428  18.616  0.00  0.00    +0.000 C 
ATOM     33  O   UNL     1       4.511   2.730  19.602  0.00  0.00    +0.000 OA
ATOM     34  H   UNL     1       4.067   2.116  17.070  0.00  0.00    +0.000 HD
ENDBRANCH  20  21
ENDBRANCH  19  20
ENDBRANCH  18  19
ENDBRANCH   1  18
TORSDOF 6
ENDMDL
MODEL 4
REMARK VINA RESULT:      -8.6      6.373      9.765
REMARK  Name = 
REMARK  7 active torsions:
REMARK  status: ('A' for Active; 'I' for Inactive)
REMARK    1  A    between atoms: C_1  and  O_2
REMARK    2  A    between atoms: O_2  and  C_3
REMARK    3  A    between atoms: N_14  and  C_15
REMARK    4  A    between atoms: C_15  and  C_16
REMARK    5  A    between atoms: C_16  and  C_17
REMARK    6  A    between atoms: C_17  and  C_18
REMARK    7  A    between atoms: C_18  and  C_19
REMARK                            x       y       z     vdW  Elec       q    Type
REMARK                         _______ _______ _______ _____ _____    ______ ____
ROOT
ATOM      1  C   UNL     1       2.825   7.804  18.412  0.00  0.00    +0.000 C 
ENDROOT
BRANCH   1  13
ATOM      2  C   UNL     1      -2.434  13.024  21.354  0.00  0.00    +0.000 A 
ATOM      3  C   UNL     1      -2.137  12.716  22.684  0.00  0.00    +0.000 A 
ATOM      4  C   UNL     1      -1.290  11.655  23.027  0.00  0.00    +0.000 A 
ATOM      5  C   UNL     1      -0.724  10.933  21.962  0.00  0.00    +0.000 A 
ATOM      6  N   UNL     1       0.140   9.860  21.983  0.00  0.00    +0.000 N 
ATOM      7  C   UNL     1       0.475   9.534  20.696  0.00  0.00    +0.000 A 
ATOM      8  C   UNL     1      -0.229  10.342  19.843  0.00  0.00    +0.000 A 
ATOM      9  C   UNL     1      -0.989  11.244  20.633  0.00  0.00    +0.000 A 
ATOM     10  C   UNL     1      -1.841  12.303  20.319  0.00  0.00    +0.000 A 
ATOM     11  C   UNL     1      -0.067  10.230  18.378  0.00  0.00    +0.000 C 
ATOM     12  C   UNL     1       1.297   9.585  18.075  0.00  0.00    +0.000 C 
ATOM     13  N   UNL     1       1.528   8.327  18.835  0.00  0.00    +0.000 NA
ATOM     14  C   UNL     1       1.492   8.519  20.309  0.00  0.00    +0.000 C 
ATOM     15  H   UNL     1       0.500   9.428  22.813  0.00  0.00    +0.000 HD
BRANCH   2  17
ATOM     16  C   UNL     1      -4.075  14.415  22.302  0.00  0.00    +0.000 C 
ATOM     17  O   UNL     1      -3.294  14.075  21.158  0.00  0.00    +0.000 OA
ENDBRANCH   2  17
ENDBRANCH   1  13
BRANCH   1  18
ATOM     18  C   UNL     1       2.749   6.467  17.698  0.00  0.00    +0.000 C 
BRANCH  18  19
ATOM     19  C   UNL     1       2.672   5.389  18.779  0.00  0.00    +0.000 C 
BRANCH  19  20
ATOM     20  C   UNL     1       3.995   5.323  19.509  0.00  0.00    +0.000 C 
BRANCH  20  21
ATOM     21  C   UNL     1       5.294   4.887  18.735  0.00  0.00    +0.000 C 
ATOM     22  C   UNL     1       6.421   5.641  19.495  0.00  0.00    +0.000 C 
ATOM     23  C   UNL     1       7.734   5.942  18.773  0.00  0.00    +0.000 C 
ATOM     24  C   UNL     1       7.491   6.551  17.390  0.00  0.00    +0.000 C 
ATOM     25  C   UNL     1       6.602   5.642  16.598  0.00  0.00    +0.000 A 
ATOM     26  C   UNL     1       6.958   5.306  15.277  0.00  0.00    +0.000 A 
ATOM     27  C   UNL     1       6.326   4.246  14.615  0.00  0.00    +0.000 A 
ATOM     28  C   UNL     1       5.353   3.497  15.270  0.00  0.00    +0.000 A 
ATOM     29  C   UNL     1       5.043   3.849  16.579  0.00  0.00    +0.000 A 
ATOM     30  C   UNL     1       5.557   4.964  17.234  0.00  0.00    +0.000 A 
ATOM     31  N   UNL     1       4.537   2.965  17.519  0.00  0.00    +0.000 N 
ATOM     32  C   UNL     1       4.961   3.349  18.804  0.00  0.00    +0.000 C 
ATOM     33  O   UNL     1       4.864   2.635  19.796  0.00  0.00    +0.000 OA
ATOM     34  H   UNL     1       4.214   2.031  17.306  0.00  0.00    +0.000 HD
ENDBRANCH  20  21
ENDBRANCH  19  20
ENDBRANCH  18  19
ENDBRANCH   1  18
TORSDOF 6
ENDMDL
MODEL 5
REMARK VINA RESULT:      -8.5      7.685     11.635
REMARK  Name = 
REMARK  7 active torsions:
REMARK  status: ('A' for Active; 'I' for Inactive)
REMARK    1  A    between atoms: C_1  and  O_2
REMARK    2  A    between atoms: O_2  and  C_3
REMARK    3  A    between atoms: N_14  and  C_15
REMARK    4  A    between atoms: C_15  and  C_16
REMARK    5  A    between atoms: C_16  and  C_17
REMARK    6  A    between atoms: C_17  and  C_18
REMARK    7  A    between atoms: C_18  and  C_19
REMARK                            x       y       z     vdW  Elec       q    Type
REMARK                         _______ _______ _______ _____ _____    ______ ____
ROOT
ATOM      1  C   UNL     1       1.819  10.955  18.500  0.00  0.00    +0.000 C 
ENDROOT
BRANCH   1  13
ATOM      2  C   UNL     1      -4.526  12.682  23.008  0.00  0.00    +0.000 A 
ATOM      3  C   UNL     1      -5.285  13.142  21.928  0.00  0.00    +0.000 A 
ATOM      4  C   UNL     1      -4.736  13.294  20.648  0.00  0.00    +0.000 A 
ATOM      5  C   UNL     1      -3.387  12.929  20.495  0.00  0.00    +0.000 A 
ATOM      6  N   UNL     1      -2.586  12.958  19.375  0.00  0.00    +0.000 N 
ATOM      7  C   UNL     1      -1.359  12.441  19.693  0.00  0.00    +0.000 A 
ATOM      8  C   UNL     1      -1.340  12.151  21.030  0.00  0.00    +0.000 A 
ATOM      9  C   UNL     1      -2.626  12.446  21.553  0.00  0.00    +0.000 A 
ATOM     10  C   UNL     1      -3.196  12.309  22.820  0.00  0.00    +0.000 A 
ATOM     11  C   UNL     1      -0.141  11.565  21.667  0.00  0.00    +0.000 C 
ATOM     12  C   UNL     1       0.703  10.863  20.589  0.00  0.00    +0.000 C 
ATOM     13  N   UNL     1       0.973  11.725  19.407  0.00  0.00    +0.000 NA
ATOM     14  C   UNL     1      -0.265  12.176  18.719  0.00  0.00    +0.000 C 
ATOM     15  H   UNL     1      -2.880  13.262  18.466  0.00  0.00    +0.000 HD
BRANCH   2  17
ATOM     16  C   UNL     1      -6.591  12.790  24.126  0.00  0.00    +0.000 C 
ATOM     17  O   UNL     1      -5.180  12.600  24.210  0.00  0.00    +0.000 OA
ENDBRANCH   2  17
ENDBRANCH   1  13
BRANCH   1  18
ATOM     18  C   UNL     1       1.169   9.688  17.975  0.00  0.00    +0.000 C 
BRANCH  18  19
ATOM     19  C   UNL     1       2.288   8.672  17.753  0.00  0.00    +0.000 C 
BRANCH  19  20
ATOM     20  C   UNL     1       1.724   7.275  17.891  0.00  0.00    +0.000 C 
BRANCH  20  21
ATOM     21  C   UNL     1       2.656   6.100  18.367  0.00  0.00    +0.000 C 
ATOM     22  C   UNL     1       4.041   6.497  17.785  0.00  0.00    +0.000 C 
ATOM     23  C   UNL     1       5.086   5.409  17.535  0.00  0.00    +0.000 C 
ATOM     24  C   UNL     1       4.488   4.215  16.786  0.00  0.00    +0.000 C 
ATOM     25  C   UNL     1       3.300   3.701  17.540  0.00  0.00    +0.000 A 
ATOM     26  C   UNL     1       3.181   2.319  17.786  0.00  0.00    +0.000 A 
ATOM     27  C   UNL     1       2.259   1.838  18.723  0.00  0.00    +0.000 A 
ATOM     28  C   UNL     1       1.465   2.727  19.441  0.00  0.00    +0.000 A 
ATOM     29  C   UNL     1       1.625   4.084  19.182  0.00  0.00    +0.000 A 
ATOM     30  C   UNL     1       2.439   4.601  18.178  0.00  0.00    +0.000 A 
ATOM     31  N   UNL     1       1.346   5.085  20.099  0.00  0.00    +0.000 N 
ATOM     32  C   UNL     1       2.193   6.185  19.870  0.00  0.00    +0.000 C 
ATOM     33  O   UNL     1       2.335   7.112  20.659  0.00  0.00    +0.000 OA
ATOM     34  H   UNL     1       0.871   4.935  20.978  0.00  0.00    +0.000 HD
ENDBRANCH  20  21
ENDBRANCH  19  20
ENDBRANCH  18  19
ENDBRANCH   1  18
TORSDOF 6
ENDMDL
MODEL 6
REMARK VINA RESULT:      -8.5      6.737     11.039
REMARK  Name = 
REMARK  7 active torsions:
REMARK  status: ('A' for Active; 'I' for Inactive)
REMARK    1  A    between atoms: C_1  and  O_2
REMARK    2  A    between atoms: O_2  and  C_3
REMARK    3  A    between atoms: N_14  and  C_15
REMARK    4  A    between atoms: C_15  and  C_16
REMARK    5  A    between atoms: C_16  and  C_17
REMARK    6  A    between atoms: C_17  and  C_18
REMARK    7  A    between atoms: C_18  and  C_19
REMARK                            x       y       z     vdW  Elec       q    Type
REMARK                         _______ _______ _______ _____ _____    ______ ____
ROOT
ATOM      1  C   UNL     1       2.053   8.455  18.943  0.00  0.00    +0.000 C 
ENDROOT
BRANCH   1  13
ATOM      2  C   UNL     1      -4.953  12.237  18.539  0.00  0.00    +0.000 A 
ATOM      3  C   UNL     1      -5.203  11.830  17.226  0.00  0.00    +0.000 A 
ATOM      4  C   UNL     1      -4.242  11.154  16.465  0.00  0.00    +0.000 A 
ATOM      5  C   UNL     1      -3.019  10.874  17.100  0.00  0.00    +0.000 A 
ATOM      6  N   UNL     1      -1.902  10.227  16.620  0.00  0.00    +0.000 N 
ATOM      7  C   UNL     1      -0.979  10.128  17.626  0.00  0.00    +0.000 A 
ATOM      8  C   UNL     1      -1.463  10.778  18.729  0.00  0.00    +0.000 A 
ATOM      9  C   UNL     1      -2.765  11.249  18.414  0.00  0.00    +0.000 A 
ATOM     10  C   UNL     1      -3.738  11.927  19.149  0.00  0.00    +0.000 A 
ATOM     11  C   UNL     1      -0.686  10.833  19.985  0.00  0.00    +0.000 C 
ATOM     12  C   UNL     1       0.312   9.661  20.006  0.00  0.00    +0.000 C 
ATOM     13  N   UNL     1       1.125   9.567  18.763  0.00  0.00    +0.000 NA
ATOM     14  C   UNL     1       0.301   9.373  17.540  0.00  0.00    +0.000 C 
ATOM     15  H   UNL     1      -1.811   9.846  15.697  0.00  0.00    +0.000 HD
BRANCH   2  17
ATOM     16  C   UNL     1      -5.575  13.621  20.336  0.00  0.00    +0.000 C 
ATOM     17  O   UNL     1      -5.972  12.909  19.165  0.00  0.00    +0.000 OA
ENDBRANCH   2  17
ENDBRANCH   1  13
BRANCH   1  18
ATOM     18  C   UNL     1       2.367   7.699  17.665  0.00  0.00    +0.000 C 
BRANCH  18  19
ATOM     19  C   UNL     1       3.866   7.401  17.681  0.00  0.00    +0.000 C 
BRANCH  19  20
ATOM     20  C   UNL     1       4.106   6.032  17.084  0.00  0.00    +0.000 C 
BRANCH  20  21
ATOM     21  C   UNL     1       3.936   4.748  17.980  0.00  0.00    +0.000 C 
ATOM     22  C   UNL     1       4.287   3.593  17.002  0.00  0.00    +0.000 C 
ATOM     23  C   UNL     1       3.738   2.193  17.273  0.00  0.00    +0.000 C 
ATOM     24  C   UNL     1       2.239   2.225  17.581  0.00  0.00    +0.000 C 
ATOM     25  C   UNL     1       1.987   3.165  18.719  0.00  0.00    +0.000 A 
ATOM     26  C   UNL     1       1.173   2.750  19.792  0.00  0.00    +0.000 A 
ATOM     27  C   UNL     1       1.153   3.471  20.992  0.00  0.00    +0.000 A 
ATOM     28  C   UNL     1       1.959   4.596  21.144  0.00  0.00    +0.000 A 
ATOM     29  C   UNL     1       2.760   4.962  20.069  0.00  0.00    +0.000 A 
ATOM     30  C   UNL     1       2.725   4.350  18.819  0.00  0.00    +0.000 A 
ATOM     31  N   UNL     1       3.945   5.670  20.193  0.00  0.00    +0.000 N 
ATOM     32  C   UNL     1       4.823   5.307  19.155  0.00  0.00    +0.000 C 
ATOM     33  O   UNL     1       6.016   5.592  19.139  0.00  0.00    +0.000 OA
ATOM     34  H   UNL     1       4.261   6.107  21.048  0.00  0.00    +0.000 HD
ENDBRANCH  20  21
ENDBRANCH  19  20
ENDBRANCH  18  19
ENDBRANCH   1  18
TORSDOF 6
ENDMDL
MODEL 7
REMARK VINA RESULT:      -8.4      2.456     11.174
REMARK  Name = 
REMARK  7 active torsions:
REMARK  status: ('A' for Active; 'I' for Inactive)
REMARK    1  A    between atoms: C_1  and  O_2
REMARK    2  A    between atoms: O_2  and  C_3
REMARK    3  A    between atoms: N_14  and  C_15
REMARK    4  A    between atoms: C_15  and  C_16
REMARK    5  A    between atoms: C_16  and  C_17
REMARK    6  A    between atoms: C_17  and  C_18
REMARK    7  A    between atoms: C_18  and  C_19
REMARK                            x       y       z     vdW  Elec       q    Type
REMARK                         _______ _______ _______ _____ _____    ______ ____
ROOT
ATOM      1  C   UNL     1       8.036   9.364  17.825  0.00  0.00    +0.000 C 
ENDROOT
BRANCH   1  13
ATOM      2  C   UNL     1      10.867  15.974  21.267  0.00  0.00    +0.000 A 
ATOM      3  C   UNL     1      10.401  16.814  20.252  0.00  0.00    +0.000 A 
ATOM      4  C   UNL     1       9.838  16.310  19.073  0.00  0.00    +0.000 A 
ATOM      5  C   UNL     1       9.734  14.911  18.974  0.00  0.00    +0.000 A 
ATOM      6  N   UNL     1       9.227  14.133  17.957  0.00  0.00    +0.000 N 
ATOM      7  C   UNL     1       9.271  12.819  18.339  0.00  0.00    +0.000 A 
ATOM      8  C   UNL     1       9.877  12.739  19.563  0.00  0.00    +0.000 A 
ATOM      9  C   UNL     1      10.169  14.063  19.986  0.00  0.00    +0.000 A 
ATOM     10  C   UNL     1      10.731  14.591  21.149  0.00  0.00    +0.000 A 
ATOM     11  C   UNL     1      10.061  11.439  20.242  0.00  0.00    +0.000 C 
ATOM     12  C   UNL     1       9.030  10.439  19.689  0.00  0.00    +0.000 C 
ATOM     13  N   UNL     1       9.014  10.380  18.203  0.00  0.00    +0.000 NA
ATOM     14  C   UNL     1       8.687  11.686  17.570  0.00  0.00    +0.000 C 
ATOM     15  H   UNL     1       8.840  14.486  17.102  0.00  0.00    +0.000 HD
BRANCH   2  17
ATOM     16  C   UNL     1      11.781  17.958  22.136  0.00  0.00    +0.000 C 
ATOM     17  O   UNL     1      11.415  16.597  22.359  0.00  0.00    +0.000 OA
ENDBRANCH   2  17
ENDBRANCH   1  13
BRANCH   1  18
ATOM     18  C   UNL     1       8.300   7.997  18.430  0.00  0.00    +0.000 C 
BRANCH  18  19
ATOM     19  C   UNL     1       7.538   6.980  17.581  0.00  0.00    +0.000 C 
BRANCH  19  20
ATOM     20  C   UNL     1       6.829   6.004  18.495  0.00  0.00    +0.000 C 
BRANCH  20  21
ATOM     21  C   UNL     1       5.310   5.670  18.255  0.00  0.00    +0.000 C 
ATOM     22  C   UNL     1       4.793   6.927  17.500  0.00  0.00    +0.000 C 
ATOM     23  C   UNL     1       3.305   7.271  17.555  0.00  0.00    +0.000 C 
ATOM     24  C   UNL     1       2.767   7.221  18.987  0.00  0.00    +0.000 C 
ATOM     25  C   UNL     1       3.063   5.878  19.581  0.00  0.00    +0.000 A 
ATOM     26  C   UNL     1       2.039   5.174  20.245  0.00  0.00    +0.000 A 
ATOM     27  C   UNL     1       2.188   3.816  20.549  0.00  0.00    +0.000 A 
ATOM     28  C   UNL     1       3.347   3.140  20.175  0.00  0.00    +0.000 A 
ATOM     29  C   UNL     1       4.326   3.866  19.506  0.00  0.00    +0.000 A 
ATOM     30  C   UNL     1       4.274   5.240  19.289  0.00  0.00    +0.000 A 
ATOM     31  N   UNL     1       5.245   3.304  18.634  0.00  0.00    +0.000 N 
ATOM     32  C   UNL     1       5.598   4.245  17.649  0.00  0.00    +0.000 C 
ATOM     33  O   UNL     1       6.206   3.962  16.623  0.00  0.00    +0.000 OA
ATOM     34  H   UNL     1       5.382   2.310  18.515  0.00  0.00    +0.000 HD
ENDBRANCH  20  21
ENDBRANCH  19  20
ENDBRANCH  18  19
ENDBRANCH   1  18
TORSDOF 6
ENDMDL
MODEL 8
REMARK VINA RESULT:      -8.4      2.354     11.108
REMARK  Name = 
REMARK  7 active torsions:
REMARK  status: ('A' for Active; 'I' for Inactive)
REMARK    1  A    between atoms: C_1  and  O_2
REMARK    2  A    between atoms: O_2  and  C_3
REMARK    3  A    between atoms: N_14  and  C_15
REMARK    4  A    between atoms: C_15  and  C_16
REMARK    5  A    between atoms: C_16  and  C_17
REMARK    6  A    between atoms: C_17  and  C_18
REMARK    7  A    between atoms: C_18  and  C_19
REMARK                            x       y       z     vdW  Elec       q    Type
REMARK                         _______ _______ _______ _____ _____    ______ ____
ROOT
ATOM      1  C   UNL     1       8.584   8.868  18.937  0.00  0.00    +0.000 C 
ENDROOT
BRANCH   1  13
ATOM      2  C   UNL     1      10.657  16.543  19.534  0.00  0.00    +0.000 A 
ATOM      3  C   UNL     1       9.787  16.954  18.521  0.00  0.00    +0.000 A 
ATOM      4  C   UNL     1       9.077  16.036  17.736  0.00  0.00    +0.000 A 
ATOM      5  C   UNL     1       9.259  14.676  18.041  0.00  0.00    +0.000 A 
ATOM      6  N   UNL     1       8.702  13.557  17.461  0.00  0.00    +0.000 N 
ATOM      7  C   UNL     1       9.123  12.446  18.141  0.00  0.00    +0.000 A 
ATOM      8  C   UNL     1      10.011  12.836  19.106  0.00  0.00    +0.000 A 
ATOM      9  C   UNL     1      10.102  14.252  19.063  0.00  0.00    +0.000 A 
ATOM     10  C   UNL     1      10.801  15.188  19.826  0.00  0.00    +0.000 A 
ATOM     11  C   UNL     1      10.634  11.849  20.014  0.00  0.00    +0.000 C 
ATOM     12  C   UNL     1       9.743  10.596  20.074  0.00  0.00    +0.000 C 
ATOM     13  N   UNL     1       9.378  10.075  18.728  0.00  0.00    +0.000 NA
ATOM     14  C   UNL     1       8.631  11.062  17.903  0.00  0.00    +0.000 C 
ATOM     15  H   UNL     1       8.051  13.570  16.698  0.00  0.00    +0.000 HD
BRANCH   2  17
ATOM     16  C   UNL     1      10.552  18.111  21.283  0.00  0.00    +0.000 C 
ATOM     17  O   UNL     1      11.305  17.544  20.212  0.00  0.00    +0.000 OA
ENDBRANCH   2  17
ENDBRANCH   1  13
BRANCH   1  18
ATOM     18  C   UNL     1       8.018   8.272  17.661  0.00  0.00    +0.000 C 
BRANCH  18  19
ATOM     19  C   UNL     1       7.277   6.996  18.056  0.00  0.00    +0.000 C 
BRANCH  19  20
ATOM     20  C   UNL     1       6.330   6.607  16.942  0.00  0.00    +0.000 C 
BRANCH  20  21
ATOM     21  C   UNL     1       4.913   6.018  17.291  0.00  0.00    +0.000 C 
ATOM     22  C   UNL     1       3.977   7.249  17.130  0.00  0.00    +0.000 C 
ATOM     23  C   UNL     1       2.645   7.276  17.880  0.00  0.00    +0.000 C 
ATOM     24  C   UNL     1       2.819   6.897  19.353  0.00  0.00    +0.000 C 
ATOM     25  C   UNL     1       3.497   5.564  19.445  0.00  0.00    +0.000 A 
ATOM     26  C   UNL     1       2.966   4.575  20.296  0.00  0.00    +0.000 A 
ATOM     27  C   UNL     1       3.385   3.244  20.192  0.00  0.00    +0.000 A 
ATOM     28  C   UNL     1       4.317   2.880  19.224  0.00  0.00    +0.000 A 
ATOM     29  C   UNL     1       4.803   3.881  18.391  0.00  0.00    +0.000 A 
ATOM     30  C   UNL     1       4.508   5.234  18.535  0.00  0.00    +0.000 A 
ATOM     31  N   UNL     1       5.286   3.657  17.112  0.00  0.00    +0.000 N 
ATOM     32  C   UNL     1       5.051   4.792  16.313  0.00  0.00    +0.000 C 
ATOM     33  O   UNL     1       5.159   4.800  15.092  0.00  0.00    +0.000 OA
ATOM     34  H   UNL     1       5.463   2.742  16.722  0.00  0.00    +0.000 HD
ENDBRANCH  20  21
ENDBRANCH  19  20
ENDBRANCH  18  19
ENDBRANCH   1  18
TORSDOF 6
ENDMDL
MODEL 9
REMARK VINA RESULT:      -8.4      1.074      1.537
REMARK  Name = 
REMARK  7 active torsions:
REMARK  status: ('A' for Active; 'I' for Inactive)
REMARK    1  A    between atoms: C_1  and  O_2
REMARK    2  A    between atoms: O_2  and  C_3
REMARK    3  A    between atoms: N_14  and  C_15
REMARK    4  A    between atoms: C_15  and  C_16
REMARK    5  A    between atoms: C_16  and  C_17
REMARK    6  A    between atoms: C_17  and  C_18
REMARK    7  A    between atoms: C_18  and  C_19
REMARK                            x       y       z     vdW  Elec       q    Type
REMARK                         _______ _______ _______ _____ _____    ______ ____
ROOT
ATOM      1  C   UNL     1       8.498   8.097  17.460  0.00  0.00    +0.000 C 
ENDROOT
BRANCH   1  13
ATOM      2  C   UNL     1       2.164   3.325  18.283  0.00  0.00    +0.000 A 
ATOM      3  C   UNL     1       2.822   2.445  19.145  0.00  0.00    +0.000 A 
ATOM      4  C   UNL     1       4.193   2.554  19.411  0.00  0.00    +0.000 A 
ATOM      5  C   UNL     1       4.871   3.619  18.791  0.00  0.00    +0.000 A 
ATOM      6  N   UNL     1       6.197   3.984  18.864  0.00  0.00    +0.000 N 
ATOM      7  C   UNL     1       6.382   5.133  18.143  0.00  0.00    +0.000 A 
ATOM      8  C   UNL     1       5.199   5.466  17.541  0.00  0.00    +0.000 A 
ATOM      9  C   UNL     1       4.225   4.519  17.951  0.00  0.00    +0.000 A 
ATOM     10  C   UNL     1       2.859   4.384  17.699  0.00  0.00    +0.000 A 
ATOM     11  C   UNL     1       5.086   6.675  16.697  0.00  0.00    +0.000 C 
ATOM     12  C   UNL     1       6.197   7.664  17.092  0.00  0.00    +0.000 C 
ATOM     13  N   UNL     1       7.547   7.041  17.126  0.00  0.00    +0.000 NA
ATOM     14  C   UNL     1       7.647   5.916  18.093  0.00  0.00    +0.000 C 
ATOM     15  H   UNL     1       6.895   3.509  19.405  0.00  0.00    +0.000 HD
BRANCH   2  17
ATOM     16  C   UNL     1       0.268   2.121  18.976  0.00  0.00    +0.000 C 
ATOM     17  O   UNL     1       0.826   3.093  18.093  0.00  0.00    +0.000 OA
ENDBRANCH   2  17
ENDBRANCH   1  13
BRANCH   1  18
ATOM     18  C   UNL     1       7.851   9.373  17.966  0.00  0.00    +0.000 C 
BRANCH  18  19
ATOM     19  C   UNL     1       8.925  10.143  18.735  0.00  0.00    +0.000 C 
BRANCH  19  20
ATOM     20  C   UNL     1       9.150  11.481  18.067  0.00  0.00    +0.000 C 
BRANCH  20  21
ATOM     21  C   UNL     1       9.638  12.709  18.922  0.00  0.00    +0.000 C 
ATOM     22  C   UNL     1       9.892  12.080  20.320  0.00  0.00    +0.000 C 
ATOM     23  C   UNL     1       9.844  12.973  21.560  0.00  0.00    +0.000 C 
ATOM     24  C   UNL     1       8.598  13.862  21.566  0.00  0.00    +0.000 C 
ATOM     25  C   UNL     1       8.544  14.651  20.294  0.00  0.00    +0.000 A 
ATOM     26  C   UNL     1       8.300  16.037  20.350  0.00  0.00    +0.000 A 
ATOM     27  C   UNL     1       8.532  16.848  19.232  0.00  0.00    +0.000 A 
ATOM     28  C   UNL     1       9.032  16.291  18.058  0.00  0.00    +0.000 A 
ATOM     29  C   UNL     1       9.276  14.922  18.049  0.00  0.00    +0.000 A 
ATOM     30  C   UNL     1       8.949  14.060  19.092  0.00  0.00    +0.000 A 
ATOM     31  N   UNL     1      10.210  14.308  17.230  0.00  0.00    +0.000 N 
ATOM     32  C   UNL     1      10.719  13.162  17.869  0.00  0.00    +0.000 C 
ATOM     33  O   UNL     1      11.715  12.556  17.491  0.00  0.00    +0.000 OA
ATOM     34  H   UNL     1      10.692  14.769  16.471  0.00  0.00    +0.000 HD
ENDBRANCH  20  21
ENDBRANCH  19  20
ENDBRANCH  18  19
ENDBRANCH   1  18
TORSDOF 6
ENDMDL
