MODEL 1
REMARK VINA RESULT:      -6.7      0.000      0.000
REMARK  Name = 
REMARK  3 active torsions:
REMARK  status: ('A' for Active; 'I' for Inactive)
REMARK    1  A    between atoms: O_1  and  C_2
REMARK    2  A    between atoms: C_5  and  O_6
REMARK    3  A    between atoms: O_6  and  C_7
REMARK                            x       y       z     vdW  Elec       q    Type
REMARK                         _______ _______ _______ _____ _____    ______ ____
ROOT
ATOM      1  C   UNL     1       1.571   3.256  21.084  0.00  0.00    +0.000 A 
ATOM      2  C   UNL     1       2.403   4.361  21.223  0.00  0.00    +0.000 A 
ATOM      3  C   UNL     1       2.799   5.066  20.082  0.00  0.00    +0.000 A 
ATOM      4  C   UNL     1       2.365   4.662  18.815  0.00  0.00    +0.000 A 
ATOM      5  C   UNL     1       1.489   3.579  18.698  0.00  0.00    +0.000 A 
ATOM      6  C   UNL     1       1.113   2.860  19.833  0.00  0.00    +0.000 A 
ENDROOT
BRANCH   1   7
ATOM      7  O   UNL     1       1.164   2.530  22.164  0.00  0.00    +0.000 OA
ATOM      8  H   UNL     1       1.568   1.649  22.116  0.00  0.00    +0.000 HD
ENDBRANCH   1   7
BRANCH   4   9
ATOM      9  O   UNL     1       2.800   5.435  17.762  0.00  0.00    +0.000 OA
BRANCH   9  10
ATOM     10  C   UNL     1       4.112   5.361  17.357  0.00  0.00    +0.000 A 
ATOM     11  C   UNL     1       4.468   4.216  16.638  0.00  0.00    +0.000 A 
ATOM     12  C   UNL     1       5.775   4.053  16.175  0.00  0.00    +0.000 A 
ATOM     13  C   UNL     1       6.728   5.041  16.426  0.00  0.00    +0.000 A 
ATOM     14  C   UNL     1       6.361   6.196  17.117  0.00  0.00    +0.000 A 
ATOM     15 CL   UNL     1       7.541   7.408  17.439  0.00  0.00    +0.000 Cl
ATOM     16  C   UNL     1       5.052   6.373  17.562  0.00  0.00    +0.000 A 
ENDBRANCH   9  10
ENDBRANCH   4   9
TORSDOF 3
ENDMDL
MODEL 2
REMARK VINA RESULT:      -6.7      0.286      1.270
REMARK  Name = 
REMARK  3 active torsions:
REMARK  status: ('A' for Active; 'I' for Inactive)
REMARK    1  A    between atoms: O_1  and  C_2
REMARK    2  A    between atoms: C_5  and  O_6
REMARK    3  A    between atoms: O_6  and  C_7
REMARK                            x       y       z     vdW  Elec       q    Type
REMARK                         _______ _______ _______ _____ _____    ______ ____
ROOT
ATOM      1  C   UNL     1       1.377   3.314  20.777  0.00  0.00    +0.000 A 
ATOM      2  C   UNL     1       0.911   3.115  19.482  0.00  0.00    +0.000 A 
ATOM      3  C   UNL     1       1.452   3.870  18.437  0.00  0.00    +0.000 A 
ATOM      4  C   UNL     1       2.448   4.818  18.693  0.00  0.00    +0.000 A 
ATOM      5  C   UNL     1       2.940   4.970  19.992  0.00  0.00    +0.000 A 
ATOM      6  C   UNL     1       2.384   4.235  21.040  0.00  0.00    +0.000 A 
ENDROOT
BRANCH   1   7
ATOM      7  O   UNL     1       0.875   2.609  21.831  0.00  0.00    +0.000 OA
ATOM      8  H   UNL     1       1.510   2.653  22.564  0.00  0.00    +0.000 HD
ENDBRANCH   1   7
BRANCH   4   9
ATOM      9  O   UNL     1       2.923   5.496  17.592  0.00  0.00    +0.000 OA
BRANCH   9  10
ATOM     10  C   UNL     1       4.261   5.437  17.279  0.00  0.00    +0.000 A 
ATOM     11  C   UNL     1       4.685   4.279  16.620  0.00  0.00    +0.000 A 
ATOM     12  C   UNL     1       6.023   4.130  16.250  0.00  0.00    +0.000 A 
ATOM     13  C   UNL     1       6.938   5.144  16.534  0.00  0.00    +0.000 A 
ATOM     14  C   UNL     1       6.505   6.311  17.164  0.00  0.00    +0.000 A 
ATOM     15 CL   UNL     1       7.638   7.556  17.526  0.00  0.00    +0.000 Cl
ATOM     16  C   UNL     1       5.165   6.474  17.514  0.00  0.00    +0.000 A 
ENDBRANCH   9  10
ENDBRANCH   4   9
TORSDOF 3
ENDMDL
MODEL 3
REMARK VINA RESULT:      -6.5      1.625      1.989
REMARK  Name = 
REMARK  3 active torsions:
REMARK  status: ('A' for Active; 'I' for Inactive)
REMARK    1  A    between atoms: O_1  and  C_2
REMARK    2  A    between atoms: C_5  and  O_6
REMARK    3  A    between atoms: O_6  and  C_7
REMARK                            x       y       z     vdW  Elec       q    Type
REMARK                         _______ _______ _______ _____ _____    ______ ____
ROOT
ATOM      1  C   UNL     1       1.348   3.746  20.148  0.00  0.00    +0.000 A 
ATOM      2  C   UNL     1       2.195   4.710  20.685  0.00  0.00    +0.000 A 
ATOM      3  C   UNL     1       2.969   5.496  19.825  0.00  0.00    +0.000 A 
ATOM      4  C   UNL     1       2.893   5.313  18.440  0.00  0.00    +0.000 A 
ATOM      5  C   UNL     1       2.000   4.374  17.916  0.00  0.00    +0.000 A 
ATOM      6  C   UNL     1       1.246   3.572  18.773  0.00  0.00    +0.000 A 
ENDROOT
BRANCH   1   7
ATOM      7  O   UNL     1       0.581   2.949  20.945  0.00  0.00    +0.000 OA
ATOM      8  H   UNL     1       0.918   2.040  20.891  0.00  0.00    +0.000 HD
ENDBRANCH   1   7
BRANCH   4   9
ATOM      9  O   UNL     1       3.684   6.149  17.684  0.00  0.00    +0.000 OA
BRANCH   9  10
ATOM     10  C   UNL     1       4.857   5.676  17.145  0.00  0.00    +0.000 A 
ATOM     11  C   UNL     1       6.000   5.828  17.936  0.00  0.00    +0.000 A 
ATOM     12  C   UNL     1       7.238   5.370  17.481  0.00  0.00    +0.000 A 
ATOM     13  C   UNL     1       7.332   4.754  16.233  0.00  0.00    +0.000 A 
ATOM     14  C   UNL     1       6.185   4.576  15.460  0.00  0.00    +0.000 A 
ATOM     15 CL   UNL     1       6.306   3.827  13.914  0.00  0.00    +0.000 Cl
ATOM     16  C   UNL     1       4.943   5.011  15.920  0.00  0.00    +0.000 A 
ENDBRANCH   9  10
ENDBRANCH   4   9
TORSDOF 3
ENDMDL
MODEL 4
REMARK VINA RESULT:      -6.5      2.920      5.838
REMARK  Name = 
REMARK  3 active torsions:
REMARK  status: ('A' for Active; 'I' for Inactive)
REMARK    1  A    between atoms: O_1  and  C_2
REMARK    2  A    between atoms: C_5  and  O_6
REMARK    3  A    between atoms: O_6  and  C_7
REMARK                            x       y       z     vdW  Elec       q    Type
REMARK                         _______ _______ _______ _____ _____    ______ ____
ROOT
ATOM      1  C   UNL     1       6.657   5.432  16.094  0.00  0.00    +0.000 A 
ATOM      2  C   UNL     1       6.698   4.665  17.254  0.00  0.00    +0.000 A 
ATOM      3  C   UNL     1       5.719   4.855  18.234  0.00  0.00    +0.000 A 
ATOM      4  C   UNL     1       4.712   5.808  18.051  0.00  0.00    +0.000 A 
ATOM      5  C   UNL     1       4.657   6.535  16.859  0.00  0.00    +0.000 A 
ATOM      6  C   UNL     1       5.647   6.364  15.891  0.00  0.00    +0.000 A 
ENDROOT
BRANCH   1   7
ATOM      7  O   UNL     1       7.594   5.291  15.114  0.00  0.00    +0.000 OA
ATOM      8  H   UNL     1       7.686   6.138  14.648  0.00  0.00    +0.000 HD
ENDBRANCH   1   7
BRANCH   4   9
ATOM      9  O   UNL     1       3.790   5.903  19.069  0.00  0.00    +0.000 OA
BRANCH   9  10
ATOM     10  C   UNL     1       2.856   4.907  19.241  0.00  0.00    +0.000 A 
ATOM     11  C   UNL     1       2.137   4.539  18.100  0.00  0.00    +0.000 A 
ATOM     12  C   UNL     1       1.174   3.530  18.169  0.00  0.00    +0.000 A 
ATOM     13  C   UNL     1       0.934   2.884  19.382  0.00  0.00    +0.000 A 
ATOM     14  C   UNL     1       1.675   3.233  20.511  0.00  0.00    +0.000 A 
ATOM     15 CL   UNL     1       1.368   2.444  22.010  0.00  0.00    +0.000 Cl
ATOM     16  C   UNL     1       2.653   4.224  20.441  0.00  0.00    +0.000 A 
ENDBRANCH   9  10
ENDBRANCH   4   9
TORSDOF 3
ENDMDL
MODEL 5
REMARK VINA RESULT:      -6.5      2.073      2.667
REMARK  Name = 
REMARK  3 active torsions:
REMARK  status: ('A' for Active; 'I' for Inactive)
REMARK    1  A    between atoms: O_1  and  C_2
REMARK    2  A    between atoms: C_5  and  O_6
REMARK    3  A    between atoms: O_6  and  C_7
REMARK                            x       y       z     vdW  Elec       q    Type
REMARK                         _______ _______ _______ _____ _____    ______ ____
ROOT
ATOM      1  C   UNL     1       1.231   3.000  19.607  0.00  0.00    +0.000 A 
ATOM      2  C   UNL     1       2.107   1.971  19.277  0.00  0.00    +0.000 A 
ATOM      3  C   UNL     1       3.481   2.226  19.247  0.00  0.00    +0.000 A 
ATOM      4  C   UNL     1       3.970   3.503  19.542  0.00  0.00    +0.000 A 
ATOM      5  C   UNL     1       3.080   4.513  19.920  0.00  0.00    +0.000 A 
ATOM      6  C   UNL     1       1.706   4.266  19.926  0.00  0.00    +0.000 A 
ENDROOT
BRANCH   1   7
ATOM      7  O   UNL     1      -0.117   2.804  19.641  0.00  0.00    +0.000 OA
ATOM      8  H   UNL     1      -0.552   3.659  19.790  0.00  0.00    +0.000 HD
ENDBRANCH   1   7
BRANCH   4   9
ATOM      9  O   UNL     1       5.339   3.643  19.499  0.00  0.00    +0.000 OA
BRANCH   9  10
ATOM     10  C   UNL     1       5.910   4.497  18.584  0.00  0.00    +0.000 A 
ATOM     11  C   UNL     1       6.788   5.453  19.104  0.00  0.00    +0.000 A 
ATOM     12  C   UNL     1       7.426   6.358  18.255  0.00  0.00    +0.000 A 
ATOM     13  C   UNL     1       7.190   6.304  16.880  0.00  0.00    +0.000 A 
ATOM     14  C   UNL     1       6.337   5.329  16.362  0.00  0.00    +0.000 A 
ATOM     15 CL   UNL     1       6.036   5.273  14.668  0.00  0.00    +0.000 Cl
ATOM     16  C   UNL     1       5.716   4.408  17.205  0.00  0.00    +0.000 A 
ENDBRANCH   9  10
ENDBRANCH   4   9
TORSDOF 3
ENDMDL
MODEL 6
REMARK VINA RESULT:      -6.5      2.112      2.497
REMARK  Name = 
REMARK  3 active torsions:
REMARK  status: ('A' for Active; 'I' for Inactive)
REMARK    1  A    between atoms: O_1  and  C_2
REMARK    2  A    between atoms: C_5  and  O_6
REMARK    3  A    between atoms: O_6  and  C_7
REMARK                            x       y       z     vdW  Elec       q    Type
REMARK                         _______ _______ _______ _____ _____    ______ ____
ROOT
ATOM      1  C   UNL     1       1.276   2.981  19.521  0.00  0.00    +0.000 A 
ATOM      2  C   UNL     1       1.801   4.177  19.999  0.00  0.00    +0.000 A 
ATOM      3  C   UNL     1       3.187   4.364  19.999  0.00  0.00    +0.000 A 
ATOM      4  C   UNL     1       4.036   3.358  19.528  0.00  0.00    +0.000 A 
ATOM      5  C   UNL     1       3.489   2.182  19.005  0.00  0.00    +0.000 A 
ATOM      6  C   UNL     1       2.108   1.984  19.027  0.00  0.00    +0.000 A 
ENDROOT
BRANCH   1   7
ATOM      7  O   UNL     1      -0.067   2.748  19.508  0.00  0.00    +0.000 OA
ATOM      8  H   UNL     1      -0.215   1.789  19.487  0.00  0.00    +0.000 HD
ENDBRANCH   1   7
BRANCH   4   9
ATOM      9  O   UNL     1       5.381   3.650  19.558  0.00  0.00    +0.000 OA
BRANCH   9  10
ATOM     10  C   UNL     1       5.915   4.507  18.624  0.00  0.00    +0.000 A 
ATOM     11  C   UNL     1       6.816   5.459  19.110  0.00  0.00    +0.000 A 
ATOM     12  C   UNL     1       7.420   6.367  18.239  0.00  0.00    +0.000 A 
ATOM     13  C   UNL     1       7.126   6.319  16.875  0.00  0.00    +0.000 A 
ATOM     14  C   UNL     1       6.250   5.348  16.389  0.00  0.00    +0.000 A 
ATOM     15 CL   UNL     1       5.878   5.300  14.709  0.00  0.00    +0.000 Cl
ATOM     16  C   UNL     1       5.663   4.425  17.253  0.00  0.00    +0.000 A 
ENDBRANCH   9  10
ENDBRANCH   4   9
TORSDOF 3
ENDMDL
MODEL 7
REMARK VINA RESULT:      -6.5      1.639      2.258
REMARK  Name = 
REMARK  3 active torsions:
REMARK  status: ('A' for Active; 'I' for Inactive)
REMARK    1  A    between atoms: O_1  and  C_2
REMARK    2  A    between atoms: C_5  and  O_6
REMARK    3  A    between atoms: O_6  and  C_7
REMARK                            x       y       z     vdW  Elec       q    Type
REMARK                         _______ _______ _______ _____ _____    ______ ____
ROOT
ATOM      1  C   UNL     1       0.963   3.543  19.484  0.00  0.00    +0.000 A 
ATOM      2  C   UNL     1       1.423   3.488  18.173  0.00  0.00    +0.000 A 
ATOM      3  C   UNL     1       2.363   4.426  17.737  0.00  0.00    +0.000 A 
ATOM      4  C   UNL     1       2.833   5.412  18.611  0.00  0.00    +0.000 A 
ATOM      5  C   UNL     1       2.398   5.423  19.939  0.00  0.00    +0.000 A 
ATOM      6  C   UNL     1       1.442   4.502  20.368  0.00  0.00    +0.000 A 
ENDROOT
BRANCH   1   7
ATOM      7  O   UNL     1       0.040   2.656  19.953  0.00  0.00    +0.000 OA
ATOM      8  H   UNL     1       0.438   1.770  19.962  0.00  0.00    +0.000 HD
ENDBRANCH   1   7
BRANCH   4   9
ATOM      9  O   UNL     1       3.768   6.277  18.086  0.00  0.00    +0.000 OA
BRANCH   9  10
ATOM     10  C   UNL     1       4.960   5.785  17.607  0.00  0.00    +0.000 A 
ATOM     11  C   UNL     1       5.917   5.452  18.571  0.00  0.00    +0.000 A 
ATOM     12  C   UNL     1       7.155   4.935  18.185  0.00  0.00    +0.000 A 
ATOM     13  C   UNL     1       7.435   4.745  16.831  0.00  0.00    +0.000 A 
ATOM     14  C   UNL     1       6.466   5.049  15.875  0.00  0.00    +0.000 A 
ATOM     15 CL   UNL     1       6.819   4.826  14.204  0.00  0.00    +0.000 Cl
ATOM     16  C   UNL     1       5.220   5.544  16.257  0.00  0.00    +0.000 A 
ENDBRANCH   9  10
ENDBRANCH   4   9
TORSDOF 3
ENDMDL
MODEL 8
REMARK VINA RESULT:      -6.4      1.494      1.795
REMARK  Name = 
REMARK  3 active torsions:
REMARK  status: ('A' for Active; 'I' for Inactive)
REMARK    1  A    between atoms: O_1  and  C_2
REMARK    2  A    between atoms: C_5  and  O_6
REMARK    3  A    between atoms: O_6  and  C_7
REMARK                            x       y       z     vdW  Elec       q    Type
REMARK                         _______ _______ _______ _____ _____    ______ ____
ROOT
ATOM      1  C   UNL     1       1.807   3.111  21.162  0.00  0.00    +0.000 A 
ATOM      2  C   UNL     1       2.153   4.454  21.263  0.00  0.00    +0.000 A 
ATOM      3  C   UNL     1       2.655   5.118  20.140  0.00  0.00    +0.000 A 
ATOM      4  C   UNL     1       2.810   4.437  18.928  0.00  0.00    +0.000 A 
ATOM      5  C   UNL     1       2.411   3.101  18.830  0.00  0.00    +0.000 A 
ATOM      6  C   UNL     1       1.933   2.431  19.957  0.00  0.00    +0.000 A 
ENDROOT
BRANCH   1   7
ATOM      7  O   UNL     1       1.322   2.418  22.231  0.00  0.00    +0.000 OA
ATOM      8  H   UNL     1       0.674   1.769  21.912  0.00  0.00    +0.000 HD
ENDBRANCH   1   7
BRANCH   4   9
ATOM      9  O   UNL     1       3.297   5.187  17.881  0.00  0.00    +0.000 OA
BRANCH   9  10
ATOM     10  C   UNL     1       4.578   4.974  17.426  0.00  0.00    +0.000 A 
ATOM     11  C   UNL     1       5.596   5.116  18.374  0.00  0.00    +0.000 A 
ATOM     12  C   UNL     1       6.928   4.910  18.012  0.00  0.00    +0.000 A 
ATOM     13  C   UNL     1       7.244   4.556  16.700  0.00  0.00    +0.000 A 
ATOM     14  C   UNL     1       6.223   4.385  15.765  0.00  0.00    +0.000 A 
ATOM     15 CL   UNL     1       6.614   3.961  14.143  0.00  0.00    +0.000 Cl
ATOM     16  C   UNL     1       4.889   4.567  16.127  0.00  0.00    +0.000 A 
ENDBRANCH   9  10
ENDBRANCH   4   9
TORSDOF 3
ENDMDL
MODEL 9
REMARK VINA RESULT:      -6.4      3.007      5.841
REMARK  Name = 
REMARK  3 active torsions:
REMARK  status: ('A' for Active; 'I' for Inactive)
REMARK    1  A    between atoms: O_1  and  C_2
REMARK    2  A    between atoms: C_5  and  O_6
REMARK    3  A    between atoms: O_6  and  C_7
REMARK                            x       y       z     vdW  Elec       q    Type
REMARK                         _______ _______ _______ _____ _____    ______ ____
ROOT
ATOM      1  C   UNL     1       6.991   6.920  17.260  0.00  0.00    +0.000 A 
ATOM      2  C   UNL     1       5.817   6.821  16.521  0.00  0.00    +0.000 A 
ATOM      3  C   UNL     1       5.087   5.630  16.553  0.00  0.00    +0.000 A 
ATOM      4  C   UNL     1       5.534   4.547  17.318  0.00  0.00    +0.000 A 
ATOM      5  C   UNL     1       6.689   4.680  18.094  0.00  0.00    +0.000 A 
ATOM      6  C   UNL     1       7.432   5.860  18.044  0.00  0.00    +0.000 A 
ENDROOT
BRANCH   1   7
ATOM      7  O   UNL     1       7.742   8.057  17.255  0.00  0.00    +0.000 OA
ATOM      8  H   UNL     1       8.095   8.200  18.148  0.00  0.00    +0.000 HD
ENDBRANCH   1   7
BRANCH   4   9
ATOM      9  O   UNL     1       4.733   3.428  17.292  0.00  0.00    +0.000 OA
BRANCH   9  10
ATOM     10  C   UNL     1       3.607   3.375  18.082  0.00  0.00    +0.000 A 
ATOM     11  C   UNL     1       2.392   3.614  17.433  0.00  0.00    +0.000 A 
ATOM     12  C   UNL     1       1.193   3.572  18.146  0.00  0.00    +0.000 A 
ATOM     13  C   UNL     1       1.208   3.284  19.511  0.00  0.00    +0.000 A 
ATOM     14  C   UNL     1       2.419   3.016  20.149  0.00  0.00    +0.000 A 
ATOM     15 CL   UNL     1       2.437   2.675  21.836  0.00  0.00    +0.000 Cl
ATOM     16  C   UNL     1       3.617   3.034  19.436  0.00  0.00    +0.000 A 
ENDBRANCH   9  10
ENDBRANCH   4   9
TORSDOF 3
ENDMDL
