MODEL 1
REMARK VINA RESULT:      -6.1      0.000      0.000
REMARK  Name = 
REMARK  7 active torsions:
REMARK  status: ('A' for Active; 'I' for Inactive)
REMARK    1  A    between atoms: C_1  and  O_2
REMARK    2  A    between atoms: O_2  and  C_3
REMARK    3  A    between atoms: C_5  and  C_6
REMARK    4  A    between atoms: C_6  and  C_7
REMARK    5  A    between atoms: C_7  and  N_8
REMARK    6  A    between atoms: C_9  and  O_10
REMARK    7  A    between atoms: O_10  and  C_11
REMARK                            x       y       z     vdW  Elec       q    Type
REMARK                         _______ _______ _______ _____ _____    ______ ____
ROOT
ATOM      1  C   UNL     1       2.999   6.336  18.224  0.00  0.00    +0.000 A 
ATOM      2  C   UNL     1       2.091   5.492  18.867  0.00  0.00    +0.000 A 
ATOM      3  C   UNL     1       2.075   4.097  18.659  0.00  0.00    +0.000 A 
ATOM      4  C   UNL     1       3.025   3.516  17.783  0.00  0.00    +0.000 A 
ATOM      5  C   UNL     1       3.930   4.360  17.129  0.00  0.00    +0.000 A 
ATOM      6  C   UNL     1       3.915   5.765  17.354  0.00  0.00    +0.000 A 
ATOM      7  C   UNL     1       5.061   6.416  16.635  0.00  0.00    +0.000 C 
ATOM      8  C   UNL     1       5.408   5.373  15.582  0.00  0.00    +0.000 C 
ATOM      9  C   UNL     1       5.074   4.025  16.211  0.00  0.00    +0.000 C 
ENDROOT
BRANCH   1  11
ATOM     10  C   UNL     1       2.129   8.507  17.804  0.00  0.00    +0.000 C 
ATOM     11  O   UNL     1       2.902   7.638  18.615  0.00  0.00    +0.000 OA
ENDBRANCH   1  11
BRANCH   4  12
ATOM     12  O   UNL     1       2.938   2.153  17.703  0.00  0.00    +0.000 OA
ATOM     13  C   UNL     1       3.823   1.328  18.437  0.00  0.00    +0.000 C 
ENDBRANCH   4  12
BRANCH   3  14
ATOM     14  C   UNL     1       1.065   3.206  19.382  0.00  0.00    +0.000 C 
BRANCH  14  15
ATOM     15  C   UNL     1       1.140   3.193  20.921  0.00  0.00    +0.000 C 
BRANCH  15  16
ATOM     16  N   UNL     1       2.454   2.783  21.417  0.00  0.00    +0.000 NA
ATOM     17  H   UNL     1       3.135   3.515  21.217  0.00  0.00    +0.000 HD
ATOM     18  H   UNL     1       2.762   1.963  20.897  0.00  0.00    +0.000 HD
ENDBRANCH  15  16
ENDBRANCH  14  15
ENDBRANCH   3  14
TORSDOF 5
ENDMDL
MODEL 2
REMARK VINA RESULT:      -6.0      1.226      1.342
REMARK  Name = 
REMARK  7 active torsions:
REMARK  status: ('A' for Active; 'I' for Inactive)
REMARK    1  A    between atoms: C_1  and  O_2
REMARK    2  A    between atoms: O_2  and  C_3
REMARK    3  A    between atoms: C_5  and  C_6
REMARK    4  A    between atoms: C_6  and  C_7
REMARK    5  A    between atoms: C_7  and  N_8
REMARK    6  A    between atoms: C_9  and  O_10
REMARK    7  A    between atoms: O_10  and  C_11
REMARK                            x       y       z     vdW  Elec       q    Type
REMARK                         _______ _______ _______ _____ _____    ______ ____
ROOT
ATOM      1  C   UNL     1       3.379   7.075  17.725  0.00  0.00    +0.000 A 
ATOM      2  C   UNL     1       2.769   6.600  18.888  0.00  0.00    +0.000 A 
ATOM      3  C   UNL     1       3.030   5.316  19.411  0.00  0.00    +0.000 A 
ATOM      4  C   UNL     1       3.961   4.475  18.751  0.00  0.00    +0.000 A 
ATOM      5  C   UNL     1       4.566   4.944  17.580  0.00  0.00    +0.000 A 
ATOM      6  C   UNL     1       4.275   6.242  17.073  0.00  0.00    +0.000 A 
ATOM      7  C   UNL     1       5.147   6.543  15.888  0.00  0.00    +0.000 C 
ATOM      8  C   UNL     1       5.571   5.150  15.446  0.00  0.00    +0.000 C 
ATOM      9  C   UNL     1       5.625   4.311  16.718  0.00  0.00    +0.000 C 
ENDROOT
BRANCH   1  11
ATOM     10  C   UNL     1       1.801   8.844  17.889  0.00  0.00    +0.000 C 
ATOM     11  O   UNL     1       3.053   8.365  17.428  0.00  0.00    +0.000 OA
ENDBRANCH   1  11
BRANCH   4  12
ATOM     12  O   UNL     1       4.163   3.278  19.380  0.00  0.00    +0.000 OA
ATOM     13  C   UNL     1       3.688   2.073  18.810  0.00  0.00    +0.000 C 
ENDBRANCH   4  12
BRANCH   3  14
ATOM     14  C   UNL     1       2.343   4.832  20.688  0.00  0.00    +0.000 C 
BRANCH  14  15
ATOM     15  C   UNL     1       0.997   4.104  20.509  0.00  0.00    +0.000 C 
BRANCH  15  16
ATOM     16  N   UNL     1       0.953   2.823  21.214  0.00  0.00    +0.000 NA
ATOM     17  H   UNL     1       1.684   2.212  20.852  0.00  0.00    +0.000 HD
ATOM     18  H   UNL     1       0.070   2.361  21.001  0.00  0.00    +0.000 HD
ENDBRANCH  15  16
ENDBRANCH  14  15
ENDBRANCH   3  14
TORSDOF 5
ENDMDL
MODEL 3
REMARK VINA RESULT:      -6.0      1.280      1.311
REMARK  Name = 
REMARK  7 active torsions:
REMARK  status: ('A' for Active; 'I' for Inactive)
REMARK    1  A    between atoms: C_1  and  O_2
REMARK    2  A    between atoms: O_2  and  C_3
REMARK    3  A    between atoms: C_5  and  C_6
REMARK    4  A    between atoms: C_6  and  C_7
REMARK    5  A    between atoms: C_7  and  N_8
REMARK    6  A    between atoms: C_9  and  O_10
REMARK    7  A    between atoms: O_10  and  C_11
REMARK                            x       y       z     vdW  Elec       q    Type
REMARK                         _______ _______ _______ _____ _____    ______ ____
ROOT
ATOM      1  C   UNL     1       3.565   6.934  17.770  0.00  0.00    +0.000 A 
ATOM      2  C   UNL     1       2.489   6.147  18.187  0.00  0.00    +0.000 A 
ATOM      3  C   UNL     1       2.607   4.761  18.416  0.00  0.00    +0.000 A 
ATOM      4  C   UNL     1       3.866   4.134  18.240  0.00  0.00    +0.000 A 
ATOM      5  C   UNL     1       4.944   4.917  17.812  0.00  0.00    +0.000 A 
ATOM      6  C   UNL     1       4.790   6.313  17.581  0.00  0.00    +0.000 A 
ATOM      7  C   UNL     1       6.118   6.933  17.256  0.00  0.00    +0.000 C 
ATOM      8  C   UNL     1       6.931   5.726  16.810  0.00  0.00    +0.000 C 
ATOM      9  C   UNL     1       6.388   4.545  17.607  0.00  0.00    +0.000 C 
ENDROOT
BRANCH   1  11
ATOM     10  C   UNL     1       1.925   8.646  17.932  0.00  0.00    +0.000 C 
ATOM     11  O   UNL     1       3.266   8.260  17.678  0.00  0.00    +0.000 OA
ENDBRANCH   1  11
BRANCH   4  12
ATOM     12  O   UNL     1       3.863   2.799  18.538  0.00  0.00    +0.000 OA
ATOM     13  C   UNL     1       4.394   2.331  19.764  0.00  0.00    +0.000 C 
ENDBRANCH   4  12
BRANCH   3  14
ATOM     14  C   UNL     1       1.405   3.934  18.873  0.00  0.00    +0.000 C 
BRANCH  14  15
ATOM     15  C   UNL     1       0.968   4.112  20.339  0.00  0.00    +0.000 C 
BRANCH  15  16
ATOM     16  N   UNL     1       0.998   2.859  21.093  0.00  0.00    +0.000 NA
ATOM     17  H   UNL     1       1.962   2.632  21.334  0.00  0.00    +0.000 HD
ATOM     18  H   UNL     1       0.674   2.104  20.490  0.00  0.00    +0.000 HD
ENDBRANCH  15  16
ENDBRANCH  14  15
ENDBRANCH   3  14
TORSDOF 5
ENDMDL
MODEL 4
REMARK VINA RESULT:      -6.0      2.842      5.511
REMARK  Name = 
REMARK  7 active torsions:
REMARK  status: ('A' for Active; 'I' for Inactive)
REMARK    1  A    between atoms: C_1  and  O_2
REMARK    2  A    between atoms: O_2  and  C_3
REMARK    3  A    between atoms: C_5  and  C_6
REMARK    4  A    between atoms: C_6  and  C_7
REMARK    5  A    between atoms: C_7  and  N_8
REMARK    6  A    between atoms: C_9  and  O_10
REMARK    7  A    between atoms: O_10  and  C_11
REMARK                            x       y       z     vdW  Elec       q    Type
REMARK                         _______ _______ _______ _____ _____    ______ ____
ROOT
ATOM      1  C   UNL     1       3.563   3.910  17.201  0.00  0.00    +0.000 A 
ATOM      2  C   UNL     1       4.750   3.698  16.496  0.00  0.00    +0.000 A 
ATOM      3  C   UNL     1       5.659   4.738  16.211  0.00  0.00    +0.000 A 
ATOM      4  C   UNL     1       5.378   6.049  16.671  0.00  0.00    +0.000 A 
ATOM      5  C   UNL     1       4.184   6.267  17.367  0.00  0.00    +0.000 A 
ATOM      6  C   UNL     1       3.283   5.197  17.631  0.00  0.00    +0.000 A 
ATOM      7  C   UNL     1       2.153   5.674  18.498  0.00  0.00    +0.000 C 
ATOM      8  C   UNL     1       2.196   7.179  18.275  0.00  0.00    +0.000 C 
ATOM      9  C   UNL     1       3.661   7.518  18.021  0.00  0.00    +0.000 C 
ENDROOT
BRANCH   1  11
ATOM     10  C   UNL     1       3.431   1.822  18.327  0.00  0.00    +0.000 C 
ATOM     11  O   UNL     1       2.860   2.767  17.438  0.00  0.00    +0.000 OA
ENDBRANCH   1  11
BRANCH   4  12
ATOM     12  O   UNL     1       6.355   6.957  16.373  0.00  0.00    +0.000 OA
ATOM     13  C   UNL     1       7.237   7.425  17.377  0.00  0.00    +0.000 C 
ENDBRANCH   4  12
BRANCH   3  14
ATOM     14  C   UNL     1       6.949   4.465  15.438  0.00  0.00    +0.000 C 
BRANCH  14  15
ATOM     15  C   UNL     1       6.866   4.574  13.904  0.00  0.00    +0.000 C 
BRANCH  15  16
ATOM     16  N   UNL     1       6.281   3.384  13.286  0.00  0.00    +0.000 NA
ATOM     17  H   UNL     1       6.972   2.636  13.271  0.00  0.00    +0.000 HD
ATOM     18  H   UNL     1       6.068   3.591  12.311  0.00  0.00    +0.000 HD
ENDBRANCH  15  16
ENDBRANCH  14  15
ENDBRANCH   3  14
TORSDOF 5
ENDMDL
MODEL 5
REMARK VINA RESULT:      -5.9      2.295      4.121
REMARK  Name = 
REMARK  7 active torsions:
REMARK  status: ('A' for Active; 'I' for Inactive)
REMARK    1  A    between atoms: C_1  and  O_2
REMARK    2  A    between atoms: O_2  and  C_3
REMARK    3  A    between atoms: C_5  and  C_6
REMARK    4  A    between atoms: C_6  and  C_7
REMARK    5  A    between atoms: C_7  and  N_8
REMARK    6  A    between atoms: C_9  and  O_10
REMARK    7  A    between atoms: O_10  and  C_11
REMARK                            x       y       z     vdW  Elec       q    Type
REMARK                         _______ _______ _______ _____ _____    ______ ____
ROOT
ATOM      1  C   UNL     1       3.055   6.492  18.135  0.00  0.00    +0.000 A 
ATOM      2  C   UNL     1       4.351   6.948  17.885  0.00  0.00    +0.000 A 
ATOM      3  C   UNL     1       5.369   6.106  17.392  0.00  0.00    +0.000 A 
ATOM      4  C   UNL     1       5.071   4.748  17.115  0.00  0.00    +0.000 A 
ATOM      5  C   UNL     1       3.776   4.285  17.374  0.00  0.00    +0.000 A 
ATOM      6  C   UNL     1       2.774   5.159  17.881  0.00  0.00    +0.000 A 
ATOM      7  C   UNL     1       1.453   4.447  17.947  0.00  0.00    +0.000 C 
ATOM      8  C   UNL     1       1.880   2.986  17.941  0.00  0.00    +0.000 C 
ATOM      9  C   UNL     1       3.164   2.934  17.120  0.00  0.00    +0.000 C 
ENDROOT
BRANCH   1  11
ATOM     10  C   UNL     1       2.160   8.662  17.762  0.00  0.00    +0.000 C 
ATOM     11  O   UNL     1       2.201   7.475  18.537  0.00  0.00    +0.000 OA
ENDBRANCH   1  11
BRANCH   4  12
ATOM     12  O   UNL     1       6.126   4.049  16.596  0.00  0.00    +0.000 OA
ATOM     13  C   UNL     1       6.203   3.779  15.209  0.00  0.00    +0.000 C 
ENDBRANCH   4  12
BRANCH   3  14
ATOM     14  C   UNL     1       6.775   6.643  17.130  0.00  0.00    +0.000 C 
BRANCH  14  15
ATOM     15  C   UNL     1       7.744   6.646  18.328  0.00  0.00    +0.000 C 
BRANCH  15  16
ATOM     16  N   UNL     1       7.835   5.340  18.981  0.00  0.00    +0.000 NA
ATOM     17  H   UNL     1       7.491   5.415  19.937  0.00  0.00    +0.000 HD
ATOM     18  H   UNL     1       8.816   5.077  19.055  0.00  0.00    +0.000 HD
ENDBRANCH  15  16
ENDBRANCH  14  15
ENDBRANCH   3  14
TORSDOF 5
ENDMDL
MODEL 6
REMARK VINA RESULT:      -5.8      2.470      4.281
REMARK  Name = 
REMARK  7 active torsions:
REMARK  status: ('A' for Active; 'I' for Inactive)
REMARK    1  A    between atoms: C_1  and  O_2
REMARK    2  A    between atoms: O_2  and  C_3
REMARK    3  A    between atoms: C_5  and  C_6
REMARK    4  A    between atoms: C_6  and  C_7
REMARK    5  A    between atoms: C_7  and  N_8
REMARK    6  A    between atoms: C_9  and  O_10
REMARK    7  A    between atoms: O_10  and  C_11
REMARK                            x       y       z     vdW  Elec       q    Type
REMARK                         _______ _______ _______ _____ _____    ______ ____
ROOT
ATOM      1  C   UNL     1       2.432   5.714  19.437  0.00  0.00    +0.000 A 
ATOM      2  C   UNL     1       3.329   6.520  18.734  0.00  0.00    +0.000 A 
ATOM      3  C   UNL     1       4.052   6.054  17.616  0.00  0.00    +0.000 A 
ATOM      4  C   UNL     1       3.852   4.725  17.167  0.00  0.00    +0.000 A 
ATOM      5  C   UNL     1       2.961   3.910  17.876  0.00  0.00    +0.000 A 
ATOM      6  C   UNL     1       2.254   4.409  19.006  0.00  0.00    +0.000 A 
ATOM      7  C   UNL     1       1.277   3.380  19.499  0.00  0.00    +0.000 C 
ATOM      8  C   UNL     1       1.843   2.097  18.909  0.00  0.00    +0.000 C 
ATOM      9  C   UNL     1       2.507   2.503  17.597  0.00  0.00    +0.000 C 
ENDROOT
BRANCH   1  11
ATOM     10  C   UNL     1       1.744   7.787  20.374  0.00  0.00    +0.000 C 
ATOM     11  O   UNL     1       1.779   6.371  20.437  0.00  0.00    +0.000 OA
ENDBRANCH   1  11
BRANCH   4  12
ATOM     12  O   UNL     1       4.572   4.408  16.049  0.00  0.00    +0.000 OA
ATOM     13  C   UNL     1       5.634   3.474  16.113  0.00  0.00    +0.000 C 
ENDBRANCH   4  12
BRANCH   3  14
ATOM     14  C   UNL     1       5.025   6.968  16.872  0.00  0.00    +0.000 C 
BRANCH  14  15
ATOM     15  C   UNL     1       6.487   6.953  17.355  0.00  0.00    +0.000 C 
BRANCH  15  16
ATOM     16  N   UNL     1       7.392   6.323  16.393  0.00  0.00    +0.000 NA
ATOM     17  H   UNL     1       7.889   7.044  15.873  0.00  0.00    +0.000 HD
ATOM     18  H   UNL     1       6.838   5.812  15.707  0.00  0.00    +0.000 HD
ENDBRANCH  15  16
ENDBRANCH  14  15
ENDBRANCH   3  14
TORSDOF 5
ENDMDL
MODEL 7
REMARK VINA RESULT:      -5.7      2.317      4.137
REMARK  Name = 
REMARK  7 active torsions:
REMARK  status: ('A' for Active; 'I' for Inactive)
REMARK    1  A    between atoms: C_1  and  O_2
REMARK    2  A    between atoms: O_2  and  C_3
REMARK    3  A    between atoms: C_5  and  C_6
REMARK    4  A    between atoms: C_6  and  C_7
REMARK    5  A    between atoms: C_7  and  N_8
REMARK    6  A    between atoms: C_9  and  O_10
REMARK    7  A    between atoms: O_10  and  C_11
REMARK                            x       y       z     vdW  Elec       q    Type
REMARK                         _______ _______ _______ _____ _____    ______ ____
ROOT
ATOM      1  C   UNL     1       2.596   5.469  19.666  0.00  0.00    +0.000 A 
ATOM      2  C   UNL     1       3.809   6.042  19.282  0.00  0.00    +0.000 A 
ATOM      3  C   UNL     1       4.678   5.429  18.356  0.00  0.00    +0.000 A 
ATOM      4  C   UNL     1       4.305   4.193  17.770  0.00  0.00    +0.000 A 
ATOM      5  C   UNL     1       3.094   3.611  18.160  0.00  0.00    +0.000 A 
ATOM      6  C   UNL     1       2.244   4.252  19.105  0.00  0.00    +0.000 A 
ATOM      7  C   UNL     1       0.961   3.485  19.250  0.00  0.00    +0.000 C 
ATOM      8  C   UNL     1       1.353   2.110  18.728  0.00  0.00    +0.000 C 
ATOM      9  C   UNL     1       2.419   2.360  17.667  0.00  0.00    +0.000 C 
ENDROOT
BRANCH   1  11
ATOM     10  C   UNL     1       1.859   7.648  20.264  0.00  0.00    +0.000 C 
ATOM     11  O   UNL     1       1.868   6.253  20.512  0.00  0.00    +0.000 OA
ENDBRANCH   1  11
BRANCH   4  12
ATOM     12  O   UNL     1       5.206   3.725  16.854  0.00  0.00    +0.000 OA
ATOM     13  C   UNL     1       5.124   4.114  15.495  0.00  0.00    +0.000 C 
ENDBRANCH   4  12
BRANCH   3  14
ATOM     14  C   UNL     1       5.999   6.089  17.959  0.00  0.00    +0.000 C 
BRANCH  14  15
ATOM     15  C   UNL     1       7.257   5.612  18.709  0.00  0.00    +0.000 C 
BRANCH  15  16
ATOM     16  N   UNL     1       7.831   4.397  18.130  0.00  0.00    +0.000 NA
ATOM     17  H   UNL     1       8.669   4.638  17.603  0.00  0.00    +0.000 HD
ATOM     18  H   UNL     1       7.174   4.012  17.454  0.00  0.00    +0.000 HD
ENDBRANCH  15  16
ENDBRANCH  14  15
ENDBRANCH   3  14
TORSDOF 5
ENDMDL
MODEL 8
REMARK VINA RESULT:      -5.7      1.414      1.476
REMARK  Name = 
REMARK  7 active torsions:
REMARK  status: ('A' for Active; 'I' for Inactive)
REMARK    1  A    between atoms: C_1  and  O_2
REMARK    2  A    between atoms: O_2  and  C_3
REMARK    3  A    between atoms: C_5  and  C_6
REMARK    4  A    between atoms: C_6  and  C_7
REMARK    5  A    between atoms: C_7  and  N_8
REMARK    6  A    between atoms: C_9  and  O_10
REMARK    7  A    between atoms: O_10  and  C_11
REMARK                            x       y       z     vdW  Elec       q    Type
REMARK                         _______ _______ _______ _____ _____    ______ ____
ROOT
ATOM      1  C   UNL     1       2.911   6.525  18.998  0.00  0.00    +0.000 A 
ATOM      2  C   UNL     1       2.490   5.645  19.997  0.00  0.00    +0.000 A 
ATOM      3  C   UNL     1       2.936   4.309  20.068  0.00  0.00    +0.000 A 
ATOM      4  C   UNL     1       3.865   3.837  19.108  0.00  0.00    +0.000 A 
ATOM      5  C   UNL     1       4.282   4.713  18.099  0.00  0.00    +0.000 A 
ATOM      6  C   UNL     1       3.805   6.053  18.050  0.00  0.00    +0.000 A 
ATOM      7  C   UNL     1       4.501   6.809  16.954  0.00  0.00    +0.000 C 
ATOM      8  C   UNL     1       5.009   5.683  16.066  0.00  0.00    +0.000 C 
ATOM      9  C   UNL     1       5.292   4.514  17.002  0.00  0.00    +0.000 C 
ENDROOT
BRANCH   1  11
ATOM     10  C   UNL     1       1.662   8.063  20.310  0.00  0.00    +0.000 C 
ATOM     11  O   UNL     1       2.424   7.789  19.146  0.00  0.00    +0.000 OA
ENDBRANCH   1  11
BRANCH   4  12
ATOM     12  O   UNL     1       4.258   2.543  19.312  0.00  0.00    +0.000 OA
ATOM     13  C   UNL     1       3.745   1.496  18.508  0.00  0.00    +0.000 C 
ENDBRANCH   4  12
BRANCH   3  14
ATOM     14  C   UNL     1       2.452   3.377  21.178  0.00  0.00    +0.000 C 
BRANCH  14  15
ATOM     15  C   UNL     1       0.985   2.914  21.096  0.00  0.00    +0.000 C 
BRANCH  15  16
ATOM     16  N   UNL     1       0.522   2.755  19.717  0.00  0.00    +0.000 NA
ATOM     17  H   UNL     1       0.353   3.673  19.309  0.00  0.00    +0.000 HD
ATOM     18  H   UNL     1      -0.379   2.281  19.725  0.00  0.00    +0.000 HD
ENDBRANCH  15  16
ENDBRANCH  14  15
ENDBRANCH   3  14
TORSDOF 5
ENDMDL
MODEL 9
REMARK VINA RESULT:      -5.7      2.142      5.485
REMARK  Name = 
REMARK  7 active torsions:
REMARK  status: ('A' for Active; 'I' for Inactive)
REMARK    1  A    between atoms: C_1  and  O_2
REMARK    2  A    between atoms: O_2  and  C_3
REMARK    3  A    between atoms: C_5  and  C_6
REMARK    4  A    between atoms: C_6  and  C_7
REMARK    5  A    between atoms: C_7  and  N_8
REMARK    6  A    between atoms: C_9  and  O_10
REMARK    7  A    between atoms: O_10  and  C_11
REMARK                            x       y       z     vdW  Elec       q    Type
REMARK                         _______ _______ _______ _____ _____    ______ ____
ROOT
ATOM      1  C   UNL     1       3.168   3.122  17.930  0.00  0.00    +0.000 A 
ATOM      2  C   UNL     1       3.974   3.816  17.024  0.00  0.00    +0.000 A 
ATOM      3  C   UNL     1       4.144   5.215  17.078  0.00  0.00    +0.000 A 
ATOM      4  C   UNL     1       3.494   5.953  18.098  0.00  0.00    +0.000 A 
ATOM      5  C   UNL     1       2.677   5.263  19.001  0.00  0.00    +0.000 A 
ATOM      6  C   UNL     1       2.520   3.851  18.914  0.00  0.00    +0.000 A 
ATOM      7  C   UNL     1       1.701   3.350  20.069  0.00  0.00    +0.000 C 
ATOM      8  C   UNL     1       0.978   4.613  20.516  0.00  0.00    +0.000 C 
ATOM      9  C   UNL     1       1.928   5.764  20.205  0.00  0.00    +0.000 C 
ENDROOT
BRANCH   1  11
ATOM     10  C   UNL     1       4.008   1.015  18.638  0.00  0.00    +0.000 C 
ATOM     11  O   UNL     1       3.195   1.771  17.756  0.00  0.00    +0.000 OA
ENDBRANCH   1  11
BRANCH   4  12
ATOM     12  O   UNL     1       3.775   7.291  18.073  0.00  0.00    +0.000 OA
ATOM     13  C   UNL     1       2.756   8.239  17.818  0.00  0.00    +0.000 C 
ENDBRANCH   4  12
BRANCH   3  14
ATOM     14  C   UNL     1       5.036   5.938  16.069  0.00  0.00    +0.000 C 
BRANCH  14  15
ATOM     15  C   UNL     1       6.496   5.454  15.973  0.00  0.00    +0.000 C 
BRANCH  15  16
ATOM     16  N   UNL     1       7.449   6.430  16.500  0.00  0.00    +0.000 NA
ATOM     17  H   UNL     1       7.953   6.862  15.728  0.00  0.00    +0.000 HD
ATOM     18  H   UNL     1       8.148   5.941  17.055  0.00  0.00    +0.000 HD
ENDBRANCH  15  16
ENDBRANCH  14  15
ENDBRANCH   3  14
TORSDOF 5
ENDMDL
