MODEL 1
REMARK VINA RESULT:      -8.2      0.000      0.000
REMARK  Name = 
REMARK  5 active torsions:
REMARK  status: ('A' for Active; 'I' for Inactive)
REMARK    1  A    between atoms: O_1  and  C_2
REMARK    2  A    between atoms: C_7  and  C_8
REMARK    3  A    between atoms: C_8  and  N_9
REMARK    4  A    between atoms: N_12  and  C_13
REMARK    5  A    between atoms: C_17  and  C_18
REMARK                            x       y       z     vdW  Elec       q    Type
REMARK                         _______ _______ _______ _____ _____    ______ ____
ROOT
ATOM      1  N   UNL     1       4.091   6.012  18.469  0.00  0.00    +0.000 NA
ATOM      2  C   UNL     1       4.468   4.606  18.215  0.00  0.00    +0.000 C 
ATOM      3  C   UNL     1       4.655   4.203  16.732  0.00  0.00    +0.000 C 
ATOM      4  N   UNL     1       5.606   5.093  16.030  0.00  0.00    +0.000 N 
ATOM      5  C   UNL     1       5.365   6.537  16.250  0.00  0.00    +0.000 C 
ATOM      6  C   UNL     1       5.017   6.886  17.727  0.00  0.00    +0.000 C 
ENDROOT
BRANCH   4   7
ATOM      7  C   UNL     1       6.044   4.718  14.747  0.00  0.00    +0.000 A 
ATOM      8  C   UNL     1       7.316   5.046  14.243  0.00  0.00    +0.000 A 
ATOM      9  C   UNL     1       7.700   4.751  12.926  0.00  0.00    +0.000 A 
ATOM     10  C   UNL     1       6.809   4.126  12.061  0.00  0.00    +0.000 A 
ATOM     11  C   UNL     1       5.532   3.788  12.510  0.00  0.00    +0.000 A 
ATOM     12  C   UNL     1       5.175   4.062  13.851  0.00  0.00    +0.000 A 
BRANCH  11  13
ATOM     13  C   UNL     1       4.528   3.160  11.574  0.00  0.00    +0.000 C 
ATOM     14  F   UNL     1       3.314   2.932  12.154  0.00  0.00    +0.000 F 
ATOM     15  F   UNL     1       4.274   3.928  10.478  0.00  0.00    +0.000 F 
ATOM     16  F   UNL     1       4.937   1.951  11.097  0.00  0.00    +0.000 F 
ENDBRANCH  11  13
ENDBRANCH   4   7
BRANCH   1  17
ATOM     17  C   UNL     1       2.662   6.310  18.227  0.00  0.00    +0.000 C 
BRANCH  17  23
ATOM     18  C   UNL     1       1.925   8.765  18.285  0.00  0.00    +0.000 A 
ATOM     19  C   UNL     1       1.195   9.799  18.879  0.00  0.00    +0.000 A 
ATOM     20  C   UNL     1       0.814   9.637  20.195  0.00  0.00    +0.000 A 
ATOM     21  C   UNL     1       1.336   8.592  20.967  0.00  0.00    +0.000 A 
ATOM     22  C   UNL     1       1.989   7.533  20.361  0.00  0.00    +0.000 A 
ATOM     23  C   UNL     1       2.198   7.562  18.967  0.00  0.00    +0.000 A 
ATOM     24  C   UNL     1       0.894   8.764  22.390  0.00  0.00    +0.000 C 
ATOM     25  C   UNL     1      -0.492   9.339  22.101  0.00  0.00    +0.000 C 
ATOM     26  C   UNL     1      -0.243  10.367  20.974  0.00  0.00    +0.000 C 
BRANCH  18  27
ATOM     27  O   UNL     1       2.366   8.916  17.001  0.00  0.00    +0.000 OA
ATOM     28  H   UNL     1       2.503   9.871  16.862  0.00  0.00    +0.000 HD
ENDBRANCH  18  27
ENDBRANCH  17  23
ENDBRANCH   1  17
TORSDOF 5
ENDMDL
MODEL 2
REMARK VINA RESULT:      -8.1      4.441      8.838
REMARK  Name = 
REMARK  5 active torsions:
REMARK  status: ('A' for Active; 'I' for Inactive)
REMARK    1  A    between atoms: O_1  and  C_2
REMARK    2  A    between atoms: C_7  and  C_8
REMARK    3  A    between atoms: C_8  and  N_9
REMARK    4  A    between atoms: N_12  and  C_13
REMARK    5  A    between atoms: C_17  and  C_18
REMARK                            x       y       z     vdW  Elec       q    Type
REMARK                         _______ _______ _______ _____ _____    ______ ____
ROOT
ATOM      1  N   UNL     1       2.513   7.443  19.558  0.00  0.00    +0.000 NA
ATOM      2  C   UNL     1       2.485   8.292  18.349  0.00  0.00    +0.000 C 
ATOM      3  C   UNL     1       1.111   8.888  17.960  0.00  0.00    +0.000 C 
ATOM      4  N   UNL     1       0.487   9.624  19.083  0.00  0.00    +0.000 N 
ATOM      5  C   UNL     1       0.501   8.895  20.371  0.00  0.00    +0.000 C 
ATOM      6  C   UNL     1       1.848   8.169  20.654  0.00  0.00    +0.000 C 
ENDROOT
BRANCH   4   7
ATOM      7  C   UNL     1      -0.652  10.405  18.814  0.00  0.00    +0.000 A 
ATOM      8  C   UNL     1      -1.186  11.327  19.733  0.00  0.00    +0.000 A 
ATOM      9  C   UNL     1      -2.380  12.023  19.490  0.00  0.00    +0.000 A 
ATOM     10  C   UNL     1      -3.090  11.805  18.314  0.00  0.00    +0.000 A 
ATOM     11  C   UNL     1      -2.607  10.893  17.374  0.00  0.00    +0.000 A 
ATOM     12  C   UNL     1      -1.384  10.226  17.622  0.00  0.00    +0.000 A 
BRANCH  11  13
ATOM     13  C   UNL     1      -3.388  10.597  16.117  0.00  0.00    +0.000 C 
ATOM     14  F   UNL     1      -3.364   9.280  15.760  0.00  0.00    +0.000 F 
ATOM     15  F   UNL     1      -4.705  10.926  16.223  0.00  0.00    +0.000 F 
ATOM     16  F   UNL     1      -2.918  11.277  15.034  0.00  0.00    +0.000 F 
ENDBRANCH  11  13
ENDBRANCH   4   7
BRANCH   1  17
ATOM     17  C   UNL     1       1.999   6.072  19.347  0.00  0.00    +0.000 C 
BRANCH  17  23
ATOM     18  C   UNL     1       2.596   4.230  17.667  0.00  0.00    +0.000 A 
ATOM     19  C   UNL     1       3.498   3.652  16.768  0.00  0.00    +0.000 A 
ATOM     20  C   UNL     1       4.830   3.986  16.899  0.00  0.00    +0.000 A 
ATOM     21  C   UNL     1       5.285   4.684  18.024  0.00  0.00    +0.000 A 
ATOM     22  C   UNL     1       4.387   5.319  18.865  0.00  0.00    +0.000 A 
ATOM     23  C   UNL     1       3.005   5.181  18.622  0.00  0.00    +0.000 A 
ATOM     24  C   UNL     1       6.783   4.751  17.988  0.00  0.00    +0.000 C 
ATOM     25  C   UNL     1       6.942   4.872  16.474  0.00  0.00    +0.000 C 
ATOM     26  C   UNL     1       5.949   3.831  15.908  0.00  0.00    +0.000 C 
BRANCH  18  27
ATOM     27  O   UNL     1       1.277   3.877  17.602  0.00  0.00    +0.000 OA
ATOM     28  H   UNL     1       1.232   2.920  17.782  0.00  0.00    +0.000 HD
ENDBRANCH  18  27
ENDBRANCH  17  23
ENDBRANCH   1  17
TORSDOF 5
ENDMDL
MODEL 3
REMARK VINA RESULT:      -7.8      4.180      6.039
REMARK  Name = 
REMARK  5 active torsions:
REMARK  status: ('A' for Active; 'I' for Inactive)
REMARK    1  A    between atoms: O_1  and  C_2
REMARK    2  A    between atoms: C_7  and  C_8
REMARK    3  A    between atoms: C_8  and  N_9
REMARK    4  A    between atoms: N_12  and  C_13
REMARK    5  A    between atoms: C_17  and  C_18
REMARK                            x       y       z     vdW  Elec       q    Type
REMARK                         _______ _______ _______ _____ _____    ______ ____
ROOT
ATOM      1  N   UNL     1       0.916  10.286  19.323  0.00  0.00    +0.000 NA
ATOM      2  C   UNL     1       1.354   9.398  20.420  0.00  0.00    +0.000 C 
ATOM      3  C   UNL     1       1.475   7.893  20.078  0.00  0.00    +0.000 C 
ATOM      4  N   UNL     1       2.333   7.660  18.895  0.00  0.00    +0.000 N 
ATOM      5  C   UNL     1       2.026   8.532  17.739  0.00  0.00    +0.000 C 
ATOM      6  C   UNL     1       1.747  10.010  18.138  0.00  0.00    +0.000 C 
ENDROOT
BRANCH   4   7
ATOM      7  C   UNL     1       2.716   6.338  18.601  0.00  0.00    +0.000 A 
ATOM      8  C   UNL     1       3.758   6.019  17.712  0.00  0.00    +0.000 A 
ATOM      9  C   UNL     1       4.060   4.697  17.354  0.00  0.00    +0.000 A 
ATOM     10  C   UNL     1       3.312   3.644  17.868  0.00  0.00    +0.000 A 
ATOM     11  C   UNL     1       2.261   3.908  18.747  0.00  0.00    +0.000 A 
ATOM     12  C   UNL     1       1.993   5.246  19.124  0.00  0.00    +0.000 A 
BRANCH  11  13
ATOM     13  C   UNL     1       1.398   2.788  19.276  0.00  0.00    +0.000 C 
ATOM     14  F   UNL     1       0.810   3.074  20.473  0.00  0.00    +0.000 F 
ATOM     15  F   UNL     1       0.379   2.463  18.433  0.00  0.00    +0.000 F 
ATOM     16  F   UNL     1       2.097   1.636  19.478  0.00  0.00    +0.000 F 
ENDBRANCH  11  13
ENDBRANCH   4   7
BRANCH   1  17
ATOM     17  C   UNL     1      -0.539  10.248  19.057  0.00  0.00    +0.000 C 
BRANCH  17  23
ATOM     18  C   UNL     1      -2.292  12.110  19.233  0.00  0.00    +0.000 A 
ATOM     19  C   UNL     1      -3.214  12.843  19.988  0.00  0.00    +0.000 A 
ATOM     20  C   UNL     1      -3.069  12.828  21.360  0.00  0.00    +0.000 A 
ATOM     21  C   UNL     1      -1.917  12.297  21.951  0.00  0.00    +0.000 A 
ATOM     22  C   UNL     1      -1.051  11.508  21.215  0.00  0.00    +0.000 A 
ATOM     23  C   UNL     1      -1.299  11.316  19.840  0.00  0.00    +0.000 A 
ATOM     24  C   UNL     1      -1.950  12.574  23.425  0.00  0.00    +0.000 C 
ATOM     25  C   UNL     1      -3.458  12.433  23.622  0.00  0.00    +0.000 C 
ATOM     26  C   UNL     1      -4.065  13.195  22.422  0.00  0.00    +0.000 C 
BRANCH  18  27
ATOM     27  O   UNL     1      -2.372  12.149  17.869  0.00  0.00    +0.000 OA
ATOM     28  H   UNL     1      -2.426  11.224  17.564  0.00  0.00    +0.000 HD
ENDBRANCH  18  27
ENDBRANCH  17  23
ENDBRANCH   1  17
TORSDOF 5
ENDMDL
MODEL 4
REMARK VINA RESULT:      -7.8      0.786      1.175
REMARK  Name = 
REMARK  5 active torsions:
REMARK  status: ('A' for Active; 'I' for Inactive)
REMARK    1  A    between atoms: O_1  and  C_2
REMARK    2  A    between atoms: C_7  and  C_8
REMARK    3  A    between atoms: C_8  and  N_9
REMARK    4  A    between atoms: N_12  and  C_13
REMARK    5  A    between atoms: C_17  and  C_18
REMARK                            x       y       z     vdW  Elec       q    Type
REMARK                         _______ _______ _______ _____ _____    ______ ____
ROOT
ATOM      1  N   UNL     1       4.313   5.418  18.349  0.00  0.00    +0.000 NA
ATOM      2  C   UNL     1       4.715   4.054  17.948  0.00  0.00    +0.000 C 
ATOM      3  C   UNL     1       4.984   3.834  16.440  0.00  0.00    +0.000 C 
ATOM      4  N   UNL     1       5.963   4.805  15.903  0.00  0.00    +0.000 N 
ATOM      5  C   UNL     1       5.699   6.211  16.282  0.00  0.00    +0.000 C 
ATOM      6  C   UNL     1       5.269   6.377  17.769  0.00  0.00    +0.000 C 
ENDROOT
BRANCH   4   7
ATOM      7  C   UNL     1       6.473   4.589  14.609  0.00  0.00    +0.000 A 
ATOM      8  C   UNL     1       7.451   5.411  14.021  0.00  0.00    +0.000 A 
ATOM      9  C   UNL     1       7.875   5.241  12.694  0.00  0.00    +0.000 A 
ATOM     10  C   UNL     1       7.316   4.243  11.903  0.00  0.00    +0.000 A 
ATOM     11  C   UNL     1       6.335   3.407  12.437  0.00  0.00    +0.000 A 
ATOM     12  C   UNL     1       5.945   3.571  13.788  0.00  0.00    +0.000 A 
BRANCH  11  13
ATOM     13  C   UNL     1       5.674   2.352  11.583  0.00  0.00    +0.000 C 
ATOM     14  F   UNL     1       6.315   2.132  10.399  0.00  0.00    +0.000 F 
ATOM     15  F   UNL     1       5.607   1.139  12.198  0.00  0.00    +0.000 F 
ATOM     16  F   UNL     1       4.392   2.673  11.250  0.00  0.00    +0.000 F 
ENDBRANCH  11  13
ENDBRANCH   4   7
BRANCH   1  17
ATOM     17  C   UNL     1       2.897   5.740  18.069  0.00  0.00    +0.000 C 
BRANCH  17  23
ATOM     18  C   UNL     1       2.299   8.232  17.976  0.00  0.00    +0.000 A 
ATOM     19  C   UNL     1       1.593   9.330  18.476  0.00  0.00    +0.000 A 
ATOM     20  C   UNL     1       1.121   9.249  19.770  0.00  0.00    +0.000 A 
ATOM     21  C   UNL     1       1.533   8.213  20.618  0.00  0.00    +0.000 A 
ATOM     22  C   UNL     1       2.161   7.094  20.101  0.00  0.00    +0.000 A 
ATOM     23  C   UNL     1       2.459   7.048  18.724  0.00  0.00    +0.000 A 
ATOM     24  C   UNL     1       1.012   8.474  22.000  0.00  0.00    +0.000 C 
ATOM     25  C   UNL     1      -0.318   9.109  21.597  0.00  0.00    +0.000 C 
ATOM     26  C   UNL     1       0.060  10.070  20.446  0.00  0.00    +0.000 C 
BRANCH  18  27
ATOM     27  O   UNL     1       2.829   8.300  16.718  0.00  0.00    +0.000 OA
ATOM     28  H   UNL     1       3.796   8.351  16.823  0.00  0.00    +0.000 HD
ENDBRANCH  18  27
ENDBRANCH  17  23
ENDBRANCH   1  17
TORSDOF 5
ENDMDL
MODEL 5
REMARK VINA RESULT:      -7.7      3.741      8.639
REMARK  Name = 
REMARK  5 active torsions:
REMARK  status: ('A' for Active; 'I' for Inactive)
REMARK    1  A    between atoms: O_1  and  C_2
REMARK    2  A    between atoms: C_7  and  C_8
REMARK    3  A    between atoms: C_8  and  N_9
REMARK    4  A    between atoms: N_12  and  C_13
REMARK    5  A    between atoms: C_17  and  C_18
REMARK                            x       y       z     vdW  Elec       q    Type
REMARK                         _______ _______ _______ _____ _____    ______ ____
ROOT
ATOM      1  N   UNL     1       6.877   6.237  16.354  0.00  0.00    +0.000 NA
ATOM      2  C   UNL     1       5.520   6.579  15.881  0.00  0.00    +0.000 C 
ATOM      3  C   UNL     1       4.343   5.911  16.632  0.00  0.00    +0.000 C 
ATOM      4  N   UNL     1       4.417   6.135  18.093  0.00  0.00    +0.000 N 
ATOM      5  C   UNL     1       5.751   5.876  18.682  0.00  0.00    +0.000 C 
ATOM      6  C   UNL     1       6.923   6.419  17.815  0.00  0.00    +0.000 C 
ENDROOT
BRANCH   4   7
ATOM      7  C   UNL     1       3.304   5.782  18.877  0.00  0.00    +0.000 A 
ATOM      8  C   UNL     1       2.639   6.689  19.722  0.00  0.00    +0.000 A 
ATOM      9  C   UNL     1       1.595   6.296  20.572  0.00  0.00    +0.000 A 
ATOM     10  C   UNL     1       1.190   4.967  20.614  0.00  0.00    +0.000 A 
ATOM     11  C   UNL     1       1.823   4.025  19.802  0.00  0.00    +0.000 A 
ATOM     12  C   UNL     1       2.852   4.447  18.926  0.00  0.00    +0.000 A 
BRANCH  11  13
ATOM     13  C   UNL     1       1.440   2.567  19.869  0.00  0.00    +0.000 C 
ATOM     14  F   UNL     1       2.373   1.734  19.324  0.00  0.00    +0.000 F 
ATOM     15  F   UNL     1       1.256   2.127  21.145  0.00  0.00    +0.000 F 
ATOM     16  F   UNL     1       0.279   2.297  19.209  0.00  0.00    +0.000 F 
ENDBRANCH  11  13
ENDBRANCH   4   7
BRANCH   1  17
ATOM     17  C   UNL     1       7.362   4.915  15.899  0.00  0.00    +0.000 C 
BRANCH  17  23
ATOM     18  C   UNL     1       7.908   5.142  13.404  0.00  0.00    +0.000 A 
ATOM     19  C   UNL     1       7.839   4.651  12.097  0.00  0.00    +0.000 A 
ATOM     20  C   UNL     1       6.852   3.729  11.814  0.00  0.00    +0.000 A 
ATOM     21  C   UNL     1       5.824   3.477  12.731  0.00  0.00    +0.000 A 
ATOM     22  C   UNL     1       5.938   3.900  14.043  0.00  0.00    +0.000 A 
ATOM     23  C   UNL     1       7.061   4.663  14.424  0.00  0.00    +0.000 A 
ATOM     24  C   UNL     1       4.807   2.578  12.093  0.00  0.00    +0.000 C 
ATOM     25  C   UNL     1       5.775   1.740  11.260  0.00  0.00    +0.000 C 
ATOM     26  C   UNL     1       6.746   2.779  10.655  0.00  0.00    +0.000 C 
BRANCH  18  27
ATOM     27  O   UNL     1       8.837   6.098  13.706  0.00  0.00    +0.000 OA
ATOM     28  H   UNL     1       9.258   5.827  14.542  0.00  0.00    +0.000 HD
ENDBRANCH  18  27
ENDBRANCH  17  23
ENDBRANCH   1  17
TORSDOF 5
ENDMDL
MODEL 6
REMARK VINA RESULT:      -7.7      2.863      3.480
REMARK  Name = 
REMARK  5 active torsions:
REMARK  status: ('A' for Active; 'I' for Inactive)
REMARK    1  A    between atoms: O_1  and  C_2
REMARK    2  A    between atoms: C_7  and  C_8
REMARK    3  A    between atoms: C_8  and  N_9
REMARK    4  A    between atoms: N_12  and  C_13
REMARK    5  A    between atoms: C_17  and  C_18
REMARK                            x       y       z     vdW  Elec       q    Type
REMARK                         _______ _______ _______ _____ _____    ______ ____
ROOT
ATOM      1  N   UNL     1       6.211   4.941  18.981  0.00  0.00    +0.000 NA
ATOM      2  C   UNL     1       5.705   3.777  18.224  0.00  0.00    +0.000 C 
ATOM      3  C   UNL     1       5.556   3.965  16.695  0.00  0.00    +0.000 C 
ATOM      4  N   UNL     1       6.810   4.441  16.069  0.00  0.00    +0.000 N 
ATOM      5  C   UNL     1       7.447   5.578  16.770  0.00  0.00    +0.000 C 
ATOM      6  C   UNL     1       7.432   5.434  18.320  0.00  0.00    +0.000 C 
ENDROOT
BRANCH   4   7
ATOM      7  C   UNL     1       6.893   4.442  14.665  0.00  0.00    +0.000 A 
ATOM      8  C   UNL     1       7.859   5.177  13.952  0.00  0.00    +0.000 A 
ATOM      9  C   UNL     1       7.865   5.247  12.551  0.00  0.00    +0.000 A 
ATOM     10  C   UNL     1       6.886   4.589  11.813  0.00  0.00    +0.000 A 
ATOM     11  C   UNL     1       5.900   3.854  12.473  0.00  0.00    +0.000 A 
ATOM     12  C   UNL     1       5.931   3.767  13.885  0.00  0.00    +0.000 A 
BRANCH  11  13
ATOM     13  C   UNL     1       4.796   3.178  11.698  0.00  0.00    +0.000 C 
ATOM     14  F   UNL     1       4.395   3.881  10.599  0.00  0.00    +0.000 F 
ATOM     15  F   UNL     1       5.150   1.946  11.239  0.00  0.00    +0.000 F 
ATOM     16  F   UNL     1       3.670   2.991  12.442  0.00  0.00    +0.000 F 
ENDBRANCH  11  13
ENDBRANCH   4   7
BRANCH   1  17
ATOM     17  C   UNL     1       5.198   5.991  19.227  0.00  0.00    +0.000 C 
BRANCH  17  23
ATOM     18  C   UNL     1       2.886   5.734  18.148  0.00  0.00    +0.000 A 
ATOM     19  C   UNL     1       1.721   4.990  17.936  0.00  0.00    +0.000 A 
ATOM     20  C   UNL     1       1.424   3.998  18.848  0.00  0.00    +0.000 A 
ATOM     21  C   UNL     1       2.129   3.899  20.053  0.00  0.00    +0.000 A 
ATOM     22  C   UNL     1       3.322   4.579  20.223  0.00  0.00    +0.000 A 
ATOM     23  C   UNL     1       3.774   5.440  19.202  0.00  0.00    +0.000 A 
ATOM     24  C   UNL     1       1.482   2.858  20.916  0.00  0.00    +0.000 C 
ATOM     25  C   UNL     1       1.064   1.903  19.800  0.00  0.00    +0.000 C 
ATOM     26  C   UNL     1       0.486   2.833  18.709  0.00  0.00    +0.000 C 
BRANCH  18  27
ATOM     27  O   UNL     1       3.181   6.762  17.296  0.00  0.00    +0.000 OA
ATOM     28  H   UNL     1       2.337   7.197  17.077  0.00  0.00    +0.000 HD
ENDBRANCH  18  27
ENDBRANCH  17  23
ENDBRANCH   1  17
TORSDOF 5
ENDMDL
MODEL 7
REMARK VINA RESULT:      -7.7      1.445      2.222
REMARK  Name = 
REMARK  5 active torsions:
REMARK  status: ('A' for Active; 'I' for Inactive)
REMARK    1  A    between atoms: O_1  and  C_2
REMARK    2  A    between atoms: C_7  and  C_8
REMARK    3  A    between atoms: C_8  and  N_9
REMARK    4  A    between atoms: N_12  and  C_13
REMARK    5  A    between atoms: C_17  and  C_18
REMARK                            x       y       z     vdW  Elec       q    Type
REMARK                         _______ _______ _______ _____ _____    ______ ____
ROOT
ATOM      1  N   UNL     1       5.161   5.783  18.528  0.00  0.00    +0.000 NA
ATOM      2  C   UNL     1       6.208   4.776  18.258  0.00  0.00    +0.000 C 
ATOM      3  C   UNL     1       6.237   4.184  16.828  0.00  0.00    +0.000 C 
ATOM      4  N   UNL     1       6.300   5.237  15.791  0.00  0.00    +0.000 N 
ATOM      5  C   UNL     1       5.329   6.339  15.982  0.00  0.00    +0.000 C 
ATOM      6  C   UNL     1       5.204   6.800  17.463  0.00  0.00    +0.000 C 
ENDROOT
BRANCH   4   7
ATOM      7  C   UNL     1       6.557   4.849  14.464  0.00  0.00    +0.000 A 
ATOM      8  C   UNL     1       7.708   5.244  13.756  0.00  0.00    +0.000 A 
ATOM      9  C   UNL     1       7.900   4.932  12.402  0.00  0.00    +0.000 A 
ATOM     10  C   UNL     1       6.930   4.220  11.704  0.00  0.00    +0.000 A 
ATOM     11  C   UNL     1       5.766   3.814  12.358  0.00  0.00    +0.000 A 
ATOM     12  C   UNL     1       5.606   4.108  13.732  0.00  0.00    +0.000 A 
BRANCH  11  13
ATOM     13  C   UNL     1       4.675   3.089  11.608  0.00  0.00    +0.000 C 
ATOM     14  F   UNL     1       4.323   3.698  10.438  0.00  0.00    +0.000 F 
ATOM     15  F   UNL     1       5.020   1.816  11.271  0.00  0.00    +0.000 F 
ATOM     16  F   UNL     1       3.522   2.987  12.326  0.00  0.00    +0.000 F 
ENDBRANCH  11  13
ENDBRANCH   4   7
BRANCH   1  17
ATOM     17  C   UNL     1       3.816   5.211  18.758  0.00  0.00    +0.000 C 
BRANCH  17  23
ATOM     18  C   UNL     1       2.206   6.379  20.376  0.00  0.00    +0.000 A 
ATOM     19  C   UNL     1       1.526   7.528  20.794  0.00  0.00    +0.000 A 
ATOM     20  C   UNL     1       1.365   8.544  19.875  0.00  0.00    +0.000 A 
ATOM     21  C   UNL     1       1.661   8.337  18.522  0.00  0.00    +0.000 A 
ATOM     22  C   UNL     1       2.401   7.237  18.127  0.00  0.00    +0.000 A 
ATOM     23  C   UNL     1       2.781   6.283  19.093  0.00  0.00    +0.000 A 
ATOM     24  C   UNL     1       1.225   9.538  17.736  0.00  0.00    +0.000 C 
ATOM     25  C   UNL     1       1.550  10.596  18.789  0.00  0.00    +0.000 C 
ATOM     26  C   UNL     1       1.020   9.987  20.107  0.00  0.00    +0.000 C 
BRANCH  18  27
ATOM     27  O   UNL     1       2.334   5.331  21.243  0.00  0.00    +0.000 OA
ATOM     28  H   UNL     1       1.854   4.580  20.849  0.00  0.00    +0.000 HD
ENDBRANCH  18  27
ENDBRANCH  17  23
ENDBRANCH   1  17
TORSDOF 5
ENDMDL
MODEL 8
REMARK VINA RESULT:      -7.7      4.698      9.273
REMARK  Name = 
REMARK  5 active torsions:
REMARK  status: ('A' for Active; 'I' for Inactive)
REMARK    1  A    between atoms: O_1  and  C_2
REMARK    2  A    between atoms: C_7  and  C_8
REMARK    3  A    between atoms: C_8  and  N_9
REMARK    4  A    between atoms: N_12  and  C_13
REMARK    5  A    between atoms: C_17  and  C_18
REMARK                            x       y       z     vdW  Elec       q    Type
REMARK                         _______ _______ _______ _____ _____    ______ ____
ROOT
ATOM      1  N   UNL     1       2.504   7.603  19.153  0.00  0.00    +0.000 NA
ATOM      2  C   UNL     1       2.410   8.682  18.148  0.00  0.00    +0.000 C 
ATOM      3  C   UNL     1       1.022   9.349  17.986  0.00  0.00    +0.000 C 
ATOM      4  N   UNL     1       0.487   9.841  19.275  0.00  0.00    +0.000 N 
ATOM      5  C   UNL     1       0.576   8.863  20.383  0.00  0.00    +0.000 C 
ATOM      6  C   UNL     1       1.926   8.091  20.418  0.00  0.00    +0.000 C 
ENDROOT
BRANCH   4   7
ATOM      7  C   UNL     1      -0.654  10.662  19.251  0.00  0.00    +0.000 A 
ATOM      8  C   UNL     1      -0.915  11.644  20.224  0.00  0.00    +0.000 A 
ATOM      9  C   UNL     1      -2.106  12.386  20.242  0.00  0.00    +0.000 A 
ATOM     10  C   UNL     1      -3.088  12.155  19.285  0.00  0.00    +0.000 A 
ATOM     11  C   UNL     1      -2.881  11.185  18.303  0.00  0.00    +0.000 A 
ATOM     12  C   UNL     1      -1.659  10.472  18.281  0.00  0.00    +0.000 A 
BRANCH  11  13
ATOM     13  C   UNL     1      -3.954  10.877  17.287  0.00  0.00    +0.000 C 
ATOM     14  F   UNL     1      -4.306  11.954  16.525  0.00  0.00    +0.000 F 
ATOM     15  F   UNL     1      -3.585   9.907  16.405  0.00  0.00    +0.000 F 
ATOM     16  F   UNL     1      -5.111  10.442  17.859  0.00  0.00    +0.000 F 
ENDBRANCH  11  13
ENDBRANCH   4   7
BRANCH   1  17
ATOM     17  C   UNL     1       1.955   6.306  18.703  0.00  0.00    +0.000 C 
BRANCH  17  23
ATOM     18  C   UNL     1       2.712   4.171  17.502  0.00  0.00    +0.000 A 
ATOM     19  C   UNL     1       3.642   3.487  16.712  0.00  0.00    +0.000 A 
ATOM     20  C   UNL     1       4.924   3.993  16.655  0.00  0.00    +0.000 A 
ATOM     21  C   UNL     1       5.332   5.007  17.531  0.00  0.00    +0.000 A 
ATOM     22  C   UNL     1       4.397   5.730  18.249  0.00  0.00    +0.000 A 
ATOM     23  C   UNL     1       3.035   5.378  18.153  0.00  0.00    +0.000 A 
ATOM     24  C   UNL     1       6.806   5.232  17.367  0.00  0.00    +0.000 C 
ATOM     25  C   UNL     1       6.883   4.974  15.864  0.00  0.00    +0.000 C 
ATOM     26  C   UNL     1       6.010   3.716  15.655  0.00  0.00    +0.000 C 
BRANCH  18  27
ATOM     27  O   UNL     1       1.448   3.666  17.626  0.00  0.00    +0.000 OA
ATOM     28  H   UNL     1       1.396   2.890  17.038  0.00  0.00    +0.000 HD
ENDBRANCH  18  27
ENDBRANCH  17  23
ENDBRANCH   1  17
TORSDOF 5
ENDMDL
MODEL 9
REMARK VINA RESULT:      -7.6      1.207      1.953
REMARK  Name = 
REMARK  5 active torsions:
REMARK  status: ('A' for Active; 'I' for Inactive)
REMARK    1  A    between atoms: O_1  and  C_2
REMARK    2  A    between atoms: C_7  and  C_8
REMARK    3  A    between atoms: C_8  and  N_9
REMARK    4  A    between atoms: N_12  and  C_13
REMARK    5  A    between atoms: C_17  and  C_18
REMARK                            x       y       z     vdW  Elec       q    Type
REMARK                         _______ _______ _______ _____ _____    ______ ____
ROOT
ATOM      1  N   UNL     1       4.154   5.981  18.346  0.00  0.00    +0.000 NA
ATOM      2  C   UNL     1       4.842   4.682  18.194  0.00  0.00    +0.000 C 
ATOM      3  C   UNL     1       5.049   4.181  16.744  0.00  0.00    +0.000 C 
ATOM      4  N   UNL     1       5.727   5.189  15.899  0.00  0.00    +0.000 N 
ATOM      5  C   UNL     1       5.160   6.553  16.004  0.00  0.00    +0.000 C 
ATOM      6  C   UNL     1       4.809   6.963  17.464  0.00  0.00    +0.000 C 
ENDROOT
BRANCH   4   7
ATOM      7  C   UNL     1       6.182   4.794  14.628  0.00  0.00    +0.000 A 
ATOM      8  C   UNL     1       7.431   5.175  14.105  0.00  0.00    +0.000 A 
ATOM      9  C   UNL     1       7.826   4.856  12.797  0.00  0.00    +0.000 A 
ATOM     10  C   UNL     1       6.969   4.151  11.960  0.00  0.00    +0.000 A 
ATOM     11  C   UNL     1       5.714   3.757  12.428  0.00  0.00    +0.000 A 
ATOM     12  C   UNL     1       5.347   4.059  13.761  0.00  0.00    +0.000 A 
BRANCH  11  13
ATOM     13  C   UNL     1       4.744   3.040  11.521  0.00  0.00    +0.000 C 
ATOM     14  F   UNL     1       5.182   1.811  11.120  0.00  0.00    +0.000 F 
ATOM     15  F   UNL     1       3.533   2.826  12.106  0.00  0.00    +0.000 F 
ATOM     16  F   UNL     1       4.489   3.729  10.374  0.00  0.00    +0.000 F 
ENDBRANCH  11  13
ENDBRANCH   4   7
BRANCH   1  17
ATOM     17  C   UNL     1       2.686   5.912  18.179  0.00  0.00    +0.000 C 
BRANCH  17  23
ATOM     18  C   UNL     1       1.844   7.074  20.304  0.00  0.00    +0.000 A 
ATOM     19  C   UNL     1       1.495   8.240  20.994  0.00  0.00    +0.000 A 
ATOM     20  C   UNL     1       1.194   9.358  20.243  0.00  0.00    +0.000 A 
ATOM     21  C   UNL     1       1.017   9.263  18.858  0.00  0.00    +0.000 A 
ATOM     22  C   UNL     1       1.437   8.136  18.174  0.00  0.00    +0.000 A 
ATOM     23  C   UNL     1       1.966   7.049  18.901  0.00  0.00    +0.000 A 
ATOM     24  C   UNL     1       0.526  10.580  18.334  0.00  0.00    +0.000 C 
ATOM     25  C   UNL     1       1.309  11.480  19.289  0.00  0.00    +0.000 C 
ATOM     26  C   UNL     1       1.142  10.798  20.666  0.00  0.00    +0.000 C 
BRANCH  18  27
ATOM     27  O   UNL     1       2.093   5.933  21.014  0.00  0.00    +0.000 OA
ATOM     28  H   UNL     1       1.227   5.548  21.241  0.00  0.00    +0.000 HD
ENDBRANCH  18  27
ENDBRANCH  17  23
ENDBRANCH   1  17
TORSDOF 5
ENDMDL
