MODEL 1
REMARK VINA RESULT:      -7.2      0.000      0.000
REMARK  Name = 
REMARK  3 active torsions:
REMARK  status: ('A' for Active; 'I' for Inactive)
REMARK    1  A    between atoms: C_1  and  C_2
REMARK    2  A    between atoms: C_15  and  C_16
REMARK    3  A    between atoms: C_19  and  O_20
REMARK                            x       y       z     vdW  Elec       q    Type
REMARK                         _______ _______ _______ _____ _____    ______ ____
ROOT
ATOM      1  C   UNL     1       4.078   3.291  20.391  0.00  0.00    +0.000 C 
ATOM      2  C   UNL     1       2.727   3.052  19.685  0.00  0.00    +0.000 C 
ATOM      3  C   UNL     1       2.941   1.968  18.577  0.00  0.00    +0.000 C 
ATOM      4  C   UNL     1       3.778   2.547  17.401  0.00  0.00    +0.000 C 
ATOM      5  C   UNL     1       3.721   4.103  17.275  0.00  0.00    +0.000 C 
ATOM      6  C   UNL     1       2.713   4.735  18.339  0.00  0.00    +0.000 C 
ATOM      7  C   UNL     1       2.440   6.163  17.903  0.00  0.00    +0.000 C 
ATOM      8  C   UNL     1       3.736   6.941  18.261  0.00  0.00    +0.000 C 
ATOM      9  C   UNL     1       5.028   6.335  17.690  0.00  0.00    +0.000 C 
ATOM     10  C   UNL     1       6.052   7.240  17.457  0.00  0.00    +0.000 C 
ATOM     11  C   UNL     1       7.238   6.914  16.654  0.00  0.00    +0.000 C 
ATOM     12  O   UNL     1       8.192   7.689  16.609  0.00  0.00    +0.000 OA
ATOM     13  C   UNL     1       7.188   5.608  15.859  0.00  0.00    +0.000 C 
ATOM     14  C   UNL     1       5.767   4.968  15.819  0.00  0.00    +0.000 C 
ATOM     15  C   UNL     1       5.154   4.855  17.260  0.00  0.00    +0.000 C 
ATOM     16  C   UNL     1       6.264   4.002  18.003  0.00  0.00    +0.000 C 
ATOM     17  C   UNL     1       1.552   3.763  18.863  0.00  0.00    +0.000 C 
ATOM     18  C   UNL     1       0.629   2.631  19.877  0.00  0.00    +0.000 C 
ATOM     19  C   UNL     1       0.859   2.929  21.350  0.00  0.00    +0.000 C 
ATOM     20  C   UNL     1       1.921   3.759  20.869  0.00  0.00    +0.000 C 
ATOM     21  O   UNL     1       2.055   4.944  21.246  0.00  0.00    +0.000 OA
ENDROOT
BRANCH  19  22
ATOM     22  O   UNL     1       1.504   1.934  22.143  0.00  0.00    +0.000 OA
ATOM     23  H   UNL     1       1.402   1.055  21.727  0.00  0.00    +0.000 HD
ENDBRANCH  19  22
TORSDOF 1
ENDMDL
MODEL 2
REMARK VINA RESULT:      -7.1      1.136      1.325
REMARK  Name = 
REMARK  3 active torsions:
REMARK  status: ('A' for Active; 'I' for Inactive)
REMARK    1  A    between atoms: C_1  and  C_2
REMARK    2  A    between atoms: C_15  and  C_16
REMARK    3  A    between atoms: C_19  and  O_20
REMARK                            x       y       z     vdW  Elec       q    Type
REMARK                         _______ _______ _______ _____ _____    ______ ____
ROOT
ATOM      1  C   UNL     1       4.072   2.744  19.732  0.00  0.00    +0.000 C 
ATOM      2  C   UNL     1       2.570   2.998  19.494  0.00  0.00    +0.000 C 
ATOM      3  C   UNL     1       2.066   1.972  18.425  0.00  0.00    +0.000 C 
ATOM      4  C   UNL     1       2.640   2.319  17.021  0.00  0.00    +0.000 C 
ATOM      5  C   UNL     1       3.057   3.814  16.848  0.00  0.00    +0.000 C 
ATOM      6  C   UNL     1       2.691   4.674  18.142  0.00  0.00    +0.000 C 
ATOM      7  C   UNL     1       2.777   6.136  17.748  0.00  0.00    +0.000 C 
ATOM      8  C   UNL     1       4.300   6.430  17.649  0.00  0.00    +0.000 C 
ATOM      9  C   UNL     1       5.080   5.474  16.733  0.00  0.00    +0.000 C 
ATOM     10  C   UNL     1       6.219   6.010  16.152  0.00  0.00    +0.000 C 
ATOM     11  C   UNL     1       6.925   5.368  15.036  0.00  0.00    +0.000 C 
ATOM     12  O   UNL     1       8.016   5.793  14.661  0.00  0.00    +0.000 OA
ATOM     13  C   UNL     1       6.209   4.198  14.357  0.00  0.00    +0.000 C 
ATOM     14  C   UNL     1       4.719   4.056  14.790  0.00  0.00    +0.000 C 
ATOM     15  C   UNL     1       4.579   4.061  16.354  0.00  0.00    +0.000 C 
ATOM     16  C   UNL     1       5.521   2.852  16.753  0.00  0.00    +0.000 C 
ATOM     17  C   UNL     1       1.498   4.099  19.045  0.00  0.00    +0.000 C 
ATOM     18  C   UNL     1       0.616   3.268  20.347  0.00  0.00    +0.000 C 
ATOM     19  C   UNL     1       1.374   3.386  21.660  0.00  0.00    +0.000 C 
ATOM     20  C   UNL     1       2.445   3.856  20.836  0.00  0.00    +0.000 C 
ATOM     21  O   UNL     1       3.067   4.908  21.097  0.00  0.00    +0.000 OA
ENDROOT
BRANCH  19  22
ATOM     22  O   UNL     1       1.870   2.190  22.258  0.00  0.00    +0.000 OA
ATOM     23  H   UNL     1       1.799   2.247  23.231  0.00  0.00    +0.000 HD
ENDBRANCH  19  22
TORSDOF 1
ENDMDL
MODEL 3
REMARK VINA RESULT:      -6.5      1.670      2.438
REMARK  Name = 
REMARK  3 active torsions:
REMARK  status: ('A' for Active; 'I' for Inactive)
REMARK    1  A    between atoms: C_1  and  C_2
REMARK    2  A    between atoms: C_15  and  C_16
REMARK    3  A    between atoms: C_19  and  O_20
REMARK                            x       y       z     vdW  Elec       q    Type
REMARK                         _______ _______ _______ _____ _____    ______ ____
ROOT
ATOM      1  C   UNL     1       2.617   4.783  19.609  0.00  0.00    +0.000 C 
ATOM      2  C   UNL     1       2.741   3.327  19.115  0.00  0.00    +0.000 C 
ATOM      3  C   UNL     1       3.749   2.580  20.051  0.00  0.00    +0.000 C 
ATOM      4  C   UNL     1       5.199   3.087  19.807  0.00  0.00    +0.000 C 
ATOM      5  C   UNL     1       5.430   3.725  18.400  0.00  0.00    +0.000 C 
ATOM      6  C   UNL     1       4.126   3.607  17.487  0.00  0.00    +0.000 C 
ATOM      7  C   UNL     1       4.550   3.896  16.060  0.00  0.00    +0.000 C 
ATOM      8  C   UNL     1       4.774   5.433  16.017  0.00  0.00    +0.000 C 
ATOM      9  C   UNL     1       5.732   5.973  17.090  0.00  0.00    +0.000 C 
ATOM     10  C   UNL     1       6.411   7.133  16.748  0.00  0.00    +0.000 C 
ATOM     11  C   UNL     1       7.567   7.634  17.501  0.00  0.00    +0.000 C 
ATOM     12  O   UNL     1       8.034   8.745  17.260  0.00  0.00    +0.000 OA
ATOM     13  C   UNL     1       8.168   6.686  18.542  0.00  0.00    +0.000 C 
ATOM     14  C   UNL     1       7.616   5.232  18.439  0.00  0.00    +0.000 C 
ATOM     15  C   UNL     1       6.046   5.221  18.405  0.00  0.00    +0.000 C 
ATOM     16  C   UNL     1       5.703   5.985  19.749  0.00  0.00    +0.000 C 
ATOM     17  C   UNL     1       3.122   2.414  17.857  0.00  0.00    +0.000 C 
ATOM     18  C   UNL     1       1.740   1.518  18.530  0.00  0.00    +0.000 C 
ATOM     19  C   UNL     1       0.493   2.388  18.530  0.00  0.00    +0.000 C 
ATOM     20  C   UNL     1       1.408   3.451  18.244  0.00  0.00    +0.000 C 
ATOM     21  O   UNL     1       1.214   4.254  17.305  0.00  0.00    +0.000 OA
ENDROOT
BRANCH  19  22
ATOM     22  O   UNL     1      -0.084   2.731  19.789  0.00  0.00    +0.000 OA
ATOM     23  H   UNL     1      -1.059   2.717  19.726  0.00  0.00    +0.000 HD
ENDBRANCH  19  22
TORSDOF 1
ENDMDL
MODEL 4
REMARK VINA RESULT:      -6.5      1.250      6.290
REMARK  Name = 
REMARK  3 active torsions:
REMARK  status: ('A' for Active; 'I' for Inactive)
REMARK    1  A    between atoms: C_1  and  C_2
REMARK    2  A    between atoms: C_15  and  C_16
REMARK    3  A    between atoms: C_19  and  O_20
REMARK                            x       y       z     vdW  Elec       q    Type
REMARK                         _______ _______ _______ _____ _____    ______ ____
ROOT
ATOM      1  C   UNL     1       5.623   6.039  18.876  0.00  0.00    +0.000 C 
ATOM      2  C   UNL     1       5.366   5.889  17.363  0.00  0.00    +0.000 C 
ATOM      3  C   UNL     1       4.148   6.795  16.983  0.00  0.00    +0.000 C 
ATOM      4  C   UNL     1       2.828   6.203  17.556  0.00  0.00    +0.000 C 
ATOM      5  C   UNL     1       2.879   4.667  17.835  0.00  0.00    +0.000 C 
ATOM      6  C   UNL     1       4.265   4.036  17.358  0.00  0.00    +0.000 C 
ATOM      7  C   UNL     1       4.081   2.530  17.316  0.00  0.00    +0.000 C 
ATOM      8  C   UNL     1       4.081   2.090  18.806  0.00  0.00    +0.000 C 
ATOM      9  C   UNL     1       3.071   2.833  19.695  0.00  0.00    +0.000 C 
ATOM     10  C   UNL     1       2.612   2.120  20.792  0.00  0.00    +0.000 C 
ATOM     11  C   UNL     1       1.446   2.532  21.582  0.00  0.00    +0.000 C 
ATOM     12  O   UNL     1       1.174   1.962  22.637  0.00  0.00    +0.000 OA
ATOM     13  C   UNL     1       0.585   3.653  20.996  0.00  0.00    +0.000 C 
ATOM     14  C   UNL     1       0.938   3.988  19.516  0.00  0.00    +0.000 C 
ATOM     15  C   UNL     1       2.481   4.217  19.338  0.00  0.00    +0.000 C 
ATOM     16  C   UNL     1       2.744   5.381  20.380  0.00  0.00    +0.000 C 
ATOM     17  C   UNL     1       5.035   4.836  16.203  0.00  0.00    +0.000 C 
ATOM     18  C   UNL     1       6.176   5.919  15.372  0.00  0.00    +0.000 C 
ATOM     19  C   UNL     1       7.520   5.921  16.083  0.00  0.00    +0.000 C 
ATOM     20  C   UNL     1       6.809   5.245  17.125  0.00  0.00    +0.000 C 
ATOM     21  O   UNL     1       7.236   4.188  17.639  0.00  0.00    +0.000 OA
ENDROOT
BRANCH  19  22
ATOM     22  O   UNL     1       7.964   7.140  16.675  0.00  0.00    +0.000 OA
ATOM     23  H   UNL     1       8.885   7.045  16.987  0.00  0.00    +0.000 HD
ENDBRANCH  19  22
TORSDOF 1
ENDMDL
MODEL 5
REMARK VINA RESULT:      -6.2      1.639      6.278
REMARK  Name = 
REMARK  3 active torsions:
REMARK  status: ('A' for Active; 'I' for Inactive)
REMARK    1  A    between atoms: C_1  and  C_2
REMARK    2  A    between atoms: C_15  and  C_16
REMARK    3  A    between atoms: C_19  and  O_20
REMARK                            x       y       z     vdW  Elec       q    Type
REMARK                         _______ _______ _______ _____ _____    ______ ____
ROOT
ATOM      1  C   UNL     1       6.238   4.906  17.721  0.00  0.00    +0.000 C 
ATOM      2  C   UNL     1       5.523   5.287  16.408  0.00  0.00    +0.000 C 
ATOM      3  C   UNL     1       4.835   6.677  16.615  0.00  0.00    +0.000 C 
ATOM      4  C   UNL     1       3.617   6.547  17.574  0.00  0.00    +0.000 C 
ATOM      5  C   UNL     1       3.005   5.112  17.646  0.00  0.00    +0.000 C 
ATOM      6  C   UNL     1       3.721   4.122  16.618  0.00  0.00    +0.000 C 
ATOM      7  C   UNL     1       2.838   2.896  16.487  0.00  0.00    +0.000 C 
ATOM      8  C   UNL     1       3.050   2.112  17.811  0.00  0.00    +0.000 C 
ATOM      9  C   UNL     1       2.817   2.933  19.089  0.00  0.00    +0.000 C 
ATOM     10  C   UNL     1       2.406   2.204  20.194  0.00  0.00    +0.000 C 
ATOM     11  C   UNL     1       1.857   2.828  21.404  0.00  0.00    +0.000 C 
ATOM     12  O   UNL     1       1.658   2.158  22.416  0.00  0.00    +0.000 OA
ATOM     13  C   UNL     1       1.510   4.316  21.309  0.00  0.00    +0.000 C 
ATOM     14  C   UNL     1       1.545   4.861  19.849  0.00  0.00    +0.000 C 
ATOM     15  C   UNL     1       2.886   4.478  19.130  0.00  0.00    +0.000 C 
ATOM     16  C   UNL     1       3.956   5.105  20.116  0.00  0.00    +0.000 C 
ATOM     17  C   UNL     1       4.416   4.816  15.352  0.00  0.00    +0.000 C 
ATOM     18  C   UNL     1       5.646   5.518  14.275  0.00  0.00    +0.000 C 
ATOM     19  C   UNL     1       6.966   4.778  14.424  0.00  0.00    +0.000 C 
ATOM     20  C   UNL     1       6.348   4.199  15.578  0.00  0.00    +0.000 C 
ATOM     21  O   UNL     1       6.345   2.965  15.777  0.00  0.00    +0.000 OA
ENDROOT
BRANCH  19  22
ATOM     22  O   UNL     1       8.086   5.500  14.933  0.00  0.00    +0.000 OA
ATOM     23  H   UNL     1       7.968   5.673  15.888  0.00  0.00    +0.000 HD
ENDBRANCH  19  22
TORSDOF 1
ENDMDL
MODEL 6
REMARK VINA RESULT:      -6.2      1.707      2.633
REMARK  Name = 
REMARK  3 active torsions:
REMARK  status: ('A' for Active; 'I' for Inactive)
REMARK    1  A    between atoms: C_1  and  C_2
REMARK    2  A    between atoms: C_15  and  C_16
REMARK    3  A    between atoms: C_19  and  O_20
REMARK                            x       y       z     vdW  Elec       q    Type
REMARK                         _______ _______ _______ _____ _____    ______ ____
ROOT
ATOM      1  C   UNL     1       3.142   2.536  18.402  0.00  0.00    +0.000 C 
ATOM      2  C   UNL     1       2.809   3.641  19.426  0.00  0.00    +0.000 C 
ATOM      3  C   UNL     1       1.790   4.627  18.763  0.00  0.00    +0.000 C 
ATOM      4  C   UNL     1       2.485   5.467  17.653  0.00  0.00    +0.000 C 
ATOM      5  C   UNL     1       4.034   5.595  17.818  0.00  0.00    +0.000 C 
ATOM      6  C   UNL     1       4.533   4.910  19.171  0.00  0.00    +0.000 C 
ATOM      7  C   UNL     1       5.945   5.402  19.428  0.00  0.00    +0.000 C 
ATOM      8  C   UNL     1       6.823   4.640  18.397  0.00  0.00    +0.000 C 
ATOM      9  C   UNL     1       6.358   4.767  16.938  0.00  0.00    +0.000 C 
ATOM     10  C   UNL     1       7.359   4.651  15.985  0.00  0.00    +0.000 C 
ATOM     11  C   UNL     1       7.172   5.030  14.579  0.00  0.00    +0.000 C 
ATOM     12  O   UNL     1       8.030   4.760  13.741  0.00  0.00    +0.000 OA
ATOM     13  C   UNL     1       5.896   5.807  14.244  0.00  0.00    +0.000 C 
ATOM     14  C   UNL     1       5.133   6.307  15.508  0.00  0.00    +0.000 C 
ATOM     15  C   UNL     1       4.912   5.141  16.537  0.00  0.00    +0.000 C 
ATOM     16  C   UNL     1       4.136   4.086  15.646  0.00  0.00    +0.000 C 
ATOM     17  C   UNL     1       3.441   4.795  20.338  0.00  0.00    +0.000 C 
ATOM     18  C   UNL     1       2.193   4.139  21.423  0.00  0.00    +0.000 C 
ATOM     19  C   UNL     1       2.456   2.669  21.708  0.00  0.00    +0.000 C 
ATOM     20  C   UNL     1       3.396   2.776  20.634  0.00  0.00    +0.000 C 
ATOM     21  O   UNL     1       4.573   2.370  20.743  0.00  0.00    +0.000 OA
ENDROOT
BRANCH  19  22
ATOM     22  O   UNL     1       1.495   1.717  21.258  0.00  0.00    +0.000 OA
ATOM     23  H   UNL     1       1.014   1.339  22.020  0.00  0.00    +0.000 HD
ENDBRANCH  19  22
TORSDOF 1
ENDMDL
MODEL 7
REMARK VINA RESULT:      -6.2      9.490     12.835
REMARK  Name = 
REMARK  3 active torsions:
REMARK  status: ('A' for Active; 'I' for Inactive)
REMARK    1  A    between atoms: C_1  and  C_2
REMARK    2  A    between atoms: C_15  and  C_16
REMARK    3  A    between atoms: C_19  and  O_20
REMARK                            x       y       z     vdW  Elec       q    Type
REMARK                         _______ _______ _______ _____ _____    ______ ____
ROOT
ATOM      1  C   UNL     1       9.251  13.930  18.158  0.00  0.00    +0.000 C 
ATOM      2  C   UNL     1      10.302  14.979  18.577  0.00  0.00    +0.000 C 
ATOM      3  C   UNL     1      11.546  14.220  19.149  0.00  0.00    +0.000 C 
ATOM      4  C   UNL     1      11.211  13.585  20.529  0.00  0.00    +0.000 C 
ATOM      5  C   UNL     1      10.029  14.273  21.285  0.00  0.00    +0.000 C 
ATOM      6  C   UNL     1       9.503  15.556  20.494  0.00  0.00    +0.000 C 
ATOM      7  C   UNL     1       8.643  16.354  21.456  0.00  0.00    +0.000 C 
ATOM      8  C   UNL     1       7.322  15.545  21.571  0.00  0.00    +0.000 C 
ATOM      9  C   UNL     1       7.505  14.067  21.952  0.00  0.00    +0.000 C 
ATOM     10  C   UNL     1       6.439  13.495  22.631  0.00  0.00    +0.000 C 
ATOM     11  C   UNL     1       6.534  12.207  23.328  0.00  0.00    +0.000 C 
ATOM     12  O   UNL     1       5.526  11.664  23.776  0.00  0.00    +0.000 OA
ATOM     13  C   UNL     1       7.940  11.626  23.501  0.00  0.00    +0.000 C 
ATOM     14  C   UNL     1       9.070  12.638  23.144  0.00  0.00    +0.000 C 
ATOM     15  C   UNL     1       8.825  13.291  21.738  0.00  0.00    +0.000 C 
ATOM     16  C   UNL     1       8.742  12.010  20.811  0.00  0.00    +0.000 C 
ATOM     17  C   UNL     1      10.560  16.252  19.512  0.00  0.00    +0.000 C 
ATOM     18  C   UNL     1      11.446  16.717  18.041  0.00  0.00    +0.000 C 
ATOM     19  C   UNL     1      10.500  16.784  16.852  0.00  0.00    +0.000 C 
ATOM     20  C   UNL     1       9.581  16.123  17.727  0.00  0.00    +0.000 C 
ATOM     21  O   UNL     1       8.412  16.534  17.890  0.00  0.00    +0.000 OA
ENDROOT
BRANCH  19  22
ATOM     22  O   UNL     1      10.707  15.868  15.778  0.00  0.00    +0.000 OA
ATOM     23  H   UNL     1      11.065  16.338  15.000  0.00  0.00    +0.000 HD
ENDBRANCH  19  22
TORSDOF 1
ENDMDL
MODEL 8
REMARK VINA RESULT:      -6.0     10.539     12.708
REMARK  Name = 
REMARK  3 active torsions:
REMARK  status: ('A' for Active; 'I' for Inactive)
REMARK    1  A    between atoms: C_1  and  C_2
REMARK    2  A    between atoms: C_15  and  C_16
REMARK    3  A    between atoms: C_19  and  O_20
REMARK                            x       y       z     vdW  Elec       q    Type
REMARK                         _______ _______ _______ _____ _____    ______ ____
ROOT
ATOM      1  C   UNL     1      10.283  12.710  19.872  0.00  0.00    +0.000 C 
ATOM      2  C   UNL     1      10.741  13.944  19.067  0.00  0.00    +0.000 C 
ATOM      3  C   UNL     1      11.652  14.817  19.993  0.00  0.00    +0.000 C 
ATOM      4  C   UNL     1      10.806  15.501  21.104  0.00  0.00    +0.000 C 
ATOM      5  C   UNL     1       9.293  15.667  20.752  0.00  0.00    +0.000 C 
ATOM      6  C   UNL     1       8.987  15.183  19.262  0.00  0.00    +0.000 C 
ATOM      7  C   UNL     1       7.619  15.720  18.888  0.00  0.00    +0.000 C 
ATOM      8  C   UNL     1       6.616  14.831  19.675  0.00  0.00    +0.000 C 
ATOM      9  C   UNL     1       6.879  14.748  21.187  0.00  0.00    +0.000 C 
ATOM     10  C   UNL     1       5.760  14.511  21.970  0.00  0.00    +0.000 C 
ATOM     11  C   UNL     1       5.752  14.688  23.427  0.00  0.00    +0.000 C 
ATOM     12  O   UNL     1       4.791  14.312  24.095  0.00  0.00    +0.000 OA
ATOM     13  C   UNL     1       6.964  15.397  24.036  0.00  0.00    +0.000 C 
ATOM     14  C   UNL     1       7.886  16.060  22.970  0.00  0.00    +0.000 C 
ATOM     15  C   UNL     1       8.254  15.048  21.827  0.00  0.00    +0.000 C 
ATOM     16  C   UNL     1       8.912  13.871  22.658  0.00  0.00    +0.000 C 
ATOM     17  C   UNL     1      10.228  15.220  18.248  0.00  0.00    +0.000 C 
ATOM     18  C   UNL     1      11.616  14.710  17.261  0.00  0.00    +0.000 C 
ATOM     19  C   UNL     1      11.407  13.297  16.740  0.00  0.00    +0.000 C 
ATOM     20  C   UNL     1      10.330  13.263  17.682  0.00  0.00    +0.000 C 
ATOM     21  O   UNL     1       9.182  12.887  17.359  0.00  0.00    +0.000 OA
ENDROOT
BRANCH  19  22
ATOM     22  O   UNL     1      12.307  12.281  17.178  0.00  0.00    +0.000 OA
ATOM     23  H   UNL     1      13.029  12.170  16.529  0.00  0.00    +0.000 HD
ENDBRANCH  19  22
TORSDOF 1
ENDMDL
MODEL 9
REMARK VINA RESULT:      -6.0      9.140     12.197
REMARK  Name = 
REMARK  3 active torsions:
REMARK  status: ('A' for Active; 'I' for Inactive)
REMARK    1  A    between atoms: C_1  and  C_2
REMARK    2  A    between atoms: C_15  and  C_16
REMARK    3  A    between atoms: C_19  and  O_20
REMARK                            x       y       z     vdW  Elec       q    Type
REMARK                         _______ _______ _______ _____ _____    ______ ____
ROOT
ATOM      1  C   UNL     1       9.528  12.418  18.344  0.00  0.00    +0.000 C 
ATOM      2  C   UNL     1      10.797  13.253  18.614  0.00  0.00    +0.000 C 
ATOM      3  C   UNL     1      11.817  12.352  19.387  0.00  0.00    +0.000 C 
ATOM      4  C   UNL     1      11.329  12.100  20.843  0.00  0.00    +0.000 C 
ATOM      5  C   UNL     1      10.341  13.180  21.387  0.00  0.00    +0.000 C 
ATOM      6  C   UNL     1      10.145  14.369  20.339  0.00  0.00    +0.000 C 
ATOM      7  C   UNL     1       9.495  15.520  21.083  0.00  0.00    +0.000 C 
ATOM      8  C   UNL     1       8.017  15.082  21.277  0.00  0.00    +0.000 C 
ATOM      9  C   UNL     1       7.836  13.708  21.941  0.00  0.00    +0.000 C 
ATOM     10  C   UNL     1       6.658  13.547  22.656  0.00  0.00    +0.000 C 
ATOM     11  C   UNL     1       6.436  12.437  23.590  0.00  0.00    +0.000 C 
ATOM     12  O   UNL     1       5.323  12.244  24.076  0.00  0.00    +0.000 OA
ATOM     13  C   UNL     1       7.659  11.588  23.947  0.00  0.00    +0.000 C 
ATOM     14  C   UNL     1       9.002  12.216  23.467  0.00  0.00    +0.000 C 
ATOM     15  C   UNL     1       8.933  12.618  21.951  0.00  0.00    +0.000 C 
ATOM     16  C   UNL     1       8.551  11.234  21.282  0.00  0.00    +0.000 C 
ATOM     17  C   UNL     1      11.347  14.590  19.302  0.00  0.00    +0.000 C 
ATOM     18  C   UNL     1      12.329  14.534  17.821  0.00  0.00    +0.000 C 
ATOM     19  C   UNL     1      11.438  14.584  16.590  0.00  0.00    +0.000 C 
ATOM     20  C   UNL     1      10.379  14.343  17.523  0.00  0.00    +0.000 C 
ATOM     21  O   UNL     1       9.342  15.040  17.540  0.00  0.00    +0.000 OA
ENDROOT
BRANCH  19  22
ATOM     22  O   UNL     1      11.427  13.451  15.724  0.00  0.00    +0.000 OA
ATOM     23  H   UNL     1      12.335  13.110  15.605  0.00  0.00    +0.000 HD
ENDBRANCH  19  22
TORSDOF 1
ENDMDL
