MODEL 1
REMARK VINA RESULT:      -8.9      0.000      0.000
REMARK  Name = 
REMARK  7 active torsions:
REMARK  status: ('A' for Active; 'I' for Inactive)
REMARK    1  A    between atoms: C_1  and  O_2
REMARK    2  A    between atoms: O_2  and  C_3
REMARK    3  A    between atoms: C_3  and  C_5
REMARK    4  A    between atoms: N_8  and  N_9
REMARK    5  A    between atoms: C_10  and  C_12
REMARK    6  A    between atoms: C_12  and  C_13
REMARK    7  A    between atoms: N_15  and  C_16
REMARK                            x       y       z     vdW  Elec       q    Type
REMARK                         _______ _______ _______ _____ _____    ______ ____
ROOT
ATOM      1  N   UNL     1       3.362   4.524  18.057  0.00  0.00    +0.000 N 
ATOM      2  C   UNL     1       3.655   3.702  19.135  0.00  0.00    +0.000 C 
ATOM      3  O   UNL     1       4.522   2.831  19.137  0.00  0.00    +0.000 OA
ATOM      4  H   UNL     1       2.632   5.224  18.140  0.00  0.00    +0.000 HD
ENDROOT
BRANCH   1   8
ATOM      5  C   UNL     1       7.062   6.298  16.980  0.00  0.00    +0.000 A 
ATOM      6  C   UNL     1       5.883   5.830  17.420  0.00  0.00    +0.000 A 
ATOM      7  C   UNL     1       5.109   4.882  16.580  0.00  0.00    +0.000 A 
ATOM      8  N   UNL     1       3.984   4.308  16.871  0.00  0.00    +0.000 NA
ATOM      9  C   UNL     1       5.709   4.598  15.249  0.00  0.00    +0.000 A 
ATOM     10  C   UNL     1       5.036   3.805  14.309  0.00  0.00    +0.000 A 
ATOM     11  C   UNL     1       5.600   3.579  13.051  0.00  0.00    +0.000 A 
ATOM     12  C   UNL     1       6.842   4.128  12.735  0.00  0.00    +0.000 A 
ATOM     13  C   UNL     1       7.520   4.906  13.674  0.00  0.00    +0.000 A 
ATOM     14  C   UNL     1       6.946   5.147  14.923  0.00  0.00    +0.000 A 
ATOM     15  O   UNL     1       7.651   5.952  15.779  0.00  0.00    +0.000 OA
BRANCH   5  16
ATOM     16  C   UNL     1       7.780   7.277  17.849  0.00  0.00    +0.000 C 
ATOM     17  O   UNL     1       8.345   6.992  18.894  0.00  0.00    +0.000 OA
BRANCH  16  19
ATOM     18  C   UNL     1       8.372   9.528  18.056  0.00  0.00    +0.000 C 
ATOM     19  O   UNL     1       7.698   8.519  17.306  0.00  0.00    +0.000 OA
ENDBRANCH  16  19
ENDBRANCH   5  16
ENDBRANCH   1   8
BRANCH   2  20
ATOM     20  C   UNL     1       2.859   3.975  20.393  0.00  0.00    +0.000 C 
BRANCH  20  21
ATOM     21  C   UNL     1       1.984   5.190  20.299  0.00  0.00    +0.000 C 
ATOM     22  O   UNL     1       0.771   5.063  20.119  0.00  0.00    +0.000 OA
ATOM     23  N   UNL     1       2.637   6.406  20.419  0.00  0.00    +0.000 N 
ATOM     24  H   UNL     1       3.583   6.434  20.053  0.00  0.00    +0.000 HD
BRANCH  23  25
ATOM     25  C   UNL     1       1.892   7.603  20.292  0.00  0.00    +0.000 A 
ATOM     26  C   UNL     1       1.073   8.026  21.343  0.00  0.00    +0.000 A 
ATOM     27  C   UNL     1       0.229   9.124  21.179  0.00  0.00    +0.000 A 
ATOM     28  C   UNL     1       0.203   9.801  19.959  0.00  0.00    +0.000 A 
ATOM     29  C   UNL     1       1.052   9.412  18.922  0.00  0.00    +0.000 A 
ATOM     30  C   UNL     1       1.918   8.330  19.098  0.00  0.00    +0.000 A 
ATOM     31 CL   UNL     1       2.923   7.844  17.777  0.00  0.00    +0.000 Cl
ENDBRANCH  23  25
ENDBRANCH  20  21
ENDBRANCH   2  20
TORSDOF 6
ENDMDL
MODEL 2
REMARK VINA RESULT:      -8.7      1.050      1.086
REMARK  Name = 
REMARK  7 active torsions:
REMARK  status: ('A' for Active; 'I' for Inactive)
REMARK    1  A    between atoms: C_1  and  O_2
REMARK    2  A    between atoms: O_2  and  C_3
REMARK    3  A    between atoms: C_3  and  C_5
REMARK    4  A    between atoms: N_8  and  N_9
REMARK    5  A    between atoms: C_10  and  C_12
REMARK    6  A    between atoms: C_12  and  C_13
REMARK    7  A    between atoms: N_15  and  C_16
REMARK                            x       y       z     vdW  Elec       q    Type
REMARK                         _______ _______ _______ _____ _____    ______ ____
ROOT
ATOM      1  N   UNL     1       4.203   3.060  17.638  0.00  0.00    +0.000 N 
ATOM      2  C   UNL     1       2.874   3.413  17.814  0.00  0.00    +0.000 C 
ATOM      3  O   UNL     1       2.115   3.761  16.912  0.00  0.00    +0.000 OA
ATOM      4  H   UNL     1       4.761   2.778  18.437  0.00  0.00    +0.000 HD
ENDROOT
BRANCH   1   8
ATOM      5  C   UNL     1       7.158   5.962  16.720  0.00  0.00    +0.000 A 
ATOM      6  C   UNL     1       6.196   5.117  17.123  0.00  0.00    +0.000 A 
ATOM      7  C   UNL     1       5.659   4.108  16.174  0.00  0.00    +0.000 A 
ATOM      8  N   UNL     1       4.768   3.198  16.412  0.00  0.00    +0.000 NA
ATOM      9  C   UNL     1       6.212   4.196  14.796  0.00  0.00    +0.000 A 
ATOM     10  C   UNL     1       5.720   3.378  13.769  0.00  0.00    +0.000 A 
ATOM     11  C   UNL     1       6.227   3.501  12.473  0.00  0.00    +0.000 A 
ATOM     12  C   UNL     1       7.234   4.425  12.203  0.00  0.00    +0.000 A 
ATOM     13  C   UNL     1       7.735   5.230  13.226  0.00  0.00    +0.000 A 
ATOM     14  C   UNL     1       7.214   5.121  14.516  0.00  0.00    +0.000 A 
ATOM     15  O   UNL     1       7.726   5.971  15.461  0.00  0.00    +0.000 OA
BRANCH   5  16
ATOM     16  C   UNL     1       7.635   6.979  17.704  0.00  0.00    +0.000 C 
ATOM     17  O   UNL     1       8.179   6.715  18.765  0.00  0.00    +0.000 OA
BRANCH  16  19
ATOM     18  C   UNL     1       8.166   9.252  17.824  0.00  0.00    +0.000 C 
ATOM     19  O   UNL     1       7.361   8.227  17.243  0.00  0.00    +0.000 OA
ENDBRANCH  16  19
ENDBRANCH   5  16
ENDBRANCH   1   8
BRANCH   2  20
ATOM     20  C   UNL     1       2.354   3.292  19.231  0.00  0.00    +0.000 C 
BRANCH  20  21
ATOM     21  C   UNL     1       1.805   4.574  19.781  0.00  0.00    +0.000 C 
ATOM     22  O   UNL     1       0.808   4.556  20.508  0.00  0.00    +0.000 OA
ATOM     23  N   UNL     1       2.483   5.723  19.407  0.00  0.00    +0.000 N 
ATOM     24  H   UNL     1       2.897   5.706  18.481  0.00  0.00    +0.000 HD
BRANCH  23  25
ATOM     25  C   UNL     1       2.000   6.980  19.843  0.00  0.00    +0.000 A 
ATOM     26  C   UNL     1       1.410   7.099  21.105  0.00  0.00    +0.000 A 
ATOM     27  C   UNL     1       0.806   8.296  21.489  0.00  0.00    +0.000 A 
ATOM     28  C   UNL     1       0.791   9.377  20.609  0.00  0.00    +0.000 A 
ATOM     29  C   UNL     1       1.419   9.280  19.366  0.00  0.00    +0.000 A 
ATOM     30  C   UNL     1       2.048   8.090  18.994  0.00  0.00    +0.000 A 
ATOM     31 CL   UNL     1       2.777   7.987  17.428  0.00  0.00    +0.000 Cl
ENDBRANCH  23  25
ENDBRANCH  20  21
ENDBRANCH   2  20
TORSDOF 6
ENDMDL
MODEL 3
REMARK VINA RESULT:      -8.3      3.741      6.157
REMARK  Name = 
REMARK  7 active torsions:
REMARK  status: ('A' for Active; 'I' for Inactive)
REMARK    1  A    between atoms: C_1  and  O_2
REMARK    2  A    between atoms: O_2  and  C_3
REMARK    3  A    between atoms: C_3  and  C_5
REMARK    4  A    between atoms: N_8  and  N_9
REMARK    5  A    between atoms: C_10  and  C_12
REMARK    6  A    between atoms: C_12  and  C_13
REMARK    7  A    between atoms: N_15  and  C_16
REMARK                            x       y       z     vdW  Elec       q    Type
REMARK                         _______ _______ _______ _____ _____    ______ ____
ROOT
ATOM      1  N   UNL     1       1.682   9.308  18.784  0.00  0.00    +0.000 N 
ATOM      2  C   UNL     1       1.039  10.297  19.514  0.00  0.00    +0.000 C 
ATOM      3  O   UNL     1       0.581  10.148  20.645  0.00  0.00    +0.000 OA
ATOM      4  H   UNL     1       2.036   9.516  17.857  0.00  0.00    +0.000 HD
ENDROOT
BRANCH   1   8
ATOM      5  C   UNL     1       4.443   6.369  17.468  0.00  0.00    +0.000 A 
ATOM      6  C   UNL     1       3.600   7.369  17.772  0.00  0.00    +0.000 A 
ATOM      7  C   UNL     1       2.585   7.177  18.838  0.00  0.00    +0.000 A 
ATOM      8  N   UNL     1       1.732   8.046  19.280  0.00  0.00    +0.000 NA
ATOM      9  C   UNL     1       2.557   5.813  19.430  0.00  0.00    +0.000 A 
ATOM     10  C   UNL     1       1.581   5.456  20.371  0.00  0.00    +0.000 A 
ATOM     11  C   UNL     1       1.548   4.159  20.889  0.00  0.00    +0.000 A 
ATOM     12  C   UNL     1       2.497   3.222  20.482  0.00  0.00    +0.000 A 
ATOM     13  C   UNL     1       3.477   3.579  19.556  0.00  0.00    +0.000 A 
ATOM     14  C   UNL     1       3.497   4.869  19.025  0.00  0.00    +0.000 A 
ATOM     15  O   UNL     1       4.464   5.136  18.092  0.00  0.00    +0.000 OA
BRANCH   5  16
ATOM     16  C   UNL     1       5.419   6.604  16.363  0.00  0.00    +0.000 C 
ATOM     17  O   UNL     1       5.319   6.135  15.239  0.00  0.00    +0.000 OA
BRANCH  16  19
ATOM     18  C   UNL     1       7.408   6.725  17.584  0.00  0.00    +0.000 C 
ATOM     19  O   UNL     1       6.426   7.402  16.801  0.00  0.00    +0.000 OA
ENDBRANCH  16  19
ENDBRANCH   5  16
ENDBRANCH   1   8
BRANCH   2  20
ATOM     20  C   UNL     1       0.972  11.654  18.847  0.00  0.00    +0.000 C 
BRANCH  20  21
ATOM     21  C   UNL     1      -0.420  12.080  18.489  0.00  0.00    +0.000 C 
ATOM     22  O   UNL     1      -0.626  13.216  18.055  0.00  0.00    +0.000 OA
ATOM     23  N   UNL     1      -1.406  11.126  18.690  0.00  0.00    +0.000 N 
ATOM     24  H   UNL     1      -1.255  10.496  19.470  0.00  0.00    +0.000 HD
BRANCH  23  25
ATOM     25  C   UNL     1      -2.755  11.463  18.423  0.00  0.00    +0.000 A 
ATOM     26  C   UNL     1      -3.522  12.093  19.408  0.00  0.00    +0.000 A 
ATOM     27  C   UNL     1      -4.886  12.303  19.210  0.00  0.00    +0.000 A 
ATOM     28  C   UNL     1      -5.486  11.881  18.024  0.00  0.00    +0.000 A 
ATOM     29  C   UNL     1      -4.717  11.293  17.018  0.00  0.00    +0.000 A 
ATOM     30  C   UNL     1      -3.346  11.109  17.206  0.00  0.00    +0.000 A 
ATOM     31 CL   UNL     1      -2.430  10.335  15.960  0.00  0.00    +0.000 Cl
ENDBRANCH  23  25
ENDBRANCH  20  21
ENDBRANCH   2  20
TORSDOF 6
ENDMDL
MODEL 4
REMARK VINA RESULT:      -8.3      3.141      5.105
REMARK  Name = 
REMARK  7 active torsions:
REMARK  status: ('A' for Active; 'I' for Inactive)
REMARK    1  A    between atoms: C_1  and  O_2
REMARK    2  A    between atoms: O_2  and  C_3
REMARK    3  A    between atoms: C_3  and  C_5
REMARK    4  A    between atoms: N_8  and  N_9
REMARK    5  A    between atoms: C_10  and  C_12
REMARK    6  A    between atoms: C_12  and  C_13
REMARK    7  A    between atoms: N_15  and  C_16
REMARK                            x       y       z     vdW  Elec       q    Type
REMARK                         _______ _______ _______ _____ _____    ______ ____
ROOT
ATOM      1  N   UNL     1       2.091   8.174  17.810  0.00  0.00    +0.000 N 
ATOM      2  C   UNL     1       1.718   9.005  18.855  0.00  0.00    +0.000 C 
ATOM      3  O   UNL     1       1.416   8.620  19.983  0.00  0.00    +0.000 OA
ATOM      4  H   UNL     1       2.331   8.573  16.909  0.00  0.00    +0.000 HD
ENDROOT
BRANCH   1   8
ATOM      5  C   UNL     1       5.385   5.568  17.213  0.00  0.00    +0.000 A 
ATOM      6  C   UNL     1       4.414   6.487  17.333  0.00  0.00    +0.000 A 
ATOM      7  C   UNL     1       3.058   6.070  17.772  0.00  0.00    +0.000 A 
ATOM      8  N   UNL     1       2.028   6.829  17.978  0.00  0.00    +0.000 NA
ATOM      9  C   UNL     1       2.891   4.605  17.965  0.00  0.00    +0.000 A 
ATOM     10  C   UNL     1       1.638   4.057  18.275  0.00  0.00    +0.000 A 
ATOM     11  C   UNL     1       1.494   2.675  18.417  0.00  0.00    +0.000 A 
ATOM     12  C   UNL     1       2.600   1.840  18.268  0.00  0.00    +0.000 A 
ATOM     13  C   UNL     1       3.850   2.384  17.974  0.00  0.00    +0.000 A 
ATOM     14  C   UNL     1       3.989   3.763  17.812  0.00  0.00    +0.000 A 
ATOM     15  O   UNL     1       5.238   4.222  17.485  0.00  0.00    +0.000 OA
BRANCH   5  16
ATOM     16  C   UNL     1       6.719   6.037  16.733  0.00  0.00    +0.000 C 
ATOM     17  O   UNL     1       7.139   7.177  16.859  0.00  0.00    +0.000 OA
BRANCH  16  19
ATOM     18  C   UNL     1       7.068   4.851  14.750  0.00  0.00    +0.000 C 
ATOM     19  O   UNL     1       7.378   5.012  16.133  0.00  0.00    +0.000 OA
ENDBRANCH  16  19
ENDBRANCH   5  16
ENDBRANCH   1   8
BRANCH   2  20
ATOM     20  C   UNL     1       1.753  10.487  18.550  0.00  0.00    +0.000 C 
BRANCH  20  21
ATOM     21  C   UNL     1       0.985  11.321  19.530  0.00  0.00    +0.000 C 
ATOM     22  O   UNL     1       1.506  12.321  20.031  0.00  0.00    +0.000 OA
ATOM     23  N   UNL     1      -0.299  10.881  19.812  0.00  0.00    +0.000 N 
ATOM     24  H   UNL     1      -0.432   9.876  19.789  0.00  0.00    +0.000 HD
BRANCH  23  25
ATOM     25  C   UNL     1      -1.075  11.584  20.765  0.00  0.00    +0.000 A 
ATOM     26  C   UNL     1      -1.867  12.662  20.357  0.00  0.00    +0.000 A 
ATOM     27  C   UNL     1      -2.524  13.448  21.304  0.00  0.00    +0.000 A 
ATOM     28  C   UNL     1      -2.388  13.157  22.660  0.00  0.00    +0.000 A 
ATOM     29  C   UNL     1      -1.636  12.055  23.071  0.00  0.00    +0.000 A 
ATOM     30  C   UNL     1      -1.002  11.251  22.121  0.00  0.00    +0.000 A 
ATOM     31 CL   UNL     1      -0.039   9.921  22.665  0.00  0.00    +0.000 Cl
ENDBRANCH  23  25
ENDBRANCH  20  21
ENDBRANCH   2  20
TORSDOF 6
ENDMDL
MODEL 5
REMARK VINA RESULT:      -8.3      3.589      6.031
REMARK  Name = 
REMARK  7 active torsions:
REMARK  status: ('A' for Active; 'I' for Inactive)
REMARK    1  A    between atoms: C_1  and  O_2
REMARK    2  A    between atoms: O_2  and  C_3
REMARK    3  A    between atoms: C_3  and  C_5
REMARK    4  A    between atoms: N_8  and  N_9
REMARK    5  A    between atoms: C_10  and  C_12
REMARK    6  A    between atoms: C_12  and  C_13
REMARK    7  A    between atoms: N_15  and  C_16
REMARK                            x       y       z     vdW  Elec       q    Type
REMARK                         _______ _______ _______ _____ _____    ______ ____
ROOT
ATOM      1  N   UNL     1       2.249   8.243  18.890  0.00  0.00    +0.000 N 
ATOM      2  C   UNL     1       1.863   9.499  18.446  0.00  0.00    +0.000 C 
ATOM      3  O   UNL     1       2.153   9.976  17.351  0.00  0.00    +0.000 OA
ATOM      4  H   UNL     1       1.961   7.922  19.808  0.00  0.00    +0.000 HD
ENDROOT
BRANCH   1   8
ATOM      5  C   UNL     1       2.071   4.015  18.600  0.00  0.00    +0.000 A 
ATOM      6  C   UNL     1       2.048   5.342  18.802  0.00  0.00    +0.000 A 
ATOM      7  C   UNL     1       3.012   6.212  18.082  0.00  0.00    +0.000 A 
ATOM      8  N   UNL     1       3.096   7.504  18.130  0.00  0.00    +0.000 NA
ATOM      9  C   UNL     1       3.993   5.483  17.234  0.00  0.00    +0.000 A 
ATOM     10  C   UNL     1       5.028   6.167  16.581  0.00  0.00    +0.000 A 
ATOM     11  C   UNL     1       5.961   5.461  15.818  0.00  0.00    +0.000 A 
ATOM     12  C   UNL     1       5.855   4.076  15.693  0.00  0.00    +0.000 A 
ATOM     13  C   UNL     1       4.819   3.396  16.331  0.00  0.00    +0.000 A 
ATOM     14  C   UNL     1       3.898   4.100  17.109  0.00  0.00    +0.000 A 
ATOM     15  O   UNL     1       2.931   3.361  17.737  0.00  0.00    +0.000 OA
BRANCH   5  16
ATOM     16  C   UNL     1       1.104   3.184  19.378  0.00  0.00    +0.000 C 
ATOM     17  O   UNL     1       0.357   2.351  18.889  0.00  0.00    +0.000 OA
BRANCH  16  19
ATOM     18  C   UNL     1       2.184   2.791  21.413  0.00  0.00    +0.000 C 
ATOM     19  O   UNL     1       1.180   3.505  20.695  0.00  0.00    +0.000 OA
ENDBRANCH  16  19
ENDBRANCH   5  16
ENDBRANCH   1   8
BRANCH   2  20
ATOM     20  C   UNL     1       0.975  10.277  19.394  0.00  0.00    +0.000 C 
BRANCH  20  21
ATOM     21  C   UNL     1      -0.476  10.249  19.018  0.00  0.00    +0.000 C 
ATOM     22  O   UNL     1      -1.247   9.476  19.593  0.00  0.00    +0.000 OA
ATOM     23  N   UNL     1      -0.849  11.122  18.008  0.00  0.00    +0.000 N 
ATOM     24  H   UNL     1      -0.145  11.297  17.299  0.00  0.00    +0.000 HD
BRANCH  23  25
ATOM     25  C   UNL     1      -2.191  11.124  17.559  0.00  0.00    +0.000 A 
ATOM     26  C   UNL     1      -2.506  10.581  16.310  0.00  0.00    +0.000 A 
ATOM     27  C   UNL     1      -3.798  10.702  15.797  0.00  0.00    +0.000 A 
ATOM     28  C   UNL     1      -4.776  11.369  16.534  0.00  0.00    +0.000 A 
ATOM     29  C   UNL     1      -4.479  11.873  17.801  0.00  0.00    +0.000 A 
ATOM     30  C   UNL     1      -3.193  11.726  18.326  0.00  0.00    +0.000 A 
ATOM     31 CL   UNL     1      -2.845  12.403  19.879  0.00  0.00    +0.000 Cl
ENDBRANCH  23  25
ENDBRANCH  20  21
ENDBRANCH   2  20
TORSDOF 6
ENDMDL
MODEL 6
REMARK VINA RESULT:      -8.3      3.636      6.078
REMARK  Name = 
REMARK  7 active torsions:
REMARK  status: ('A' for Active; 'I' for Inactive)
REMARK    1  A    between atoms: C_1  and  O_2
REMARK    2  A    between atoms: O_2  and  C_3
REMARK    3  A    between atoms: C_3  and  C_5
REMARK    4  A    between atoms: N_8  and  N_9
REMARK    5  A    between atoms: C_10  and  C_12
REMARK    6  A    between atoms: C_12  and  C_13
REMARK    7  A    between atoms: N_15  and  C_16
REMARK                            x       y       z     vdW  Elec       q    Type
REMARK                         _______ _______ _______ _____ _____    ______ ____
ROOT
ATOM      1  N   UNL     1       1.995   8.219  19.066  0.00  0.00    +0.000 N 
ATOM      2  C   UNL     1       1.458   9.406  18.592  0.00  0.00    +0.000 C 
ATOM      3  O   UNL     1       1.648   9.861  17.466  0.00  0.00    +0.000 OA
ATOM      4  H   UNL     1       1.783   7.911  20.009  0.00  0.00    +0.000 HD
ENDROOT
BRANCH   1   8
ATOM      5  C   UNL     1       2.028   3.994  18.680  0.00  0.00    +0.000 A 
ATOM      6  C   UNL     1       1.939   5.313  18.912  0.00  0.00    +0.000 A 
ATOM      7  C   UNL     1       2.863   6.246  18.219  0.00  0.00    +0.000 A 
ATOM      8  N   UNL     1       2.883   7.539  18.297  0.00  0.00    +0.000 NA
ATOM      9  C   UNL     1       3.885   5.586  17.364  0.00  0.00    +0.000 A 
ATOM     10  C   UNL     1       4.889   6.335  16.734  0.00  0.00    +0.000 A 
ATOM     11  C   UNL     1       5.862   5.693  15.963  0.00  0.00    +0.000 A 
ATOM     12  C   UNL     1       5.825   4.308  15.806  0.00  0.00    +0.000 A 
ATOM     13  C   UNL     1       4.819   3.563  16.421  0.00  0.00    +0.000 A 
ATOM     14  C   UNL     1       3.859   4.203  17.207  0.00  0.00    +0.000 A 
ATOM     15  O   UNL     1       2.925   3.404  17.811  0.00  0.00    +0.000 OA
BRANCH   5  16
ATOM     16  C   UNL     1       1.099   3.100  19.432  0.00  0.00    +0.000 C 
ATOM     17  O   UNL     1       0.321   2.315  18.912  0.00  0.00    +0.000 OA
BRANCH  16  19
ATOM     18  C   UNL     1       2.481   2.822  21.296  0.00  0.00    +0.000 C 
ATOM     19  O   UNL     1       1.246   3.302  20.767  0.00  0.00    +0.000 OA
ENDBRANCH  16  19
ENDBRANCH   5  16
ENDBRANCH   1   8
BRANCH   2  20
ATOM     20  C   UNL     1       0.534  10.127  19.549  0.00  0.00    +0.000 C 
BRANCH  20  21
ATOM     21  C   UNL     1      -0.562  10.891  18.867  0.00  0.00    +0.000 C 
ATOM     22  O   UNL     1      -0.355  12.038  18.465  0.00  0.00    +0.000 OA
ATOM     23  N   UNL     1      -1.769  10.221  18.745  0.00  0.00    +0.000 N 
ATOM     24  H   UNL     1      -1.993   9.580  19.498  0.00  0.00    +0.000 HD
BRANCH  23  25
ATOM     25  C   UNL     1      -2.870  10.889  18.157  0.00  0.00    +0.000 A 
ATOM     26  C   UNL     1      -3.682  11.715  18.941  0.00  0.00    +0.000 A 
ATOM     27  C   UNL     1      -4.847  12.265  18.408  0.00  0.00    +0.000 A 
ATOM     28  C   UNL     1      -5.203  11.987  17.089  0.00  0.00    +0.000 A 
ATOM     29  C   UNL     1      -4.374  11.201  16.288  0.00  0.00    +0.000 A 
ATOM     30  C   UNL     1      -3.193  10.674  16.813  0.00  0.00    +0.000 A 
ATOM     31 CL   UNL     1      -2.211   9.665  15.809  0.00  0.00    +0.000 Cl
ENDBRANCH  23  25
ENDBRANCH  20  21
ENDBRANCH   2  20
TORSDOF 6
ENDMDL
MODEL 7
REMARK VINA RESULT:      -8.2      3.774      6.179
REMARK  Name = 
REMARK  7 active torsions:
REMARK  status: ('A' for Active; 'I' for Inactive)
REMARK    1  A    between atoms: C_1  and  O_2
REMARK    2  A    between atoms: O_2  and  C_3
REMARK    3  A    between atoms: C_3  and  C_5
REMARK    4  A    between atoms: N_8  and  N_9
REMARK    5  A    between atoms: C_10  and  C_12
REMARK    6  A    between atoms: C_12  and  C_13
REMARK    7  A    between atoms: N_15  and  C_16
REMARK                            x       y       z     vdW  Elec       q    Type
REMARK                         _______ _______ _______ _____ _____    ______ ____
ROOT
ATOM      1  N   UNL     1       1.971   8.160  19.008  0.00  0.00    +0.000 N 
ATOM      2  C   UNL     1       1.518   9.390  18.554  0.00  0.00    +0.000 C 
ATOM      3  O   UNL     1       1.853   9.914  17.494  0.00  0.00    +0.000 OA
ATOM      4  H   UNL     1       1.639   7.797  19.895  0.00  0.00    +0.000 HD
ENDROOT
BRANCH   1   8
ATOM      5  C   UNL     1       2.030   3.958  18.428  0.00  0.00    +0.000 A 
ATOM      6  C   UNL     1       1.921   5.266  18.711  0.00  0.00    +0.000 A 
ATOM      7  C   UNL     1       2.918   6.222  18.167  0.00  0.00    +0.000 A 
ATOM      8  N   UNL     1       2.934   7.510  18.308  0.00  0.00    +0.000 NA
ATOM      9  C   UNL     1       4.023   5.594  17.396  0.00  0.00    +0.000 A 
ATOM     10  C   UNL     1       5.093   6.362  16.914  0.00  0.00    +0.000 A 
ATOM     11  C   UNL     1       6.140   5.748  16.222  0.00  0.00    +0.000 A 
ATOM     12  C   UNL     1       6.115   4.373  15.997  0.00  0.00    +0.000 A 
ATOM     13  C   UNL     1       5.046   3.609  16.464  0.00  0.00    +0.000 A 
ATOM     14  C   UNL     1       4.009   4.220  17.171  0.00  0.00    +0.000 A 
ATOM     15  O   UNL     1       3.013   3.401  17.633  0.00  0.00    +0.000 OA
BRANCH   5  16
ATOM     16  C   UNL     1       1.021   3.038  19.032  0.00  0.00    +0.000 C 
ATOM     17  O   UNL     1       0.427   2.164  18.421  0.00  0.00    +0.000 OA
BRANCH  16  19
ATOM     18  C   UNL     1       1.756   2.627  21.213  0.00  0.00    +0.000 C 
ATOM     19  O   UNL     1       0.864   3.329  20.349  0.00  0.00    +0.000 OA
ENDBRANCH  16  19
ENDBRANCH   5  16
ENDBRANCH   1   8
BRANCH   2  20
ATOM     20  C   UNL     1       0.496  10.071  19.440  0.00  0.00    +0.000 C 
BRANCH  20  21
ATOM     21  C   UNL     1       0.759  11.533  19.645  0.00  0.00    +0.000 C 
ATOM     22  O   UNL     1       1.069  11.953  20.763  0.00  0.00    +0.000 OA
ATOM     23  N   UNL     1       0.618  12.329  18.519  0.00  0.00    +0.000 N 
ATOM     24  H   UNL     1      -0.090  12.030  17.857  0.00  0.00    +0.000 HD
BRANCH  23  25
ATOM     25  C   UNL     1       0.800  13.728  18.638  0.00  0.00    +0.000 A 
ATOM     26  C   UNL     1      -0.307  14.558  18.842  0.00  0.00    +0.000 A 
ATOM     27  C   UNL     1      -0.159  15.945  18.820  0.00  0.00    +0.000 A 
ATOM     28  C   UNL     1       1.098  16.503  18.591  0.00  0.00    +0.000 A 
ATOM     29  C   UNL     1       2.214  15.680  18.433  0.00  0.00    +0.000 A 
ATOM     30  C   UNL     1       2.070  14.292  18.484  0.00  0.00    +0.000 A 
ATOM     31 CL   UNL     1       3.465  13.300  18.237  0.00  0.00    +0.000 Cl
ENDBRANCH  23  25
ENDBRANCH  20  21
ENDBRANCH   2  20
TORSDOF 6
ENDMDL
MODEL 8
REMARK VINA RESULT:      -8.2      3.273      5.202
REMARK  Name = 
REMARK  7 active torsions:
REMARK  status: ('A' for Active; 'I' for Inactive)
REMARK    1  A    between atoms: C_1  and  O_2
REMARK    2  A    between atoms: O_2  and  C_3
REMARK    3  A    between atoms: C_3  and  C_5
REMARK    4  A    between atoms: N_8  and  N_9
REMARK    5  A    between atoms: C_10  and  C_12
REMARK    6  A    between atoms: C_12  and  C_13
REMARK    7  A    between atoms: N_15  and  C_16
REMARK                            x       y       z     vdW  Elec       q    Type
REMARK                         _______ _______ _______ _____ _____    ______ ____
ROOT
ATOM      1  N   UNL     1       2.230   8.200  17.799  0.00  0.00    +0.000 N 
ATOM      2  C   UNL     1       1.704   9.058  18.752  0.00  0.00    +0.000 C 
ATOM      3  O   UNL     1       1.233   8.705  19.831  0.00  0.00    +0.000 OA
ATOM      4  H   UNL     1       2.605   8.575  16.934  0.00  0.00    +0.000 HD
ENDROOT
BRANCH   1   8
ATOM      5  C   UNL     1       5.452   5.508  17.191  0.00  0.00    +0.000 A 
ATOM      6  C   UNL     1       4.504   6.451  17.312  0.00  0.00    +0.000 A 
ATOM      7  C   UNL     1       3.147   6.074  17.781  0.00  0.00    +0.000 A 
ATOM      8  N   UNL     1       2.139   6.860  17.992  0.00  0.00    +0.000 NA
ATOM      9  C   UNL     1       2.950   4.616  18.004  0.00  0.00    +0.000 A 
ATOM     10  C   UNL     1       1.690   4.104  18.345  0.00  0.00    +0.000 A 
ATOM     11  C   UNL     1       1.517   2.728  18.515  0.00  0.00    +0.000 A 
ATOM     12  C   UNL     1       2.601   1.864  18.362  0.00  0.00    +0.000 A 
ATOM     13  C   UNL     1       3.857   2.374  18.036  0.00  0.00    +0.000 A 
ATOM     14  C   UNL     1       4.025   3.747  17.847  0.00  0.00    +0.000 A 
ATOM     15  O   UNL     1       5.278   4.170  17.491  0.00  0.00    +0.000 OA
BRANCH   5  16
ATOM     16  C   UNL     1       6.787   5.937  16.680  0.00  0.00    +0.000 C 
ATOM     17  O   UNL     1       7.293   7.028  16.893  0.00  0.00    +0.000 OA
BRANCH  16  19
ATOM     18  C   UNL     1       6.882   4.894  14.590  0.00  0.00    +0.000 C 
ATOM     19  O   UNL     1       7.339   4.940  15.941  0.00  0.00    +0.000 OA
ENDBRANCH  16  19
ENDBRANCH   5  16
ENDBRANCH   1   8
BRANCH   2  20
ATOM     20  C   UNL     1       1.789  10.532  18.415  0.00  0.00    +0.000 C 
BRANCH  20  21
ATOM     21  C   UNL     1       0.824  11.381  19.186  0.00  0.00    +0.000 C 
ATOM     22  O   UNL     1      -0.214  11.777  18.650  0.00  0.00    +0.000 OA
ATOM     23  N   UNL     1       1.194  11.672  20.490  0.00  0.00    +0.000 N 
ATOM     24  H   UNL     1       2.191  11.764  20.652  0.00  0.00    +0.000 HD
BRANCH  23  25
ATOM     25  C   UNL     1       0.363  12.509  21.271  0.00  0.00    +0.000 A 
ATOM     26  C   UNL     1       0.496  13.899  21.183  0.00  0.00    +0.000 A 
ATOM     27  C   UNL     1      -0.217  14.729  22.048  0.00  0.00    +0.000 A 
ATOM     28  C   UNL     1      -1.064  14.169  23.004  0.00  0.00    +0.000 A 
ATOM     29  C   UNL     1      -1.236  12.785  23.067  0.00  0.00    +0.000 A 
ATOM     30  C   UNL     1      -0.543  11.956  22.181  0.00  0.00    +0.000 A 
ATOM     31 CL   UNL     1      -0.743  10.244  22.316  0.00  0.00    +0.000 Cl
ENDBRANCH  23  25
ENDBRANCH  20  21
ENDBRANCH   2  20
TORSDOF 6
ENDMDL
MODEL 9
REMARK VINA RESULT:      -8.2      4.200      9.676
REMARK  Name = 
REMARK  7 active torsions:
REMARK  status: ('A' for Active; 'I' for Inactive)
REMARK    1  A    between atoms: C_1  and  O_2
REMARK    2  A    between atoms: O_2  and  C_3
REMARK    3  A    between atoms: C_3  and  C_5
REMARK    4  A    between atoms: N_8  and  N_9
REMARK    5  A    between atoms: C_10  and  C_12
REMARK    6  A    between atoms: C_12  and  C_13
REMARK    7  A    between atoms: N_15  and  C_16
REMARK                            x       y       z     vdW  Elec       q    Type
REMARK                         _______ _______ _______ _____ _____    ______ ____
ROOT
ATOM      1  N   UNL     1       1.213   9.862  18.510  0.00  0.00    +0.000 N 
ATOM      2  C   UNL     1       1.873   8.687  18.838  0.00  0.00    +0.000 C 
ATOM      3  O   UNL     1       1.816   8.133  19.934  0.00  0.00    +0.000 OA
ATOM      4  H   UNL     1       1.309  10.250  17.578  0.00  0.00    +0.000 HD
ENDROOT
BRANCH   1   8
ATOM      5  C   UNL     1      -2.711  11.390  17.995  0.00  0.00    +0.000 A 
ATOM      6  C   UNL     1      -1.463  10.895  18.022  0.00  0.00    +0.000 A 
ATOM      7  C   UNL     1      -0.661  10.991  19.268  0.00  0.00    +0.000 A 
ATOM      8  N   UNL     1       0.532  10.530  19.474  0.00  0.00    +0.000 NA
ATOM      9  C   UNL     1      -1.324  11.725  20.378  0.00  0.00    +0.000 A 
ATOM     10  C   UNL     1      -0.644  11.986  21.576  0.00  0.00    +0.000 A 
ATOM     11  C   UNL     1      -1.272  12.709  22.594  0.00  0.00    +0.000 A 
ATOM     12  C   UNL     1      -2.581  13.158  22.425  0.00  0.00    +0.000 A 
ATOM     13  C   UNL     1      -3.263  12.888  21.239  0.00  0.00    +0.000 A 
ATOM     14  C   UNL     1      -2.629  12.183  20.215  0.00  0.00    +0.000 A 
ATOM     15  O   UNL     1      -3.347  11.989  19.065  0.00  0.00    +0.000 OA
BRANCH   5  16
ATOM     16  C   UNL     1      -3.458  11.299  16.705  0.00  0.00    +0.000 C 
ATOM     17  O   UNL     1      -4.669  11.419  16.596  0.00  0.00    +0.000 OA
BRANCH  16  19
ATOM     18  C   UNL     1      -3.066  10.108  14.733  0.00  0.00    +0.000 C 
ATOM     19  O   UNL     1      -2.592  11.055  15.689  0.00  0.00    +0.000 OA
ENDBRANCH  16  19
ENDBRANCH   5  16
ENDBRANCH   1   8
BRANCH   2  20
ATOM     20  C   UNL     1       2.663   8.052  17.714  0.00  0.00    +0.000 C 
BRANCH  20  21
ATOM     21  C   UNL     1       3.109   6.651  18.010  0.00  0.00    +0.000 C 
ATOM     22  O   UNL     1       4.312   6.391  18.092  0.00  0.00    +0.000 OA
ATOM     23  N   UNL     1       2.092   5.721  18.165  0.00  0.00    +0.000 N 
ATOM     24  H   UNL     1       1.263   5.880  17.604  0.00  0.00    +0.000 HD
BRANCH  23  25
ATOM     25  C   UNL     1       2.428   4.366  18.398  0.00  0.00    +0.000 A 
ATOM     26  C   UNL     1       2.630   3.504  17.315  0.00  0.00    +0.000 A 
ATOM     27  C   UNL     1       2.822   2.139  17.529  0.00  0.00    +0.000 A 
ATOM     28  C   UNL     1       2.812   1.635  18.829  0.00  0.00    +0.000 A 
ATOM     29  C   UNL     1       2.657   2.496  19.917  0.00  0.00    +0.000 A 
ATOM     30  C   UNL     1       2.493   3.867  19.702  0.00  0.00    +0.000 A 
ATOM     31 CL   UNL     1       2.257   4.901  21.068  0.00  0.00    +0.000 Cl
ENDBRANCH  23  25
ENDBRANCH  20  21
ENDBRANCH   2  20
TORSDOF 6
ENDMDL
