MODEL 1
REMARK VINA RESULT:      -7.4      0.000      0.000
REMARK  Name = 
REMARK  10 active torsions:
REMARK  status: ('A' for Active; 'I' for Inactive)
REMARK    1  A    between atoms: C_1  and  O_2
REMARK    2  A    between atoms: O_2  and  C_3
REMARK    3  A    between atoms: C_8  and  N_9
REMARK    4  A    between atoms: N_12  and  C_13
REMARK    5  A    between atoms: C_13  and  C_14
REMARK    6  A    between atoms: C_14  and  O_15
REMARK    7  A    between atoms: C_14  and  C_16
REMARK    8  A    between atoms: C_16  and  O_17
REMARK    9  A    between atoms: O_17  and  C_18
REMARK   10  A    between atoms: C_23  and  C_24
REMARK                            x       y       z     vdW  Elec       q    Type
REMARK                         _______ _______ _______ _____ _____    ______ ____
ROOT
ATOM      1  N   UNL     1       4.178   4.658  18.660  0.00  0.00    +0.000 N 
ATOM      2  C   UNL     1       4.895   3.972  17.576  0.00  0.00    +0.000 C 
ATOM      3  C   UNL     1       4.857   4.814  16.274  0.00  0.00    +0.000 C 
ATOM      4  N   UNL     1       5.306   6.228  16.426  0.00  0.00    +0.000 NA
ATOM      5  C   UNL     1       4.473   6.823  17.500  0.00  0.00    +0.000 C 
ATOM      6  C   UNL     1       4.530   6.076  18.854  0.00  0.00    +0.000 C 
ENDROOT
BRANCH   1  12
ATOM      7  C   UNL     1       3.514   2.971  20.354  0.00  0.00    +0.000 A 
ATOM      8  C   UNL     1       2.486   2.371  21.102  0.00  0.00    +0.000 A 
ATOM      9  C   UNL     1       1.172   2.822  21.011  0.00  0.00    +0.000 A 
ATOM     10  C   UNL     1       0.875   3.878  20.169  0.00  0.00    +0.000 A 
ATOM     11  C   UNL     1       1.892   4.473  19.412  0.00  0.00    +0.000 A 
ATOM     12  C   UNL     1       3.234   4.039  19.465  0.00  0.00    +0.000 A 
BRANCH   7  14
ATOM     13  C   UNL     1       4.937   1.216  21.066  0.00  0.00    +0.000 C 
ATOM     14  O   UNL     1       4.792   2.454  20.374  0.00  0.00    +0.000 OA
ENDBRANCH   7  14
ENDBRANCH   1  12
BRANCH   4  15
ATOM     15  C   UNL     1       6.757   6.285  16.698  0.00  0.00    +0.000 C 
BRANCH  15  16
ATOM     16  C   UNL     1       7.189   7.020  17.992  0.00  0.00    +0.000 C 
BRANCH  16  17
ATOM     17  O   UNL     1       8.083   6.211  18.775  0.00  0.00    +0.000 OA
ATOM     18  H   UNL     1       8.822   6.764  19.063  0.00  0.00    +0.000 HD
ENDBRANCH  16  17
BRANCH  16  19
ATOM     19  C   UNL     1       7.910   8.327  17.618  0.00  0.00    +0.000 C 
BRANCH  19  20
ATOM     20  O   UNL     1       8.759   8.699  18.708  0.00  0.00    +0.000 OA
BRANCH  20  21
ATOM     21  C   UNL     1       8.908  10.040  18.910  0.00  0.00    +0.000 A 
ATOM     22  C   UNL     1       8.753  10.841  17.782  0.00  0.00    +0.000 A 
ATOM     23  C   UNL     1       8.932  12.222  17.874  0.00  0.00    +0.000 A 
ATOM     24  C   UNL     1       9.288  12.805  19.094  0.00  0.00    +0.000 A 
ATOM     25 CL   UNL     1       9.512  14.516  19.119  0.00  0.00    +0.000 Cl
ATOM     26  C   UNL     1       9.463  12.011  20.234  0.00  0.00    +0.000 A 
ATOM     27  C   UNL     1       9.874  12.539  21.580  0.00  0.00    +0.000 C 
ATOM     28  C   UNL     1       9.264  10.622  20.126  0.00  0.00    +0.000 A 
ENDBRANCH  20  21
ENDBRANCH  19  20
ENDBRANCH  16  19
ENDBRANCH  15  16
ENDBRANCH   4  15
TORSDOF 8
ENDMDL
MODEL 2
REMARK VINA RESULT:      -7.4      1.537      2.227
REMARK  Name = 
REMARK  10 active torsions:
REMARK  status: ('A' for Active; 'I' for Inactive)
REMARK    1  A    between atoms: C_1  and  O_2
REMARK    2  A    between atoms: O_2  and  C_3
REMARK    3  A    between atoms: C_8  and  N_9
REMARK    4  A    between atoms: N_12  and  C_13
REMARK    5  A    between atoms: C_13  and  C_14
REMARK    6  A    between atoms: C_14  and  O_15
REMARK    7  A    between atoms: C_14  and  C_16
REMARK    8  A    between atoms: C_16  and  O_17
REMARK    9  A    between atoms: O_17  and  C_18
REMARK   10  A    between atoms: C_23  and  C_24
REMARK                            x       y       z     vdW  Elec       q    Type
REMARK                         _______ _______ _______ _____ _____    ______ ____
ROOT
ATOM      1  N   UNL     1       4.638   5.040  17.958  0.00  0.00    +0.000 N 
ATOM      2  C   UNL     1       5.609   5.503  18.959  0.00  0.00    +0.000 C 
ATOM      3  C   UNL     1       7.061   5.279  18.460  0.00  0.00    +0.000 C 
ATOM      4  N   UNL     1       7.353   5.833  17.108  0.00  0.00    +0.000 NA
ATOM      5  C   UNL     1       6.350   5.249  16.184  0.00  0.00    +0.000 C 
ATOM      6  C   UNL     1       4.876   5.508  16.580  0.00  0.00    +0.000 C 
ENDROOT
BRANCH   1  12
ATOM      7  C   UNL     1       3.629   3.074  19.087  0.00  0.00    +0.000 A 
ATOM      8  C   UNL     1       2.492   2.275  19.304  0.00  0.00    +0.000 A 
ATOM      9  C   UNL     1       1.264   2.599  18.734  0.00  0.00    +0.000 A 
ATOM     10  C   UNL     1       1.163   3.727  17.940  0.00  0.00    +0.000 A 
ATOM     11  C   UNL     1       2.294   4.521  17.710  0.00  0.00    +0.000 A 
ATOM     12  C   UNL     1       3.559   4.222  18.259  0.00  0.00    +0.000 A 
BRANCH   7  14
ATOM     13  C   UNL     1       4.828   1.729  20.624  0.00  0.00    +0.000 C 
ATOM     14  O   UNL     1       4.861   2.691  19.573  0.00  0.00    +0.000 OA
ENDBRANCH   7  14
ENDBRANCH   1  12
BRANCH   4  15
ATOM     15  C   UNL     1       7.343   7.310  17.140  0.00  0.00    +0.000 C 
BRANCH  15  16
ATOM     16  C   UNL     1       7.832   7.976  18.451  0.00  0.00    +0.000 C 
BRANCH  16  17
ATOM     17  O   UNL     1       8.748   7.123  19.157  0.00  0.00    +0.000 OA
ATOM     18  H   UNL     1       9.082   6.457  18.541  0.00  0.00    +0.000 HD
ENDBRANCH  16  17
BRANCH  16  19
ATOM     19  C   UNL     1       8.551   9.295  18.115  0.00  0.00    +0.000 C 
BRANCH  19  20
ATOM     20  O   UNL     1       9.249   9.736  19.283  0.00  0.00    +0.000 OA
BRANCH  20  21
ATOM     21  C   UNL     1       9.892  10.934  19.170  0.00  0.00    +0.000 A 
ATOM     22  C   UNL     1      10.023  11.662  20.350  0.00  0.00    +0.000 A 
ATOM     23  C   UNL     1      10.623  12.921  20.333  0.00  0.00    +0.000 A 
ATOM     24  C   UNL     1      11.076  13.469  19.128  0.00  0.00    +0.000 A 
ATOM     25 CL   UNL     1      11.787  15.040  19.187  0.00  0.00    +0.000 Cl
ATOM     26  C   UNL     1      10.936  12.756  17.929  0.00  0.00    +0.000 A 
ATOM     27  C   UNL     1      11.362  13.270  16.583  0.00  0.00    +0.000 C 
ATOM     28  C   UNL     1      10.342  11.481  17.969  0.00  0.00    +0.000 A 
ENDBRANCH  20  21
ENDBRANCH  19  20
ENDBRANCH  16  19
ENDBRANCH  15  16
ENDBRANCH   4  15
TORSDOF 8
ENDMDL
MODEL 3
REMARK VINA RESULT:      -7.3      1.471      1.838
REMARK  Name = 
REMARK  10 active torsions:
REMARK  status: ('A' for Active; 'I' for Inactive)
REMARK    1  A    between atoms: C_1  and  O_2
REMARK    2  A    between atoms: O_2  and  C_3
REMARK    3  A    between atoms: C_8  and  N_9
REMARK    4  A    between atoms: N_12  and  C_13
REMARK    5  A    between atoms: C_13  and  C_14
REMARK    6  A    between atoms: C_14  and  O_15
REMARK    7  A    between atoms: C_14  and  C_16
REMARK    8  A    between atoms: C_16  and  O_17
REMARK    9  A    between atoms: O_17  and  C_18
REMARK   10  A    between atoms: C_23  and  C_24
REMARK                            x       y       z     vdW  Elec       q    Type
REMARK                         _______ _______ _______ _____ _____    ______ ____
ROOT
ATOM      1  N   UNL     1       4.615   4.723  17.979  0.00  0.00    +0.000 N 
ATOM      2  C   UNL     1       5.422   5.441  18.975  0.00  0.00    +0.000 C 
ATOM      3  C   UNL     1       6.929   5.121  18.795  0.00  0.00    +0.000 C 
ATOM      4  N   UNL     1       7.453   5.316  17.413  0.00  0.00    +0.000 NA
ATOM      5  C   UNL     1       6.598   4.500  16.517  0.00  0.00    +0.000 C 
ATOM      6  C   UNL     1       5.086   4.827  16.587  0.00  0.00    +0.000 C 
ENDROOT
BRANCH   1  12
ATOM      7  C   UNL     1       3.479   2.812  19.082  0.00  0.00    +0.000 A 
ATOM      8  C   UNL     1       2.285   2.108  19.319  0.00  0.00    +0.000 A 
ATOM      9  C   UNL     1       1.070   2.560  18.811  0.00  0.00    +0.000 A 
ATOM     10  C   UNL     1       1.039   3.722  18.061  0.00  0.00    +0.000 A 
ATOM     11  C   UNL     1       2.226   4.421  17.811  0.00  0.00    +0.000 A 
ATOM     12  C   UNL     1       3.479   3.992  18.297  0.00  0.00    +0.000 A 
BRANCH   7  14
ATOM     13  C   UNL     1       4.676   1.683  20.785  0.00  0.00    +0.000 C 
ATOM     14  O   UNL     1       4.690   2.304  19.504  0.00  0.00    +0.000 OA
ENDBRANCH   7  14
ENDBRANCH   1  12
BRANCH   4  15
ATOM     15  C   UNL     1       7.477   6.752  17.066  0.00  0.00    +0.000 C 
BRANCH  15  16
ATOM     16  C   UNL     1       7.675   7.743  18.241  0.00  0.00    +0.000 C 
BRANCH  16  17
ATOM     17  O   UNL     1       8.703   7.288  19.137  0.00  0.00    +0.000 OA
ATOM     18  H   UNL     1       8.699   7.855  19.920  0.00  0.00    +0.000 HD
ENDBRANCH  16  17
BRANCH  16  19
ATOM     19  C   UNL     1       8.083   9.118  17.684  0.00  0.00    +0.000 C 
BRANCH  19  20
ATOM     20  O   UNL     1       9.139   9.637  18.497  0.00  0.00    +0.000 OA
BRANCH  20  21
ATOM     21  C   UNL     1       9.325  10.987  18.434  0.00  0.00    +0.000 A 
ATOM     22  C   UNL     1       8.343  11.699  17.751  0.00  0.00    +0.000 A 
ATOM     23  C   UNL     1       8.465  13.080  17.589  0.00  0.00    +0.000 A 
ATOM     24  C   UNL     1       9.583  13.752  18.093  0.00  0.00    +0.000 A 
ATOM     25 CL   UNL     1       9.670  15.456  17.832  0.00  0.00    +0.000 Cl
ATOM     26  C   UNL     1      10.588  13.046  18.768  0.00  0.00    +0.000 A 
ATOM     27  C   UNL     1      11.839  13.672  19.318  0.00  0.00    +0.000 C 
ATOM     28  C   UNL     1      10.441  11.657  18.935  0.00  0.00    +0.000 A 
ENDBRANCH  20  21
ENDBRANCH  19  20
ENDBRANCH  16  19
ENDBRANCH  15  16
ENDBRANCH   4  15
TORSDOF 8
ENDMDL
MODEL 4
REMARK VINA RESULT:      -7.3      1.080      1.132
REMARK  Name = 
REMARK  10 active torsions:
REMARK  status: ('A' for Active; 'I' for Inactive)
REMARK    1  A    between atoms: C_1  and  O_2
REMARK    2  A    between atoms: O_2  and  C_3
REMARK    3  A    between atoms: C_8  and  N_9
REMARK    4  A    between atoms: N_12  and  C_13
REMARK    5  A    between atoms: C_13  and  C_14
REMARK    6  A    between atoms: C_14  and  O_15
REMARK    7  A    between atoms: C_14  and  C_16
REMARK    8  A    between atoms: C_16  and  O_17
REMARK    9  A    between atoms: O_17  and  C_18
REMARK   10  A    between atoms: C_23  and  C_24
REMARK                            x       y       z     vdW  Elec       q    Type
REMARK                         _______ _______ _______ _____ _____    ______ ____
ROOT
ATOM      1  N   UNL     1       4.458   4.693  17.831  0.00  0.00    +0.000 N 
ATOM      2  C   UNL     1       5.365   4.217  16.778  0.00  0.00    +0.000 C 
ATOM      3  C   UNL     1       5.554   5.302  15.685  0.00  0.00    +0.000 C 
ATOM      4  N   UNL     1       5.954   6.645  16.194  0.00  0.00    +0.000 NA
ATOM      5  C   UNL     1       4.935   7.037  17.199  0.00  0.00    +0.000 C 
ATOM      6  C   UNL     1       4.755   6.035  18.365  0.00  0.00    +0.000 C 
ENDROOT
BRANCH   1  12
ATOM      7  C   UNL     1       3.471   3.046  19.403  0.00  0.00    +0.000 A 
ATOM      8  C   UNL     1       2.346   2.300  19.800  0.00  0.00    +0.000 A 
ATOM      9  C   UNL     1       1.121   2.446  19.156  0.00  0.00    +0.000 A 
ATOM     10  C   UNL     1       1.010   3.340  18.107  0.00  0.00    +0.000 A 
ATOM     11  C   UNL     1       2.128   4.078  17.697  0.00  0.00    +0.000 A 
ATOM     12  C   UNL     1       3.390   3.952  18.315  0.00  0.00    +0.000 A 
BRANCH   7  14
ATOM     13  C   UNL     1       4.853   1.561  20.625  0.00  0.00    +0.000 C 
ATOM     14  O   UNL     1       4.703   2.823  19.980  0.00  0.00    +0.000 OA
ENDBRANCH   7  14
ENDBRANCH   1  12
BRANCH   4  15
ATOM     15  C   UNL     1       7.331   6.608  16.726  0.00  0.00    +0.000 C 
BRANCH  15  16
ATOM     16  C   UNL     1       7.490   6.843  18.250  0.00  0.00    +0.000 C 
BRANCH  16  17
ATOM     17  O   UNL     1       8.001   5.670  18.906  0.00  0.00    +0.000 OA
ATOM     18  H   UNL     1       7.264   5.213  19.333  0.00  0.00    +0.000 HD
ENDBRANCH  16  17
BRANCH  16  19
ATOM     19  C   UNL     1       8.471   8.004  18.488  0.00  0.00    +0.000 C 
BRANCH  19  20
ATOM     20  O   UNL     1       7.998   9.146  17.768  0.00  0.00    +0.000 OA
BRANCH  20  21
ATOM     21  C   UNL     1       8.558  10.340  18.121  0.00  0.00    +0.000 A 
ATOM     22  C   UNL     1       8.040  11.461  17.479  0.00  0.00    +0.000 A 
ATOM     23  C   UNL     1       8.576  12.724  17.734  0.00  0.00    +0.000 A 
ATOM     24  C   UNL     1       9.650  12.867  18.618  0.00  0.00    +0.000 A 
ATOM     25 CL   UNL     1      10.270  14.458  18.864  0.00  0.00    +0.000 Cl
ATOM     26  C   UNL     1      10.193  11.745  19.260  0.00  0.00    +0.000 A 
ATOM     27  C   UNL     1      11.363  11.792  20.202  0.00  0.00    +0.000 C 
ATOM     28  C   UNL     1       9.629  10.482  19.002  0.00  0.00    +0.000 A 
ENDBRANCH  20  21
ENDBRANCH  19  20
ENDBRANCH  16  19
ENDBRANCH  15  16
ENDBRANCH   4  15
TORSDOF 8
ENDMDL
MODEL 5
REMARK VINA RESULT:      -7.2      0.884      1.413
REMARK  Name = 
REMARK  10 active torsions:
REMARK  status: ('A' for Active; 'I' for Inactive)
REMARK    1  A    between atoms: C_1  and  O_2
REMARK    2  A    between atoms: O_2  and  C_3
REMARK    3  A    between atoms: C_8  and  N_9
REMARK    4  A    between atoms: N_12  and  C_13
REMARK    5  A    between atoms: C_13  and  C_14
REMARK    6  A    between atoms: C_14  and  O_15
REMARK    7  A    between atoms: C_14  and  C_16
REMARK    8  A    between atoms: C_16  and  O_17
REMARK    9  A    between atoms: O_17  and  C_18
REMARK   10  A    between atoms: C_23  and  C_24
REMARK                            x       y       z     vdW  Elec       q    Type
REMARK                         _______ _______ _______ _____ _____    ______ ____
ROOT
ATOM      1  N   UNL     1       4.326   4.650  18.576  0.00  0.00    +0.000 N 
ATOM      2  C   UNL     1       5.149   3.931  17.594  0.00  0.00    +0.000 C 
ATOM      3  C   UNL     1       5.244   4.730  16.268  0.00  0.00    +0.000 C 
ATOM      4  N   UNL     1       5.675   6.149  16.419  0.00  0.00    +0.000 NA
ATOM      5  C   UNL     1       4.738   6.777  17.382  0.00  0.00    +0.000 C 
ATOM      6  C   UNL     1       4.657   6.074  18.759  0.00  0.00    +0.000 C 
ENDROOT
BRANCH   1  12
ATOM      7  C   UNL     1       3.494   3.023  20.256  0.00  0.00    +0.000 A 
ATOM      8  C   UNL     1       2.395   2.444  20.915  0.00  0.00    +0.000 A 
ATOM      9  C   UNL     1       1.096   2.881  20.668  0.00  0.00    +0.000 A 
ATOM     10  C   UNL     1       0.885   3.901  19.759  0.00  0.00    +0.000 A 
ATOM     11  C   UNL     1       1.974   4.474  19.089  0.00  0.00    +0.000 A 
ATOM     12  C   UNL     1       3.304   4.054  19.301  0.00  0.00    +0.000 A 
BRANCH   7  14
ATOM     13  C   UNL     1       4.892   1.112  20.242  0.00  0.00    +0.000 C 
ATOM     14  O   UNL     1       4.765   2.519  20.432  0.00  0.00    +0.000 OA
ENDBRANCH   7  14
ENDBRANCH   1  12
BRANCH   4  15
ATOM     15  C   UNL     1       7.091   6.219  16.835  0.00  0.00    +0.000 C 
BRANCH  15  16
ATOM     16  C   UNL     1       7.431   7.224  17.964  0.00  0.00    +0.000 C 
BRANCH  16  17
ATOM     17  O   UNL     1       8.187   6.592  19.011  0.00  0.00    +0.000 OA
ATOM     18  H   UNL     1       7.792   6.831  19.861  0.00  0.00    +0.000 HD
ENDBRANCH  16  17
BRANCH  16  19
ATOM     19  C   UNL     1       8.265   8.379  17.385  0.00  0.00    +0.000 C 
BRANCH  19  20
ATOM     20  O   UNL     1       7.710   9.612  17.851  0.00  0.00    +0.000 OA
BRANCH  20  21
ATOM     21  C   UNL     1       8.611  10.541  18.283  0.00  0.00    +0.000 A 
ATOM     22  C   UNL     1       9.402  10.156  19.362  0.00  0.00    +0.000 A 
ATOM     23  C   UNL     1      10.322  11.051  19.910  0.00  0.00    +0.000 A 
ATOM     24  C   UNL     1      10.439  12.345  19.392  0.00  0.00    +0.000 A 
ATOM     25 CL   UNL     1      11.585  13.398  20.139  0.00  0.00    +0.000 Cl
ATOM     26  C   UNL     1       9.639  12.752  18.316  0.00  0.00    +0.000 A 
ATOM     27  C   UNL     1       9.669  14.127  17.711  0.00  0.00    +0.000 C 
ATOM     28  C   UNL     1       8.728  11.831  17.768  0.00  0.00    +0.000 A 
ENDBRANCH  20  21
ENDBRANCH  19  20
ENDBRANCH  16  19
ENDBRANCH  15  16
ENDBRANCH   4  15
TORSDOF 8
ENDMDL
MODEL 6
REMARK VINA RESULT:      -7.2      1.498      1.743
REMARK  Name = 
REMARK  10 active torsions:
REMARK  status: ('A' for Active; 'I' for Inactive)
REMARK    1  A    between atoms: C_1  and  O_2
REMARK    2  A    between atoms: O_2  and  C_3
REMARK    3  A    between atoms: C_8  and  N_9
REMARK    4  A    between atoms: N_12  and  C_13
REMARK    5  A    between atoms: C_13  and  C_14
REMARK    6  A    between atoms: C_14  and  O_15
REMARK    7  A    between atoms: C_14  and  C_16
REMARK    8  A    between atoms: C_16  and  O_17
REMARK    9  A    between atoms: O_17  and  C_18
REMARK   10  A    between atoms: C_23  and  C_24
REMARK                            x       y       z     vdW  Elec       q    Type
REMARK                         _______ _______ _______ _____ _____    ______ ____
ROOT
ATOM      1  N   UNL     1       4.048   5.060  19.244  0.00  0.00    +0.000 N 
ATOM      2  C   UNL     1       5.507   4.897  19.184  0.00  0.00    +0.000 C 
ATOM      3  C   UNL     1       6.031   5.160  17.748  0.00  0.00    +0.000 C 
ATOM      4  N   UNL     1       5.594   6.452  17.146  0.00  0.00    +0.000 NA
ATOM      5  C   UNL     1       4.112   6.470  17.212  0.00  0.00    +0.000 C 
ATOM      6  C   UNL     1       3.523   6.295  18.632  0.00  0.00    +0.000 C 
ENDROOT
BRANCH   1  12
ATOM      7  C   UNL     1       2.876   2.873  19.274  0.00  0.00    +0.000 A 
ATOM      8  C   UNL     1       1.967   2.015  19.919  0.00  0.00    +0.000 A 
ATOM      9  C   UNL     1       1.378   2.368  21.130  0.00  0.00    +0.000 A 
ATOM     10  C   UNL     1       1.692   3.585  21.707  0.00  0.00    +0.000 A 
ATOM     11  C   UNL     1       2.587   4.450  21.065  0.00  0.00    +0.000 A 
ATOM     12  C   UNL     1       3.197   4.137  19.833  0.00  0.00    +0.000 A 
BRANCH   7  14
ATOM     13  C   UNL     1       2.633   3.074  16.927  0.00  0.00    +0.000 C 
ATOM     14  O   UNL     1       3.377   2.560  18.029  0.00  0.00    +0.000 OA
ENDBRANCH   7  14
ENDBRANCH   1  12
BRANCH   4  15
ATOM     15  C   UNL     1       6.234   7.589  17.839  0.00  0.00    +0.000 C 
BRANCH  15  16
ATOM     16  C   UNL     1       7.769   7.719  17.681  0.00  0.00    +0.000 C 
BRANCH  16  17
ATOM     17  O   UNL     1       8.214   7.150  16.438  0.00  0.00    +0.000 OA
ATOM     18  H   UNL     1       7.493   7.215  15.797  0.00  0.00    +0.000 HD
ENDBRANCH  16  17
BRANCH  16  19
ATOM     19  C   UNL     1       8.160   9.207  17.707  0.00  0.00    +0.000 C 
BRANCH  19  20
ATOM     20  O   UNL     1       8.765   9.491  18.972  0.00  0.00    +0.000 OA
BRANCH  20  21
ATOM     21  C   UNL     1       9.377  10.706  19.075  0.00  0.00    +0.000 A 
ATOM     22  C   UNL     1      10.132  11.096  17.972  0.00  0.00    +0.000 A 
ATOM     23  C   UNL     1      10.836  12.300  17.996  0.00  0.00    +0.000 A 
ATOM     24  C   UNL     1      10.805  13.111  19.136  0.00  0.00    +0.000 A 
ATOM     25 CL   UNL     1      11.721  14.573  19.094  0.00  0.00    +0.000 Cl
ATOM     26  C   UNL     1      10.064  12.724  20.260  0.00  0.00    +0.000 A 
ATOM     27  C   UNL     1       9.992  13.509  21.539  0.00  0.00    +0.000 C 
ATOM     28  C   UNL     1       9.348  11.514  20.211  0.00  0.00    +0.000 A 
ENDBRANCH  20  21
ENDBRANCH  19  20
ENDBRANCH  16  19
ENDBRANCH  15  16
ENDBRANCH   4  15
TORSDOF 8
ENDMDL
MODEL 7
REMARK VINA RESULT:      -7.1      1.550      2.295
REMARK  Name = 
REMARK  10 active torsions:
REMARK  status: ('A' for Active; 'I' for Inactive)
REMARK    1  A    between atoms: C_1  and  O_2
REMARK    2  A    between atoms: O_2  and  C_3
REMARK    3  A    between atoms: C_8  and  N_9
REMARK    4  A    between atoms: N_12  and  C_13
REMARK    5  A    between atoms: C_13  and  C_14
REMARK    6  A    between atoms: C_14  and  O_15
REMARK    7  A    between atoms: C_14  and  C_16
REMARK    8  A    between atoms: C_16  and  O_17
REMARK    9  A    between atoms: O_17  and  C_18
REMARK   10  A    between atoms: C_23  and  C_24
REMARK                            x       y       z     vdW  Elec       q    Type
REMARK                         _______ _______ _______ _____ _____    ______ ____
ROOT
ATOM      1  N   UNL     1       4.458   4.821  17.782  0.00  0.00    +0.000 N 
ATOM      2  C   UNL     1       5.609   4.048  17.295  0.00  0.00    +0.000 C 
ATOM      3  C   UNL     1       6.078   4.573  15.913  0.00  0.00    +0.000 C 
ATOM      4  N   UNL     1       6.331   6.041  15.851  0.00  0.00    +0.000 NA
ATOM      5  C   UNL     1       5.086   6.705  16.307  0.00  0.00    +0.000 C 
ATOM      6  C   UNL     1       4.606   6.286  17.717  0.00  0.00    +0.000 C 
ENDROOT
BRANCH   1  12
ATOM      7  C   UNL     1       2.534   4.768  19.348  0.00  0.00    +0.000 A 
ATOM      8  C   UNL     1       1.395   4.089  19.818  0.00  0.00    +0.000 A 
ATOM      9  C   UNL     1       0.975   2.898  19.234  0.00  0.00    +0.000 A 
ATOM     10  C   UNL     1       1.691   2.374  18.174  0.00  0.00    +0.000 A 
ATOM     11  C   UNL     1       2.833   3.037  17.708  0.00  0.00    +0.000 A 
ATOM     12  C   UNL     1       3.300   4.240  18.278  0.00  0.00    +0.000 A 
BRANCH   7  14
ATOM     13  C   UNL     1       2.084   6.983  20.055  0.00  0.00    +0.000 C 
ATOM     14  O   UNL     1       3.000   5.893  19.996  0.00  0.00    +0.000 OA
ENDBRANCH   7  14
ENDBRANCH   1  12
BRANCH   4  15
ATOM     15  C   UNL     1       7.521   6.395  16.651  0.00  0.00    +0.000 C 
BRANCH  15  16
ATOM     16  C   UNL     1       7.267   7.209  17.945  0.00  0.00    +0.000 C 
BRANCH  16  17
ATOM     17  O   UNL     1       7.865   6.571  19.086  0.00  0.00    +0.000 OA
ATOM     18  H   UNL     1       8.663   6.109  18.795  0.00  0.00    +0.000 HD
ENDBRANCH  16  17
BRANCH  16  19
ATOM     19  C   UNL     1       7.877   8.613  17.793  0.00  0.00    +0.000 C 
BRANCH  19  20
ATOM     20  O   UNL     1       8.881   8.778  18.797  0.00  0.00    +0.000 OA
BRANCH  20  21
ATOM     21  C   UNL     1       9.316  10.057  18.994  0.00  0.00    +0.000 A 
ATOM     22  C   UNL     1       9.176  10.549  20.289  0.00  0.00    +0.000 A 
ATOM     23  C   UNL     1       9.546  11.862  20.583  0.00  0.00    +0.000 A 
ATOM     24  C   UNL     1      10.039  12.696  19.575  0.00  0.00    +0.000 A 
ATOM     25 CL   UNL     1      10.455  14.312  20.014  0.00  0.00    +0.000 Cl
ATOM     26  C   UNL     1      10.171  12.221  18.263  0.00  0.00    +0.000 A 
ATOM     27  C   UNL     1      10.661  13.047  17.107  0.00  0.00    +0.000 C 
ATOM     28  C   UNL     1       9.806  10.890  17.989  0.00  0.00    +0.000 A 
ENDBRANCH  20  21
ENDBRANCH  19  20
ENDBRANCH  16  19
ENDBRANCH  15  16
ENDBRANCH   4  15
TORSDOF 8
ENDMDL
MODEL 8
REMARK VINA RESULT:      -7.1      1.837      2.770
REMARK  Name = 
REMARK  10 active torsions:
REMARK  status: ('A' for Active; 'I' for Inactive)
REMARK    1  A    between atoms: C_1  and  O_2
REMARK    2  A    between atoms: O_2  and  C_3
REMARK    3  A    between atoms: C_8  and  N_9
REMARK    4  A    between atoms: N_12  and  C_13
REMARK    5  A    between atoms: C_13  and  C_14
REMARK    6  A    between atoms: C_14  and  O_15
REMARK    7  A    between atoms: C_14  and  C_16
REMARK    8  A    between atoms: C_16  and  O_17
REMARK    9  A    between atoms: O_17  and  C_18
REMARK   10  A    between atoms: C_23  and  C_24
REMARK                            x       y       z     vdW  Elec       q    Type
REMARK                         _______ _______ _______ _____ _____    ______ ____
ROOT
ATOM      1  N   UNL     1       4.987   4.867  18.323  0.00  0.00    +0.000 N 
ATOM      2  C   UNL     1       6.339   4.409  18.673  0.00  0.00    +0.000 C 
ATOM      3  C   UNL     1       7.343   4.743  17.539  0.00  0.00    +0.000 C 
ATOM      4  N   UNL     1       7.339   6.166  17.095  0.00  0.00    +0.000 NA
ATOM      5  C   UNL     1       5.941   6.488  16.716  0.00  0.00    +0.000 C 
ATOM      6  C   UNL     1       4.896   6.254  17.833  0.00  0.00    +0.000 C 
ENDROOT
BRANCH   1  12
ATOM      7  C   UNL     1       2.780   4.337  19.326  0.00  0.00    +0.000 A 
ATOM      8  C   UNL     1       1.689   3.454  19.412  0.00  0.00    +0.000 A 
ATOM      9  C   UNL     1       1.620   2.314  18.616  0.00  0.00    +0.000 A 
ATOM     10  C   UNL     1       2.645   2.047  17.726  0.00  0.00    +0.000 A 
ATOM     11  C   UNL     1       3.741   2.915  17.643  0.00  0.00    +0.000 A 
ATOM     12  C   UNL     1       3.855   4.074  18.440  0.00  0.00    +0.000 A 
BRANCH   7  14
ATOM     13  C   UNL     1       1.651   5.939  20.656  0.00  0.00    +0.000 C 
ATOM     14  O   UNL     1       2.888   5.408  20.188  0.00  0.00    +0.000 OA
ENDBRANCH   7  14
ENDBRANCH   1  12
BRANCH   4  15
ATOM     15  C   UNL     1       7.884   7.040  18.154  0.00  0.00    +0.000 C 
BRANCH  15  16
ATOM     16  C   UNL     1       8.340   8.455  17.716  0.00  0.00    +0.000 C 
BRANCH  16  17
ATOM     17  O   UNL     1       7.229   9.239  17.252  0.00  0.00    +0.000 OA
ATOM     18  H   UNL     1       6.660   9.440  18.008  0.00  0.00    +0.000 HD
ENDBRANCH  16  17
BRANCH  16  19
ATOM     19  C   UNL     1       8.985   9.176  18.912  0.00  0.00    +0.000 C 
BRANCH  19  20
ATOM     20  O   UNL     1       8.477  10.512  18.958  0.00  0.00    +0.000 OA
BRANCH  20  21
ATOM     21  C   UNL     1       9.417  11.500  19.013  0.00  0.00    +0.000 A 
ATOM     22  C   UNL     1       9.716  11.977  20.286  0.00  0.00    +0.000 A 
ATOM     23  C   UNL     1      10.629  13.021  20.446  0.00  0.00    +0.000 A 
ATOM     24  C   UNL     1      11.232  13.606  19.327  0.00  0.00    +0.000 A 
ATOM     25 CL   UNL     1      12.333  14.905  19.608  0.00  0.00    +0.000 Cl
ATOM     26  C   UNL     1      10.928  13.147  18.038  0.00  0.00    +0.000 A 
ATOM     27  C   UNL     1      11.499  13.729  16.776  0.00  0.00    +0.000 C 
ATOM     28  C   UNL     1      10.017  12.085  17.898  0.00  0.00    +0.000 A 
ENDBRANCH  20  21
ENDBRANCH  19  20
ENDBRANCH  16  19
ENDBRANCH  15  16
ENDBRANCH   4  15
TORSDOF 8
ENDMDL
MODEL 9
REMARK VINA RESULT:      -7.1      1.956      2.571
REMARK  Name = 
REMARK  10 active torsions:
REMARK  status: ('A' for Active; 'I' for Inactive)
REMARK    1  A    between atoms: C_1  and  O_2
REMARK    2  A    between atoms: O_2  and  C_3
REMARK    3  A    between atoms: C_8  and  N_9
REMARK    4  A    between atoms: N_12  and  C_13
REMARK    5  A    between atoms: C_13  and  C_14
REMARK    6  A    between atoms: C_14  and  O_15
REMARK    7  A    between atoms: C_14  and  C_16
REMARK    8  A    between atoms: C_16  and  O_17
REMARK    9  A    between atoms: O_17  and  C_18
REMARK   10  A    between atoms: C_23  and  C_24
REMARK                            x       y       z     vdW  Elec       q    Type
REMARK                         _______ _______ _______ _____ _____    ______ ____
ROOT
ATOM      1  N   UNL     1       4.897   5.024  18.263  0.00  0.00    +0.000 N 
ATOM      2  C   UNL     1       6.131   4.628  18.957  0.00  0.00    +0.000 C 
ATOM      3  C   UNL     1       7.353   4.741  18.010  0.00  0.00    +0.000 C 
ATOM      4  N   UNL     1       7.501   6.058  17.327  0.00  0.00    +0.000 NA
ATOM      5  C   UNL     1       6.222   6.315  16.621  0.00  0.00    +0.000 C 
ATOM      6  C   UNL     1       4.966   6.298  17.526  0.00  0.00    +0.000 C 
ENDROOT
BRANCH   1  12
ATOM      7  C   UNL     1       2.540   4.664  18.953  0.00  0.00    +0.000 A 
ATOM      8  C   UNL     1       1.415   3.820  18.963  0.00  0.00    +0.000 A 
ATOM      9  C   UNL     1       1.428   2.594  18.304  0.00  0.00    +0.000 A 
ATOM     10  C   UNL     1       2.569   2.200  17.628  0.00  0.00    +0.000 A 
ATOM     11  C   UNL     1       3.697   3.030  17.623  0.00  0.00    +0.000 A 
ATOM     12  C   UNL     1       3.730   4.274  18.288  0.00  0.00    +0.000 A 
BRANCH   7  14
ATOM     13  C   UNL     1       1.617   5.879  20.764  0.00  0.00    +0.000 C 
ATOM     14  O   UNL     1       2.553   5.829  19.690  0.00  0.00    +0.000 OA
ENDBRANCH   7  14
ENDBRANCH   1  12
BRANCH   4  15
ATOM     15  C   UNL     1       7.863   7.108  18.302  0.00  0.00    +0.000 C 
BRANCH  15  16
ATOM     16  C   UNL     1       8.218   8.499  17.718  0.00  0.00    +0.000 C 
BRANCH  16  17
ATOM     17  O   UNL     1       7.036   9.205  17.302  0.00  0.00    +0.000 OA
ATOM     18  H   UNL     1       7.272  10.130  17.146  0.00  0.00    +0.000 HD
ENDBRANCH  16  17
BRANCH  16  19
ATOM     19  C   UNL     1       8.935   9.335  18.793  0.00  0.00    +0.000 C 
BRANCH  19  20
ATOM     20  O   UNL     1       9.408  10.539  18.184  0.00  0.00    +0.000 OA
BRANCH  20  21
ATOM     21  C   UNL     1       9.595  11.595  19.028  0.00  0.00    +0.000 A 
ATOM     22  C   UNL     1      10.271  12.686  18.489  0.00  0.00    +0.000 A 
ATOM     23  C   UNL     1      10.554  13.797  19.284  0.00  0.00    +0.000 A 
ATOM     24  C   UNL     1      10.180  13.811  20.632  0.00  0.00    +0.000 A 
ATOM     25 CL   UNL     1      10.585  15.213  21.554  0.00  0.00    +0.000 Cl
ATOM     26  C   UNL     1       9.513  12.713  21.193  0.00  0.00    +0.000 A 
ATOM     27  C   UNL     1       9.098  12.621  22.635  0.00  0.00    +0.000 C 
ATOM     28  C   UNL     1       9.223  11.609  20.372  0.00  0.00    +0.000 A 
ENDBRANCH  20  21
ENDBRANCH  19  20
ENDBRANCH  16  19
ENDBRANCH  15  16
ENDBRANCH   4  15
TORSDOF 8
ENDMDL
