MODEL 1
REMARK VINA RESULT:      -6.8      0.000      0.000
REMARK  Name = 
REMARK  3 active torsions:
REMARK  status: ('A' for Active; 'I' for Inactive)
REMARK    1  A    between atoms: C_10  and  O_11
REMARK    2  A    between atoms: C_12  and  O_13
REMARK    3  A    between atoms: C_14  and  O_15
REMARK                            x       y       z     vdW  Elec       q    Type
REMARK                         _______ _______ _______ _____ _____    ______ ____
ROOT
ATOM      1  O   UNL     1       8.033   4.399  17.203  0.00  0.00    +0.000 OA
ATOM      2  C   UNL     1       6.862   4.332  17.514  0.00  0.00    +0.000 C 
ATOM      3  N   UNL     1       5.845   3.953  16.705  0.00  0.00    +0.000 N 
ATOM      4  C   UNL     1       4.672   3.936  17.392  0.00  0.00    +0.000 C 
ATOM      5  O   UNL     1       3.593   3.569  16.946  0.00  0.00    +0.000 OA
ATOM      6  C   UNL     1       4.933   4.436  18.840  0.00  0.00    +0.000 C 
ATOM      7  N   UNL     1       6.356   4.628  18.752  0.00  0.00    +0.000 N 
ATOM      8  O   UNL     1       4.397   5.706  19.152  0.00  0.00    +0.000 OA
ATOM      9  C   UNL     1       2.981   5.706  19.317  0.00  0.00    +0.000 C 
ATOM     10  C   UNL     1       2.562   4.791  20.464  0.00  0.00    +0.000 C 
ATOM     11  C   UNL     1       3.051   3.361  20.182  0.00  0.00    +0.000 C 
ATOM     12  C   UNL     1       4.561   3.352  19.877  0.00  0.00    +0.000 C 
ATOM     13  H   UNL     1       5.970   3.662  15.750  0.00  0.00    +0.000 HD
ATOM     14  H   UNL     1       6.947   4.958  19.500  0.00  0.00    +0.000 HD
ENDROOT
BRANCH  10  15
ATOM     15  O   UNL     1       1.150   4.847  20.651  0.00  0.00    +0.000 OA
ATOM     16  H   UNL     1       0.835   3.975  20.948  0.00  0.00    +0.000 HD
ENDBRANCH  10  15
BRANCH  11  17
ATOM     17  O   UNL     1       2.764   2.502  21.294  0.00  0.00    +0.000 OA
ATOM     18  H   UNL     1       1.995   1.946  21.071  0.00  0.00    +0.000 HD
ENDBRANCH  11  17
BRANCH  12  19
ATOM     19  O   UNL     1       5.010   2.044  19.491  0.00  0.00    +0.000 OA
ATOM     20  H   UNL     1       4.273   1.413  19.601  0.00  0.00    +0.000 HD
ENDBRANCH  12  19
TORSDOF 3
ENDMDL
MODEL 2
REMARK VINA RESULT:      -6.6      1.863      2.791
REMARK  Name = 
REMARK  3 active torsions:
REMARK  status: ('A' for Active; 'I' for Inactive)
REMARK    1  A    between atoms: C_10  and  O_11
REMARK    2  A    between atoms: C_12  and  O_13
REMARK    3  A    between atoms: C_14  and  O_15
REMARK                            x       y       z     vdW  Elec       q    Type
REMARK                         _______ _______ _______ _____ _____    ______ ____
ROOT
ATOM      1  O   UNL     1       6.537   6.332  17.983  0.00  0.00    +0.000 OA
ATOM      2  C   UNL     1       5.741   5.469  18.287  0.00  0.00    +0.000 C 
ATOM      3  N   UNL     1       6.002   4.376  19.041  0.00  0.00    +0.000 N 
ATOM      4  C   UNL     1       4.869   3.650  19.234  0.00  0.00    +0.000 C 
ATOM      5  O   UNL     1       4.778   2.647  19.930  0.00  0.00    +0.000 OA
ATOM      6  C   UNL     1       3.708   4.315  18.444  0.00  0.00    +0.000 C 
ATOM      7  N   UNL     1       4.421   5.449  17.920  0.00  0.00    +0.000 N 
ATOM      8  O   UNL     1       3.250   3.599  17.316  0.00  0.00    +0.000 OA
ATOM      9  C   UNL     1       2.479   2.445  17.642  0.00  0.00    +0.000 C 
ATOM     10  C   UNL     1       1.225   2.825  18.422  0.00  0.00    +0.000 C 
ATOM     11  C   UNL     1       1.627   3.561  19.711  0.00  0.00    +0.000 C 
ATOM     12  C   UNL     1       2.564   4.742  19.393  0.00  0.00    +0.000 C 
ATOM     13  H   UNL     1       6.900   4.182  19.450  0.00  0.00    +0.000 HD
ATOM     14  H   UNL     1       4.025   6.164  17.330  0.00  0.00    +0.000 HD
ENDROOT
BRANCH  10  15
ATOM     15  O   UNL     1       0.438   1.667  18.692  0.00  0.00    +0.000 OA
ATOM     16  H   UNL     1       0.227   1.641  19.641  0.00  0.00    +0.000 HD
ENDBRANCH  10  15
BRANCH  11  17
ATOM     17  O   UNL     1       0.466   4.024  20.412  0.00  0.00    +0.000 OA
ATOM     18  H   UNL     1       0.118   3.297  20.960  0.00  0.00    +0.000 HD
ENDBRANCH  11  17
BRANCH  12  19
ATOM     19  O   UNL     1       3.049   5.365  20.593  0.00  0.00    +0.000 OA
ATOM     20  H   UNL     1       3.941   5.724  20.423  0.00  0.00    +0.000 HD
ENDBRANCH  12  19
TORSDOF 3
ENDMDL
MODEL 3
REMARK VINA RESULT:      -6.4      2.097      4.875
REMARK  Name = 
REMARK  3 active torsions:
REMARK  status: ('A' for Active; 'I' for Inactive)
REMARK    1  A    between atoms: C_10  and  O_11
REMARK    2  A    between atoms: C_12  and  O_13
REMARK    3  A    between atoms: C_14  and  O_15
REMARK                            x       y       z     vdW  Elec       q    Type
REMARK                         _______ _______ _______ _____ _____    ______ ____
ROOT
ATOM      1  O   UNL     1       1.418   3.721  18.845  0.00  0.00    +0.000 OA
ATOM      2  C   UNL     1       2.399   4.221  18.337  0.00  0.00    +0.000 C 
ATOM      3  N   UNL     1       2.723   5.535  18.356  0.00  0.00    +0.000 N 
ATOM      4  C   UNL     1       3.918   5.740  17.740  0.00  0.00    +0.000 C 
ATOM      5  O   UNL     1       4.502   6.812  17.661  0.00  0.00    +0.000 OA
ATOM      6  C   UNL     1       4.427   4.386  17.174  0.00  0.00    +0.000 C 
ATOM      7  N   UNL     1       3.366   3.538  17.647  0.00  0.00    +0.000 N 
ATOM      8  O   UNL     1       4.409   4.268  15.766  0.00  0.00    +0.000 OA
ATOM      9  C   UNL     1       5.428   5.020  15.114  0.00  0.00    +0.000 C 
ATOM     10  C   UNL     1       6.816   4.554  15.545  0.00  0.00    +0.000 C 
ATOM     11  C   UNL     1       6.955   4.705  17.069  0.00  0.00    +0.000 C 
ATOM     12  C   UNL     1       5.790   4.002  17.794  0.00  0.00    +0.000 C 
ATOM     13  H   UNL     1       2.178   6.238  18.825  0.00  0.00    +0.000 HD
ATOM     14  H   UNL     1       3.302   2.543  17.493  0.00  0.00    +0.000 HD
ENDROOT
BRANCH  10  15
ATOM     15  O   UNL     1       7.823   5.278  14.843  0.00  0.00    +0.000 OA
ATOM     16  H   UNL     1       7.407   6.014  14.361  0.00  0.00    +0.000 HD
ENDBRANCH  10  15
BRANCH  11  17
ATOM     17  O   UNL     1       8.210   4.175  17.517  0.00  0.00    +0.000 OA
ATOM     18  H   UNL     1       8.331   3.288  17.132  0.00  0.00    +0.000 HD
ENDBRANCH  11  17
BRANCH  12  19
ATOM     19  O   UNL     1       5.836   4.237  19.210  0.00  0.00    +0.000 OA
ATOM     20  H   UNL     1       6.626   4.774  19.414  0.00  0.00    +0.000 HD
ENDBRANCH  12  19
TORSDOF 3
ENDMDL
MODEL 4
REMARK VINA RESULT:      -6.4      2.174      4.532
REMARK  Name = 
REMARK  3 active torsions:
REMARK  status: ('A' for Active; 'I' for Inactive)
REMARK    1  A    between atoms: C_10  and  O_11
REMARK    2  A    between atoms: C_12  and  O_13
REMARK    3  A    between atoms: C_14  and  O_15
REMARK                            x       y       z     vdW  Elec       q    Type
REMARK                         _______ _______ _______ _____ _____    ______ ____
ROOT
ATOM      1  O   UNL     1       1.132   3.015  17.839  0.00  0.00    +0.000 OA
ATOM      2  C   UNL     1       2.104   3.734  17.941  0.00  0.00    +0.000 C 
ATOM      3  N   UNL     1       2.289   4.692  18.878  0.00  0.00    +0.000 N 
ATOM      4  C   UNL     1       3.513   5.267  18.736  0.00  0.00    +0.000 C 
ATOM      5  O   UNL     1       3.990   6.116  19.477  0.00  0.00    +0.000 OA
ATOM      6  C   UNL     1       4.211   4.654  17.491  0.00  0.00    +0.000 C 
ATOM      7  N   UNL     1       3.199   3.702  17.119  0.00  0.00    +0.000 N 
ATOM      8  O   UNL     1       4.347   5.517  16.381  0.00  0.00    +0.000 OA
ATOM      9  C   UNL     1       5.345   6.520  16.552  0.00  0.00    +0.000 C 
ATOM     10  C   UNL     1       6.722   5.894  16.754  0.00  0.00    +0.000 C 
ATOM     11  C   UNL     1       6.691   4.977  17.988  0.00  0.00    +0.000 C 
ATOM     12  C   UNL     1       5.537   3.962  17.882  0.00  0.00    +0.000 C 
ATOM     13  H   UNL     1       1.631   4.890  19.612  0.00  0.00    +0.000 HD
ATOM     14  H   UNL     1       3.253   3.072  16.333  0.00  0.00    +0.000 HD
ENDROOT
BRANCH  10  15
ATOM     15  O   UNL     1       7.717   6.909  16.868  0.00  0.00    +0.000 OA
ATOM     16  H   UNL     1       7.468   7.518  17.585  0.00  0.00    +0.000 HD
ENDBRANCH  10  15
BRANCH  11  17
ATOM     17  O   UNL     1       7.942   4.293  18.141  0.00  0.00    +0.000 OA
ATOM     18  H   UNL     1       8.541   4.848  18.672  0.00  0.00    +0.000 HD
ENDBRANCH  11  17
BRANCH  12  19
ATOM     19  O   UNL     1       5.416   3.179  19.081  0.00  0.00    +0.000 OA
ATOM     20  H   UNL     1       4.473   2.975  19.229  0.00  0.00    +0.000 HD
ENDBRANCH  12  19
TORSDOF 3
ENDMDL
MODEL 5
REMARK VINA RESULT:      -6.3      1.790      2.825
REMARK  Name = 
REMARK  3 active torsions:
REMARK  status: ('A' for Active; 'I' for Inactive)
REMARK    1  A    between atoms: C_10  and  O_11
REMARK    2  A    between atoms: C_12  and  O_13
REMARK    3  A    between atoms: C_14  and  O_15
REMARK                            x       y       z     vdW  Elec       q    Type
REMARK                         _______ _______ _______ _____ _____    ______ ____
ROOT
ATOM      1  O   UNL     1       5.631   3.807  15.780  0.00  0.00    +0.000 OA
ATOM      2  C   UNL     1       4.962   3.895  16.788  0.00  0.00    +0.000 C 
ATOM      3  N   UNL     1       4.760   5.020  17.512  0.00  0.00    +0.000 N 
ATOM      4  C   UNL     1       3.914   4.774  18.547  0.00  0.00    +0.000 C 
ATOM      5  O   UNL     1       3.491   5.611  19.334  0.00  0.00    +0.000 OA
ATOM      6  C   UNL     1       3.556   3.262  18.552  0.00  0.00    +0.000 C 
ATOM      7  N   UNL     1       4.284   2.861  17.378  0.00  0.00    +0.000 N 
ATOM      8  O   UNL     1       4.104   2.509  19.615  0.00  0.00    +0.000 OA
ATOM      9  C   UNL     1       3.475   2.748  20.871  0.00  0.00    +0.000 C 
ATOM     10  C   UNL     1       1.997   2.375  20.825  0.00  0.00    +0.000 C 
ATOM     11  C   UNL     1       1.296   3.196  19.730  0.00  0.00    +0.000 C 
ATOM     12  C   UNL     1       2.034   3.051  18.385  0.00  0.00    +0.000 C 
ATOM     13  H   UNL     1       5.138   5.919  17.264  0.00  0.00    +0.000 HD
ATOM     14  H   UNL     1       4.324   1.923  17.009  0.00  0.00    +0.000 HD
ENDROOT
BRANCH  10  15
ATOM     15  O   UNL     1       1.396   2.567  22.104  0.00  0.00    +0.000 OA
ATOM     16  H   UNL     1       1.204   3.513  22.226  0.00  0.00    +0.000 HD
ENDBRANCH  10  15
BRANCH  11  17
ATOM     17  O   UNL     1      -0.072   2.789  19.592  0.00  0.00    +0.000 OA
ATOM     18  H   UNL     1      -0.117   2.045  18.965  0.00  0.00    +0.000 HD
ENDBRANCH  11  17
BRANCH  12  19
ATOM     19  O   UNL     1       1.466   3.908  17.381  0.00  0.00    +0.000 OA
ATOM     20  H   UNL     1       2.096   4.629  17.191  0.00  0.00    +0.000 HD
ENDBRANCH  12  19
TORSDOF 3
ENDMDL
MODEL 6
REMARK VINA RESULT:      -6.3      1.741      1.801
REMARK  Name = 
REMARK  3 active torsions:
REMARK  status: ('A' for Active; 'I' for Inactive)
REMARK    1  A    between atoms: C_10  and  O_11
REMARK    2  A    between atoms: C_12  and  O_13
REMARK    3  A    between atoms: C_14  and  O_15
REMARK                            x       y       z     vdW  Elec       q    Type
REMARK                         _______ _______ _______ _____ _____    ______ ____
ROOT
ATOM      1  O   UNL     1       8.340   5.411  19.623  0.00  0.00    +0.000 OA
ATOM      2  C   UNL     1       7.323   5.061  19.062  0.00  0.00    +0.000 C 
ATOM      3  N   UNL     1       7.244   4.517  17.825  0.00  0.00    +0.000 N 
ATOM      4  C   UNL     1       5.958   4.190  17.531  0.00  0.00    +0.000 C 
ATOM      5  O   UNL     1       5.584   3.620  16.514  0.00  0.00    +0.000 OA
ATOM      6  C   UNL     1       5.046   4.639  18.706  0.00  0.00    +0.000 C 
ATOM      7  N   UNL     1       6.061   5.153  19.586  0.00  0.00    +0.000 N 
ATOM      8  O   UNL     1       4.192   5.732  18.432  0.00  0.00    +0.000 OA
ATOM      9  C   UNL     1       3.090   5.402  17.591  0.00  0.00    +0.000 C 
ATOM     10  C   UNL     1       2.203   4.342  18.239  0.00  0.00    +0.000 C 
ATOM     11  C   UNL     1       3.036   3.081  18.521  0.00  0.00    +0.000 C 
ATOM     12  C   UNL     1       4.303   3.433  19.325  0.00  0.00    +0.000 C 
ATOM     13  H   UNL     1       8.044   4.326  17.247  0.00  0.00    +0.000 HD
ATOM     14  H   UNL     1       5.894   5.558  20.495  0.00  0.00    +0.000 HD
ENDROOT
BRANCH  10  15
ATOM     15  O   UNL     1       1.076   4.065  17.412  0.00  0.00    +0.000 OA
ATOM     16  H   UNL     1       1.103   4.648  16.633  0.00  0.00    +0.000 HD
ENDBRANCH  10  15
BRANCH  11  17
ATOM     17  O   UNL     1       2.256   2.107  19.227  0.00  0.00    +0.000 OA
ATOM     18  H   UNL     1       2.237   2.344  20.171  0.00  0.00    +0.000 HD
ENDBRANCH  11  17
BRANCH  12  19
ATOM     19  O   UNL     1       5.154   2.289  19.490  0.00  0.00    +0.000 OA
ATOM     20  H   UNL     1       6.076   2.594  19.592  0.00  0.00    +0.000 HD
ENDBRANCH  12  19
TORSDOF 3
ENDMDL
MODEL 7
REMARK VINA RESULT:      -6.3      2.056      4.742
REMARK  Name = 
REMARK  3 active torsions:
REMARK  status: ('A' for Active; 'I' for Inactive)
REMARK    1  A    between atoms: C_10  and  O_11
REMARK    2  A    between atoms: C_12  and  O_13
REMARK    3  A    between atoms: C_14  and  O_15
REMARK                            x       y       z     vdW  Elec       q    Type
REMARK                         _______ _______ _______ _____ _____    ______ ____
ROOT
ATOM      1  O   UNL     1       1.488   5.221  20.040  0.00  0.00    +0.000 OA
ATOM      2  C   UNL     1       2.585   5.230  19.522  0.00  0.00    +0.000 C 
ATOM      3  N   UNL     1       3.772   5.173  20.171  0.00  0.00    +0.000 N 
ATOM      4  C   UNL     1       4.800   5.145  19.281  0.00  0.00    +0.000 C 
ATOM      5  O   UNL     1       5.983   5.026  19.567  0.00  0.00    +0.000 OA
ATOM      6  C   UNL     1       4.221   5.267  17.845  0.00  0.00    +0.000 C 
ATOM      7  N   UNL     1       2.821   5.297  18.174  0.00  0.00    +0.000 N 
ATOM      8  O   UNL     1       4.482   6.489  17.184  0.00  0.00    +0.000 OA
ATOM      9  C   UNL     1       5.830   6.626  16.743  0.00  0.00    +0.000 C 
ATOM     10  C   UNL     1       6.195   5.534  15.743  0.00  0.00    +0.000 C 
ATOM     11  C   UNL     1       6.002   4.156  16.397  0.00  0.00    +0.000 C 
ATOM     12  C   UNL     1       4.586   4.030  16.992  0.00  0.00    +0.000 C 
ATOM     13  H   UNL     1       3.858   5.095  21.170  0.00  0.00    +0.000 HD
ATOM     14  H   UNL     1       2.067   5.372  17.508  0.00  0.00    +0.000 HD
ENDROOT
BRANCH  10  15
ATOM     15  O   UNL     1       7.528   5.719  15.270  0.00  0.00    +0.000 OA
ATOM     16  H   UNL     1       7.499   6.161  14.404  0.00  0.00    +0.000 HD
ENDBRANCH  10  15
BRANCH  11  17
ATOM     17  O   UNL     1       6.235   3.108  15.446  0.00  0.00    +0.000 OA
ATOM     18  H   UNL     1       7.162   3.155  15.149  0.00  0.00    +0.000 HD
ENDBRANCH  11  17
BRANCH  12  19
ATOM     19  O   UNL     1       4.428   2.799  17.714  0.00  0.00    +0.000 OA
ATOM     20  H   UNL     1       5.151   2.722  18.367  0.00  0.00    +0.000 HD
ENDBRANCH  12  19
TORSDOF 3
ENDMDL
MODEL 8
REMARK VINA RESULT:      -6.3      1.291      1.366
REMARK  Name = 
REMARK  3 active torsions:
REMARK  status: ('A' for Active; 'I' for Inactive)
REMARK    1  A    between atoms: C_10  and  O_11
REMARK    2  A    between atoms: C_12  and  O_13
REMARK    3  A    between atoms: C_14  and  O_15
REMARK                            x       y       z     vdW  Elec       q    Type
REMARK                         _______ _______ _______ _____ _____    ______ ____
ROOT
ATOM      1  O   UNL     1       7.898   4.604  17.768  0.00  0.00    +0.000 OA
ATOM      2  C   UNL     1       6.695   4.583  17.919  0.00  0.00    +0.000 C 
ATOM      3  N   UNL     1       5.780   5.142  17.095  0.00  0.00    +0.000 N 
ATOM      4  C   UNL     1       4.520   4.880  17.534  0.00  0.00    +0.000 C 
ATOM      5  O   UNL     1       3.487   5.196  16.959  0.00  0.00    +0.000 OA
ATOM      6  C   UNL     1       4.610   4.095  18.871  0.00  0.00    +0.000 C 
ATOM      7  N   UNL     1       6.041   3.981  18.962  0.00  0.00    +0.000 N 
ATOM      8  O   UNL     1       4.212   4.807  20.025  0.00  0.00    +0.000 OA
ATOM      9  C   UNL     1       2.802   4.988  20.129  0.00  0.00    +0.000 C 
ATOM     10  C   UNL     1       2.080   3.647  20.207  0.00  0.00    +0.000 C 
ATOM     11  C   UNL     1       2.405   2.817  18.954  0.00  0.00    +0.000 C 
ATOM     12  C   UNL     1       3.929   2.712  18.751  0.00  0.00    +0.000 C 
ATOM     13  H   UNL     1       6.015   5.623  16.243  0.00  0.00    +0.000 HD
ATOM     14  H   UNL     1       6.543   3.524  19.709  0.00  0.00    +0.000 HD
ENDROOT
BRANCH  10  15
ATOM     15  O   UNL     1       0.678   3.846  20.367  0.00  0.00    +0.000 OA
ATOM     16  H   UNL     1       0.446   3.732  21.305  0.00  0.00    +0.000 HD
ENDBRANCH  10  15
BRANCH  11  17
ATOM     17  O   UNL     1       1.826   1.509  19.050  0.00  0.00    +0.000 OA
ATOM     18  H   UNL     1       1.198   1.498  19.794  0.00  0.00    +0.000 HD
ENDBRANCH  11  17
BRANCH  12  19
ATOM     19  O   UNL     1       4.249   2.047  17.519  0.00  0.00    +0.000 OA
ATOM     20  H   UNL     1       4.496   1.123  17.715  0.00  0.00    +0.000 HD
ENDBRANCH  12  19
TORSDOF 3
ENDMDL
MODEL 9
REMARK VINA RESULT:      -6.3      2.473      4.653
REMARK  Name = 
REMARK  3 active torsions:
REMARK  status: ('A' for Active; 'I' for Inactive)
REMARK    1  A    between atoms: C_10  and  O_11
REMARK    2  A    between atoms: C_12  and  O_13
REMARK    3  A    between atoms: C_14  and  O_15
REMARK                            x       y       z     vdW  Elec       q    Type
REMARK                         _______ _______ _______ _____ _____    ______ ____
ROOT
ATOM      1  O   UNL     1       1.878   2.116  17.783  0.00  0.00    +0.000 OA
ATOM      2  C   UNL     1       2.834   2.857  17.864  0.00  0.00    +0.000 C 
ATOM      3  N   UNL     1       3.768   2.847  18.843  0.00  0.00    +0.000 N 
ATOM      4  C   UNL     1       4.731   3.774  18.592  0.00  0.00    +0.000 C 
ATOM      5  O   UNL     1       5.739   3.951  19.262  0.00  0.00    +0.000 OA
ATOM      6  C   UNL     1       4.350   4.554  17.303  0.00  0.00    +0.000 C 
ATOM      7  N   UNL     1       3.144   3.846  16.967  0.00  0.00    +0.000 N 
ATOM      8  O   UNL     1       3.960   5.898  17.497  0.00  0.00    +0.000 OA
ATOM      9  C   UNL     1       5.043   6.772  17.807  0.00  0.00    +0.000 C 
ATOM     10  C   UNL     1       6.065   6.801  16.674  0.00  0.00    +0.000 C 
ATOM     11  C   UNL     1       6.598   5.380  16.429  0.00  0.00    +0.000 C 
ATOM     12  C   UNL     1       5.435   4.392  16.215  0.00  0.00    +0.000 C 
ATOM     13  H   UNL     1       3.771   2.192  19.606  0.00  0.00    +0.000 HD
ATOM     14  H   UNL     1       2.557   4.041  16.170  0.00  0.00    +0.000 HD
ENDROOT
BRANCH  10  15
ATOM     15  O   UNL     1       7.112   7.721  16.975  0.00  0.00    +0.000 OA
ATOM     16  H   UNL     1       6.857   8.250  17.751  0.00  0.00    +0.000 HD
ENDBRANCH  10  15
BRANCH  11  17
ATOM     17  O   UNL     1       7.481   5.361  15.299  0.00  0.00    +0.000 OA
ATOM     18  H   UNL     1       6.987   5.048  14.520  0.00  0.00    +0.000 HD
ENDBRANCH  11  17
BRANCH  12  19
ATOM     19  O   UNL     1       5.909   3.041  16.107  0.00  0.00    +0.000 OA
ATOM     20  H   UNL     1       5.474   2.615  15.344  0.00  0.00    +0.000 HD
ENDBRANCH  12  19
TORSDOF 3
ENDMDL
