MODEL 1
REMARK VINA RESULT:      -7.5      0.000      0.000
REMARK  Name = 
REMARK  11 active torsions:
REMARK  status: ('A' for Active; 'I' for Inactive)
REMARK    1  A    between atoms: C_1  and  C_2
REMARK    2  A    between atoms: N_4  and  C_5
REMARK    3  A    between atoms: C_5  and  C_6
REMARK    4  A    between atoms: C_5  and  C_7
REMARK    5  A    between atoms: C_8  and  C_9
REMARK    6  A    between atoms: C_12  and  O_13
REMARK    7  A    between atoms: O_13  and  C_14
REMARK    8  A    between atoms: C_19  and  O_20
REMARK    9  A    between atoms: O_20  and  C_21
REMARK   10  A    between atoms: C_21  and  C_22
REMARK   11  A    between atoms: C_21  and  C_23
REMARK                            x       y       z     vdW  Elec       q    Type
REMARK                         _______ _______ _______ _____ _____    ______ ____
ROOT
ATOM      1  C   UNL     1       7.147   6.762  17.694  0.00  0.00    +0.000 A 
ATOM      2  C   UNL     1       6.562   6.118  16.633  0.00  0.00    +0.000 A 
ATOM      3  N   UNL     1       5.940   4.930  16.958  0.00  0.00    +0.000 NA
ATOM      4  C   UNL     1       6.087   4.697  18.247  0.00  0.00    +0.000 A 
ATOM      5  S   UNL     1       7.098   5.782  19.089  0.00  0.00    +0.000 S 
ENDROOT
BRANCH   1   7
ATOM      6  C   UNL     1       8.381   9.153  17.913  0.00  0.00    +0.000 C 
ATOM      7  C   UNL     1       7.756   8.031  17.686  0.00  0.00    +0.000 C 
BRANCH   6   8
ATOM      8  C   UNL     1       9.108  10.462  18.178  0.00  0.00    +0.000 C 
ATOM      9  C   UNL     1       9.632  10.459  19.612  0.00  0.00    +0.000 C 
BRANCH   8  13
ATOM     10  C   UNL     1       7.694  13.901  17.540  0.00  0.00    +0.000 C 
ATOM     11  C   UNL     1       8.742  12.837  17.719  0.00  0.00    +0.000 C 
ATOM     12  O   UNL     1       9.935  13.085  17.677  0.00  0.00    +0.000 OA
ATOM     13  N   UNL     1       8.224  11.575  17.927  0.00  0.00    +0.000 N 
ATOM     14  H   UNL     1       7.232  11.452  18.064  0.00  0.00    +0.000 HD
ENDBRANCH   8  13
ENDBRANCH   6   8
ENDBRANCH   1   7
BRANCH   4  15
ATOM     15  O   UNL     1       5.465   3.723  18.915  0.00  0.00    +0.000 OA
BRANCH  15  16
ATOM     16  C   UNL     1       4.132   3.484  18.696  0.00  0.00    +0.000 A 
ATOM     17  C   UNL     1       3.752   2.222  18.196  0.00  0.00    +0.000 A 
ATOM     18  C   UNL     1       2.419   1.922  17.949  0.00  0.00    +0.000 A 
ATOM     19  C   UNL     1       1.446   2.864  18.252  0.00  0.00    +0.000 A 
ATOM     20  C   UNL     1       1.814   4.109  18.770  0.00  0.00    +0.000 A 
ATOM     21  C   UNL     1       3.156   4.444  18.995  0.00  0.00    +0.000 A 
BRANCH  21  22
ATOM     22  O   UNL     1       3.313   5.744  19.393  0.00  0.00    +0.000 OA
BRANCH  22  23
ATOM     23  C   UNL     1       2.477   6.779  18.867  0.00  0.00    +0.000 C 
ATOM     24  C   UNL     1       2.026   7.707  19.994  0.00  0.00    +0.000 C 
ATOM     25  C   UNL     1       3.337   7.591  17.890  0.00  0.00    +0.000 C 
ENDBRANCH  22  23
ENDBRANCH  21  22
ENDBRANCH  15  16
ENDBRANCH   4  15
TORSDOF 7
ENDMDL
MODEL 2
REMARK VINA RESULT:      -7.4      4.119      7.061
REMARK  Name = 
REMARK  11 active torsions:
REMARK  status: ('A' for Active; 'I' for Inactive)
REMARK    1  A    between atoms: C_1  and  C_2
REMARK    2  A    between atoms: N_4  and  C_5
REMARK    3  A    between atoms: C_5  and  C_6
REMARK    4  A    between atoms: C_5  and  C_7
REMARK    5  A    between atoms: C_8  and  C_9
REMARK    6  A    between atoms: C_12  and  O_13
REMARK    7  A    between atoms: O_13  and  C_14
REMARK    8  A    between atoms: C_19  and  O_20
REMARK    9  A    between atoms: O_20  and  C_21
REMARK   10  A    between atoms: C_21  and  C_22
REMARK   11  A    between atoms: C_21  and  C_23
REMARK                            x       y       z     vdW  Elec       q    Type
REMARK                         _______ _______ _______ _____ _____    ______ ____
ROOT
ATOM      1  C   UNL     1       5.548   4.627  15.685  0.00  0.00    +0.000 A 
ATOM      2  C   UNL     1       6.163   5.700  16.280  0.00  0.00    +0.000 A 
ATOM      3  N   UNL     1       5.984   5.778  17.645  0.00  0.00    +0.000 NA
ATOM      4  C   UNL     1       5.226   4.777  18.045  0.00  0.00    +0.000 A 
ATOM      5  S   UNL     1       4.563   3.805  16.809  0.00  0.00    +0.000 S 
ENDROOT
BRANCH   1   7
ATOM      6  C   UNL     1       5.581   3.681  13.157  0.00  0.00    +0.000 C 
ATOM      7  C   UNL     1       5.640   4.235  14.337  0.00  0.00    +0.000 C 
BRANCH   6   8
ATOM      8  C   UNL     1       5.514   3.037  11.782  0.00  0.00    +0.000 C 
ATOM      9  C   UNL     1       4.264   3.532  11.060  0.00  0.00    +0.000 C 
BRANCH   8  13
ATOM     10  C   UNL     1       6.211  -0.641  11.313  0.00  0.00    +0.000 C 
ATOM     11  C   UNL     1       6.358   0.841  11.108  0.00  0.00    +0.000 C 
ATOM     12  O   UNL     1       7.145   1.312  10.304  0.00  0.00    +0.000 OA
ATOM     13  N   UNL     1       5.531   1.599  11.911  0.00  0.00    +0.000 N 
ATOM     14  H   UNL     1       4.824   1.151  12.473  0.00  0.00    +0.000 HD
ENDBRANCH   8  13
ENDBRANCH   6   8
ENDBRANCH   1   7
BRANCH   4  15
ATOM     15  O   UNL     1       4.999   4.463  19.323  0.00  0.00    +0.000 OA
BRANCH  15  16
ATOM     16  C   UNL     1       3.718   4.242  19.758  0.00  0.00    +0.000 A 
ATOM     17  C   UNL     1       3.303   2.911  19.968  0.00  0.00    +0.000 A 
ATOM     18  C   UNL     1       2.017   2.622  20.403  0.00  0.00    +0.000 A 
ATOM     19  C   UNL     1       1.148   3.666  20.684  0.00  0.00    +0.000 A 
ATOM     20  C   UNL     1       1.559   4.990  20.500  0.00  0.00    +0.000 A 
ATOM     21  C   UNL     1       2.842   5.302  20.030  0.00  0.00    +0.000 A 
BRANCH  21  22
ATOM     22  O   UNL     1       3.009   6.641  19.809  0.00  0.00    +0.000 OA
BRANCH  22  23
ATOM     23  C   UNL     1       2.145   7.350  18.915  0.00  0.00    +0.000 C 
ATOM     24  C   UNL     1       1.577   8.585  19.611  0.00  0.00    +0.000 C 
ATOM     25  C   UNL     1       3.010   7.818  17.737  0.00  0.00    +0.000 C 
ENDBRANCH  22  23
ENDBRANCH  21  22
ENDBRANCH  15  16
ENDBRANCH   4  15
TORSDOF 7
ENDMDL
MODEL 3
REMARK VINA RESULT:      -7.3      4.151      6.272
REMARK  Name = 
REMARK  11 active torsions:
REMARK  status: ('A' for Active; 'I' for Inactive)
REMARK    1  A    between atoms: C_1  and  C_2
REMARK    2  A    between atoms: N_4  and  C_5
REMARK    3  A    between atoms: C_5  and  C_6
REMARK    4  A    between atoms: C_5  and  C_7
REMARK    5  A    between atoms: C_8  and  C_9
REMARK    6  A    between atoms: C_12  and  O_13
REMARK    7  A    between atoms: O_13  and  C_14
REMARK    8  A    between atoms: C_19  and  O_20
REMARK    9  A    between atoms: O_20  and  C_21
REMARK   10  A    between atoms: C_21  and  C_22
REMARK   11  A    between atoms: C_21  and  C_23
REMARK                            x       y       z     vdW  Elec       q    Type
REMARK                         _______ _______ _______ _____ _____    ______ ____
ROOT
ATOM      1  C   UNL     1       6.249   4.414  16.638  0.00  0.00    +0.000 A 
ATOM      2  C   UNL     1       7.027   5.037  17.581  0.00  0.00    +0.000 A 
ATOM      3  N   UNL     1       6.594   4.870  18.880  0.00  0.00    +0.000 NA
ATOM      4  C   UNL     1       5.494   4.145  18.886  0.00  0.00    +0.000 A 
ATOM      5  S   UNL     1       4.841   3.772  17.354  0.00  0.00    +0.000 S 
ENDROOT
BRANCH   1   7
ATOM      6  C   UNL     1       6.533   4.089  13.973  0.00  0.00    +0.000 C 
ATOM      7  C   UNL     1       6.499   4.323  15.256  0.00  0.00    +0.000 C 
BRANCH   6   8
ATOM      8  C   UNL     1       6.574   3.816  12.479  0.00  0.00    +0.000 C 
ATOM      9  C   UNL     1       7.488   4.839  11.810  0.00  0.00    +0.000 C 
BRANCH   8  13
ATOM     10  C   UNL     1       3.339   2.943  10.745  0.00  0.00    +0.000 C 
ATOM     11  C   UNL     1       4.712   2.731  11.319  0.00  0.00    +0.000 C 
ATOM     12  O   UNL     1       5.292   1.661  11.242  0.00  0.00    +0.000 OA
ATOM     13  N   UNL     1       5.237   3.848  11.935  0.00  0.00    +0.000 N 
ATOM     14  H   UNL     1       4.758   4.734  11.868  0.00  0.00    +0.000 HD
ENDBRANCH   8  13
ENDBRANCH   6   8
ENDBRANCH   1   7
BRANCH   4  15
ATOM     15  O   UNL     1       4.914   3.658  19.985  0.00  0.00    +0.000 OA
BRANCH  15  16
ATOM     16  C   UNL     1       3.549   3.692  20.113  0.00  0.00    +0.000 A 
ATOM     17  C   UNL     1       2.875   2.488  20.401  0.00  0.00    +0.000 A 
ATOM     18  C   UNL     1       1.493   2.456  20.537  0.00  0.00    +0.000 A 
ATOM     19  C   UNL     1       0.777   3.640  20.438  0.00  0.00    +0.000 A 
ATOM     20  C   UNL     1       1.441   4.842  20.175  0.00  0.00    +0.000 A 
ATOM     21  C   UNL     1       2.831   4.890  20.002  0.00  0.00    +0.000 A 
BRANCH  21  22
ATOM     22  O   UNL     1       3.272   6.133  19.639  0.00  0.00    +0.000 OA
BRANCH  22  23
ATOM     23  C   UNL     1       2.618   6.870  18.602  0.00  0.00    +0.000 C 
ATOM     24  C   UNL     1       1.999   8.142  19.178  0.00  0.00    +0.000 C 
ATOM     25  C   UNL     1       3.701   7.277  17.594  0.00  0.00    +0.000 C 
ENDBRANCH  22  23
ENDBRANCH  21  22
ENDBRANCH  15  16
ENDBRANCH   4  15
TORSDOF 7
ENDMDL
MODEL 4
REMARK VINA RESULT:      -7.2      4.343      6.262
REMARK  Name = 
REMARK  11 active torsions:
REMARK  status: ('A' for Active; 'I' for Inactive)
REMARK    1  A    between atoms: C_1  and  C_2
REMARK    2  A    between atoms: N_4  and  C_5
REMARK    3  A    between atoms: C_5  and  C_6
REMARK    4  A    between atoms: C_5  and  C_7
REMARK    5  A    between atoms: C_8  and  C_9
REMARK    6  A    between atoms: C_12  and  O_13
REMARK    7  A    between atoms: O_13  and  C_14
REMARK    8  A    between atoms: C_19  and  O_20
REMARK    9  A    between atoms: O_20  and  C_21
REMARK   10  A    between atoms: C_21  and  C_22
REMARK   11  A    between atoms: C_21  and  C_23
REMARK                            x       y       z     vdW  Elec       q    Type
REMARK                         _______ _______ _______ _____ _____    ______ ____
ROOT
ATOM      1  C   UNL     1       6.167   4.865  16.745  0.00  0.00    +0.000 A 
ATOM      2  C   UNL     1       7.059   4.632  17.761  0.00  0.00    +0.000 A 
ATOM      3  N   UNL     1       6.540   4.797  19.028  0.00  0.00    +0.000 NA
ATOM      4  C   UNL     1       5.278   5.169  18.939  0.00  0.00    +0.000 A 
ATOM      5  S   UNL     1       4.707   5.494  17.364  0.00  0.00    +0.000 S 
ENDROOT
BRANCH   1   7
ATOM      6  C   UNL     1       6.460   4.282  14.126  0.00  0.00    +0.000 C 
ATOM      7  C   UNL     1       6.380   4.674  15.367  0.00  0.00    +0.000 C 
BRANCH   6   8
ATOM      8  C   UNL     1       6.555   3.825  12.679  0.00  0.00    +0.000 C 
ATOM      9  C   UNL     1       7.537   4.727  11.935  0.00  0.00    +0.000 C 
BRANCH   8  13
ATOM     10  C   UNL     1       3.441   2.916  10.754  0.00  0.00    +0.000 C 
ATOM     11  C   UNL     1       4.793   2.727  11.386  0.00  0.00    +0.000 C 
ATOM     12  O   UNL     1       5.414   1.682  11.293  0.00  0.00    +0.000 OA
ATOM     13  N   UNL     1       5.246   3.835  12.073  0.00  0.00    +0.000 N 
ATOM     14  H   UNL     1       4.738   4.705  12.018  0.00  0.00    +0.000 HD
ENDBRANCH   8  13
ENDBRANCH   6   8
ENDBRANCH   1   7
BRANCH   4  15
ATOM     15  O   UNL     1       4.439   5.250  19.974  0.00  0.00    +0.000 OA
BRANCH  15  16
ATOM     16  C   UNL     1       3.288   4.503  19.983  0.00  0.00    +0.000 A 
ATOM     17  C   UNL     1       3.376   3.135  19.655  0.00  0.00    +0.000 A 
ATOM     18  C   UNL     1       2.247   2.327  19.642  0.00  0.00    +0.000 A 
ATOM     19  C   UNL     1       1.024   2.870  20.010  0.00  0.00    +0.000 A 
ATOM     20  C   UNL     1       0.933   4.220  20.360  0.00  0.00    +0.000 A 
ATOM     21  C   UNL     1       2.055   5.060  20.347  0.00  0.00    +0.000 A 
BRANCH  21  22
ATOM     22  O   UNL     1       1.737   6.365  20.606  0.00  0.00    +0.000 OA
BRANCH  22  23
ATOM     23  C   UNL     1       2.188   7.415  19.745  0.00  0.00    +0.000 C 
ATOM     24  C   UNL     1       1.774   7.122  18.305  0.00  0.00    +0.000 C 
ATOM     25  C   UNL     1       1.477   8.698  20.198  0.00  0.00    +0.000 C 
ENDBRANCH  22  23
ENDBRANCH  21  22
ENDBRANCH  15  16
ENDBRANCH   4  15
TORSDOF 7
ENDMDL
MODEL 5
REMARK VINA RESULT:      -7.2      4.270      7.027
REMARK  Name = 
REMARK  11 active torsions:
REMARK  status: ('A' for Active; 'I' for Inactive)
REMARK    1  A    between atoms: C_1  and  C_2
REMARK    2  A    between atoms: N_4  and  C_5
REMARK    3  A    between atoms: C_5  and  C_6
REMARK    4  A    between atoms: C_5  and  C_7
REMARK    5  A    between atoms: C_8  and  C_9
REMARK    6  A    between atoms: C_12  and  O_13
REMARK    7  A    between atoms: O_13  and  C_14
REMARK    8  A    between atoms: C_19  and  O_20
REMARK    9  A    between atoms: O_20  and  C_21
REMARK   10  A    between atoms: C_21  and  C_22
REMARK   11  A    between atoms: C_21  and  C_23
REMARK                            x       y       z     vdW  Elec       q    Type
REMARK                         _______ _______ _______ _____ _____    ______ ____
ROOT
ATOM      1  C   UNL     1       5.894   4.563  15.569  0.00  0.00    +0.000 A 
ATOM      2  C   UNL     1       6.984   4.337  16.371  0.00  0.00    +0.000 A 
ATOM      3  N   UNL     1       6.784   4.628  17.704  0.00  0.00    +0.000 NA
ATOM      4  C   UNL     1       5.560   5.085  17.874  0.00  0.00    +0.000 A 
ATOM      5  S   UNL     1       4.657   5.340  16.449  0.00  0.00    +0.000 S 
ENDROOT
BRANCH   1   7
ATOM      6  C   UNL     1       5.600   3.753  13.011  0.00  0.00    +0.000 C 
ATOM      7  C   UNL     1       5.770   4.261  14.200  0.00  0.00    +0.000 C 
BRANCH   6   8
ATOM      8  C   UNL     1       5.403   3.160  11.625  0.00  0.00    +0.000 C 
ATOM      9  C   UNL     1       4.120   3.723  11.020  0.00  0.00    +0.000 C 
BRANCH   8  13
ATOM     10  C   UNL     1       6.255  -0.504  11.349  0.00  0.00    +0.000 C 
ATOM     11  C   UNL     1       6.460   0.983  11.265  0.00  0.00    +0.000 C 
ATOM     12  O   UNL     1       7.495   1.475  10.850  0.00  0.00    +0.000 OA
ATOM     13  N   UNL     1       5.378   1.720  11.704  0.00  0.00    +0.000 N 
ATOM     14  H   UNL     1       4.511   1.257  11.929  0.00  0.00    +0.000 HD
ENDBRANCH   8  13
ENDBRANCH   6   8
ENDBRANCH   1   7
BRANCH   4  15
ATOM     15  O   UNL     1       4.990   5.300  19.062  0.00  0.00    +0.000 OA
BRANCH  15  16
ATOM     16  C   UNL     1       3.925   4.533  19.460  0.00  0.00    +0.000 A 
ATOM     17  C   UNL     1       4.186   3.270  20.029  0.00  0.00    +0.000 A 
ATOM     18  C   UNL     1       3.150   2.445  20.448  0.00  0.00    +0.000 A 
ATOM     19  C   UNL     1       1.843   2.900  20.349  0.00  0.00    +0.000 A 
ATOM     20  C   UNL     1       1.578   4.161  19.807  0.00  0.00    +0.000 A 
ATOM     21  C   UNL     1       2.607   4.995  19.349  0.00  0.00    +0.000 A 
BRANCH  21  22
ATOM     22  O   UNL     1       2.134   6.131  18.751  0.00  0.00    +0.000 OA
BRANCH  22  23
ATOM     23  C   UNL     1       2.538   7.424  19.210  0.00  0.00    +0.000 C 
ATOM     24  C   UNL     1       2.232   8.474  18.143  0.00  0.00    +0.000 C 
ATOM     25  C   UNL     1       1.691   7.740  20.450  0.00  0.00    +0.000 C 
ENDBRANCH  22  23
ENDBRANCH  21  22
ENDBRANCH  15  16
ENDBRANCH   4  15
TORSDOF 7
ENDMDL
MODEL 6
REMARK VINA RESULT:      -7.2      1.233      1.251
REMARK  Name = 
REMARK  11 active torsions:
REMARK  status: ('A' for Active; 'I' for Inactive)
REMARK    1  A    between atoms: C_1  and  C_2
REMARK    2  A    between atoms: N_4  and  C_5
REMARK    3  A    between atoms: C_5  and  C_6
REMARK    4  A    between atoms: C_5  and  C_7
REMARK    5  A    between atoms: C_8  and  C_9
REMARK    6  A    between atoms: C_12  and  O_13
REMARK    7  A    between atoms: O_13  and  C_14
REMARK    8  A    between atoms: C_19  and  O_20
REMARK    9  A    between atoms: O_20  and  C_21
REMARK   10  A    between atoms: C_21  and  C_22
REMARK   11  A    between atoms: C_21  and  C_23
REMARK                            x       y       z     vdW  Elec       q    Type
REMARK                         _______ _______ _______ _____ _____    ______ ____
ROOT
ATOM      1  C   UNL     1       7.458   7.185  18.170  0.00  0.00    +0.000 A 
ATOM      2  C   UNL     1       6.520   6.949  17.198  0.00  0.00    +0.000 A 
ATOM      3  N   UNL     1       5.782   5.798  17.382  0.00  0.00    +0.000 NA
ATOM      4  C   UNL     1       6.193   5.184  18.473  0.00  0.00    +0.000 A 
ATOM      5  S   UNL     1       7.568   5.854  19.230  0.00  0.00    +0.000 S 
ENDROOT
BRANCH   1   7
ATOM      6  C   UNL     1       8.986   9.355  18.667  0.00  0.00    +0.000 C 
ATOM      7  C   UNL     1       8.277   8.322  18.302  0.00  0.00    +0.000 C 
BRANCH   6   8
ATOM      8  C   UNL     1       9.810  10.559  19.091  0.00  0.00    +0.000 C 
ATOM      9  C   UNL     1       9.152  11.212  20.304  0.00  0.00    +0.000 C 
BRANCH   8  13
ATOM     10  C   UNL     1      11.074  13.151  16.659  0.00  0.00    +0.000 C 
ATOM     11  C   UNL     1      11.115  12.185  17.810  0.00  0.00    +0.000 C 
ATOM     12  O   UNL     1      12.104  12.048  18.510  0.00  0.00    +0.000 OA
ATOM     13  N   UNL     1       9.943  11.479  17.987  0.00  0.00    +0.000 N 
ATOM     14  H   UNL     1       9.124  11.717  17.448  0.00  0.00    +0.000 HD
ENDBRANCH   8  13
ENDBRANCH   6   8
ENDBRANCH   1   7
BRANCH   4  15
ATOM     15  O   UNL     1       5.581   4.136  19.028  0.00  0.00    +0.000 OA
BRANCH  15  16
ATOM     16  C   UNL     1       4.292   3.829  18.675  0.00  0.00    +0.000 A 
ATOM     17  C   UNL     1       4.052   2.605  18.017  0.00  0.00    +0.000 A 
ATOM     18  C   UNL     1       2.770   2.240  17.630  0.00  0.00    +0.000 A 
ATOM     19  C   UNL     1       1.705   3.073  17.945  0.00  0.00    +0.000 A 
ATOM     20  C   UNL     1       1.933   4.277  18.618  0.00  0.00    +0.000 A 
ATOM     21  C   UNL     1       3.223   4.679  18.988  0.00  0.00    +0.000 A 
BRANCH  21  22
ATOM     22  O   UNL     1       3.246   5.935  19.530  0.00  0.00    +0.000 OA
BRANCH  22  23
ATOM     23  C   UNL     1       2.258   6.907  19.172  0.00  0.00    +0.000 C 
ATOM     24  C   UNL     1       1.901   7.758  20.389  0.00  0.00    +0.000 C 
ATOM     25  C   UNL     1       2.896   7.821  18.117  0.00  0.00    +0.000 C 
ENDBRANCH  22  23
ENDBRANCH  21  22
ENDBRANCH  15  16
ENDBRANCH   4  15
TORSDOF 7
ENDMDL
MODEL 7
REMARK VINA RESULT:      -7.1      4.299      7.048
REMARK  Name = 
REMARK  11 active torsions:
REMARK  status: ('A' for Active; 'I' for Inactive)
REMARK    1  A    between atoms: C_1  and  C_2
REMARK    2  A    between atoms: N_4  and  C_5
REMARK    3  A    between atoms: C_5  and  C_6
REMARK    4  A    between atoms: C_5  and  C_7
REMARK    5  A    between atoms: C_8  and  C_9
REMARK    6  A    between atoms: C_12  and  O_13
REMARK    7  A    between atoms: O_13  and  C_14
REMARK    8  A    between atoms: C_19  and  O_20
REMARK    9  A    between atoms: O_20  and  C_21
REMARK   10  A    between atoms: C_21  and  C_22
REMARK   11  A    between atoms: C_21  and  C_23
REMARK                            x       y       z     vdW  Elec       q    Type
REMARK                         _______ _______ _______ _____ _____    ______ ____
ROOT
ATOM      1  C   UNL     1       1.444   9.032  18.801  0.00  0.00    +0.000 A 
ATOM      2  C   UNL     1       2.254   8.550  17.803  0.00  0.00    +0.000 A 
ATOM      3  N   UNL     1       2.910   7.377  18.116  0.00  0.00    +0.000 NA
ATOM      4  C   UNL     1       2.598   7.015  19.344  0.00  0.00    +0.000 A 
ATOM      5  S   UNL     1       1.651   8.125  20.229  0.00  0.00    +0.000 S 
ENDROOT
BRANCH   1   7
ATOM      6  C   UNL     1      -0.358  11.022  18.518  0.00  0.00    +0.000 C 
ATOM      7  C   UNL     1       0.580  10.141  18.731  0.00  0.00    +0.000 C 
BRANCH   6   8
ATOM      8  C   UNL     1      -1.449  12.051  18.268  0.00  0.00    +0.000 C 
ATOM      9  C   UNL     1      -2.522  11.910  19.345  0.00  0.00    +0.000 C 
BRANCH   8  13
ATOM     10  C   UNL     1      -3.009  10.639  15.137  0.00  0.00    +0.000 C 
ATOM     11  C   UNL     1      -2.554  10.680  16.570  0.00  0.00    +0.000 C 
ATOM     12  O   UNL     1      -2.685   9.729  17.321  0.00  0.00    +0.000 OA
ATOM     13  N   UNL     1      -1.989  11.883  16.941  0.00  0.00    +0.000 N 
ATOM     14  H   UNL     1      -1.806  12.591  16.245  0.00  0.00    +0.000 HD
ENDBRANCH   8  13
ENDBRANCH   6   8
ENDBRANCH   1   7
BRANCH   4  15
ATOM     15  O   UNL     1       2.926   5.844  19.894  0.00  0.00    +0.000 OA
BRANCH  15  16
ATOM     16  C   UNL     1       2.779   4.684  19.176  0.00  0.00    +0.000 A 
ATOM     17  C   UNL     1       1.521   4.048  19.184  0.00  0.00    +0.000 A 
ATOM     18  C   UNL     1       1.310   2.869  18.481  0.00  0.00    +0.000 A 
ATOM     19  C   UNL     1       2.344   2.342  17.720  0.00  0.00    +0.000 A 
ATOM     20  C   UNL     1       3.588   2.980  17.690  0.00  0.00    +0.000 A 
ATOM     21  C   UNL     1       3.830   4.152  18.418  0.00  0.00    +0.000 A 
BRANCH  21  22
ATOM     22  O   UNL     1       5.137   4.553  18.348  0.00  0.00    +0.000 OA
BRANCH  22  23
ATOM     23  C   UNL     1       5.837   4.559  17.101  0.00  0.00    +0.000 C 
ATOM     24  C   UNL     1       5.451   5.797  16.294  0.00  0.00    +0.000 C 
ATOM     25  C   UNL     1       7.333   4.647  17.430  0.00  0.00    +0.000 C 
ENDBRANCH  22  23
ENDBRANCH  21  22
ENDBRANCH  15  16
ENDBRANCH   4  15
TORSDOF 7
ENDMDL
MODEL 8
REMARK VINA RESULT:      -6.9      1.124      1.309
REMARK  Name = 
REMARK  11 active torsions:
REMARK  status: ('A' for Active; 'I' for Inactive)
REMARK    1  A    between atoms: C_1  and  C_2
REMARK    2  A    between atoms: N_4  and  C_5
REMARK    3  A    between atoms: C_5  and  C_6
REMARK    4  A    between atoms: C_5  and  C_7
REMARK    5  A    between atoms: C_8  and  C_9
REMARK    6  A    between atoms: C_12  and  O_13
REMARK    7  A    between atoms: O_13  and  C_14
REMARK    8  A    between atoms: C_19  and  O_20
REMARK    9  A    between atoms: O_20  and  C_21
REMARK   10  A    between atoms: C_21  and  C_22
REMARK   11  A    between atoms: C_21  and  C_23
REMARK                            x       y       z     vdW  Elec       q    Type
REMARK                         _______ _______ _______ _____ _____    ______ ____
ROOT
ATOM      1  C   UNL     1       7.205   6.820  18.008  0.00  0.00    +0.000 A 
ATOM      2  C   UNL     1       7.436   5.594  18.579  0.00  0.00    +0.000 A 
ATOM      3  N   UNL     1       6.520   4.621  18.236  0.00  0.00    +0.000 NA
ATOM      4  C   UNL     1       5.612   5.138  17.434  0.00  0.00    +0.000 A 
ATOM      5  S   UNL     1       5.711   6.823  17.185  0.00  0.00    +0.000 S 
ENDROOT
BRANCH   1   7
ATOM      6  C   UNL     1       8.567   9.147  18.138  0.00  0.00    +0.000 C 
ATOM      7  C   UNL     1       8.022   7.963  18.090  0.00  0.00    +0.000 C 
BRANCH   6   8
ATOM      8  C   UNL     1       9.202  10.527  18.193  0.00  0.00    +0.000 C 
ATOM      9  C   UNL     1       9.893  10.705  19.542  0.00  0.00    +0.000 C 
BRANCH   8  13
ATOM     10  C   UNL     1       7.427  13.772  17.453  0.00  0.00    +0.000 C 
ATOM     11  C   UNL     1       8.578  12.815  17.591  0.00  0.00    +0.000 C 
ATOM     12  O   UNL     1       9.732  13.151  17.389  0.00  0.00    +0.000 OA
ATOM     13  N   UNL     1       8.201  11.539  17.959  0.00  0.00    +0.000 N 
ATOM     14  H   UNL     1       7.245  11.352  18.222  0.00  0.00    +0.000 HD
ENDBRANCH   8  13
ENDBRANCH   6   8
ENDBRANCH   1   7
BRANCH   4  15
ATOM     15  O   UNL     1       4.685   4.430  16.785  0.00  0.00    +0.000 OA
BRANCH  15  16
ATOM     16  C   UNL     1       3.727   3.746  17.490  0.00  0.00    +0.000 A 
ATOM     17  C   UNL     1       3.919   2.367  17.711  0.00  0.00    +0.000 A 
ATOM     18  C   UNL     1       2.984   1.618  18.413  0.00  0.00    +0.000 A 
ATOM     19  C   UNL     1       1.871   2.253  18.947  0.00  0.00    +0.000 A 
ATOM     20  C   UNL     1       1.687   3.625  18.751  0.00  0.00    +0.000 A 
ATOM     21  C   UNL     1       2.602   4.392  18.017  0.00  0.00    +0.000 A 
BRANCH  21  22
ATOM     22  O   UNL     1       2.183   5.683  17.842  0.00  0.00    +0.000 OA
BRANCH  22  23
ATOM     23  C   UNL     1       2.691   6.738  18.664  0.00  0.00    +0.000 C 
ATOM     24  C   UNL     1       2.254   8.090  18.105  0.00  0.00    +0.000 C 
ATOM     25  C   UNL     1       2.059   6.564  20.052  0.00  0.00    +0.000 C 
ENDBRANCH  22  23
ENDBRANCH  21  22
ENDBRANCH  15  16
ENDBRANCH   4  15
TORSDOF 7
ENDMDL
MODEL 9
REMARK VINA RESULT:      -6.8      1.602      1.750
REMARK  Name = 
REMARK  11 active torsions:
REMARK  status: ('A' for Active; 'I' for Inactive)
REMARK    1  A    between atoms: C_1  and  C_2
REMARK    2  A    between atoms: N_4  and  C_5
REMARK    3  A    between atoms: C_5  and  C_6
REMARK    4  A    between atoms: C_5  and  C_7
REMARK    5  A    between atoms: C_8  and  C_9
REMARK    6  A    between atoms: C_12  and  O_13
REMARK    7  A    between atoms: O_13  and  C_14
REMARK    8  A    between atoms: C_19  and  O_20
REMARK    9  A    between atoms: O_20  and  C_21
REMARK   10  A    between atoms: C_21  and  C_22
REMARK   11  A    between atoms: C_21  and  C_23
REMARK                            x       y       z     vdW  Elec       q    Type
REMARK                         _______ _______ _______ _____ _____    ______ ____
ROOT
ATOM      1  C   UNL     1       7.275   7.093  17.937  0.00  0.00    +0.000 A 
ATOM      2  C   UNL     1       7.555   5.799  18.298  0.00  0.00    +0.000 A 
ATOM      3  N   UNL     1       6.615   4.875  17.893  0.00  0.00    +0.000 NA
ATOM      4  C   UNL     1       5.641   5.492  17.255  0.00  0.00    +0.000 A 
ATOM      5  S   UNL     1       5.716   7.197  17.252  0.00  0.00    +0.000 S 
ENDROOT
BRANCH   1   7
ATOM      6  C   UNL     1       8.862   9.196  18.525  0.00  0.00    +0.000 C 
ATOM      7  C   UNL     1       8.095   8.222  18.119  0.00  0.00    +0.000 C 
BRANCH   6   8
ATOM      8  C   UNL     1       9.755  10.331  18.998  0.00  0.00    +0.000 C 
ATOM      9  C   UNL     1       9.191  10.900  20.298  0.00  0.00    +0.000 C 
BRANCH   8  13
ATOM     10  C   UNL     1      10.971  13.091  16.732  0.00  0.00    +0.000 C 
ATOM     11  C   UNL     1      11.040  12.032  17.797  0.00  0.00    +0.000 C 
ATOM     12  O   UNL     1      12.055  11.818  18.438  0.00  0.00    +0.000 OA
ATOM     13  N   UNL     1       9.860  11.336  17.968  0.00  0.00    +0.000 N 
ATOM     14  H   UNL     1       9.024  11.635  17.489  0.00  0.00    +0.000 HD
ENDBRANCH   8  13
ENDBRANCH   6   8
ENDBRANCH   1   7
BRANCH   4  15
ATOM     15  O   UNL     1       4.663   4.875  16.589  0.00  0.00    +0.000 OA
BRANCH  15  16
ATOM     16  C   UNL     1       3.747   4.111  17.267  0.00  0.00    +0.000 A 
ATOM     17  C   UNL     1       3.994   2.729  17.396  0.00  0.00    +0.000 A 
ATOM     18  C   UNL     1       3.103   1.902  18.066  0.00  0.00    +0.000 A 
ATOM     19  C   UNL     1       1.980   2.460  18.661  0.00  0.00    +0.000 A 
ATOM     20  C   UNL     1       1.741   3.833  18.557  0.00  0.00    +0.000 A 
ATOM     21  C   UNL     1       2.611   4.680  17.857  0.00  0.00    +0.000 A 
BRANCH  21  22
ATOM     22  O   UNL     1       2.141   5.962  17.773  0.00  0.00    +0.000 OA
BRANCH  22  23
ATOM     23  C   UNL     1       2.657   6.990  18.624  0.00  0.00    +0.000 C 
ATOM     24  C   UNL     1       2.185   8.357  18.133  0.00  0.00    +0.000 C 
ATOM     25  C   UNL     1       2.067   6.750  20.020  0.00  0.00    +0.000 C 
ENDBRANCH  22  23
ENDBRANCH  21  22
ENDBRANCH  15  16
ENDBRANCH   4  15
TORSDOF 7
ENDMDL
