MODEL 1
REMARK VINA RESULT:      -7.9      0.000      0.000
REMARK  Name = 
REMARK  10 active torsions:
REMARK  status: ('A' for Active; 'I' for Inactive)
REMARK    1  A    between atoms: C_1  and  O_2
REMARK    2  A    between atoms: O_2  and  C_3
REMARK    3  A    between atoms: C_5  and  C_6
REMARK    4  A    between atoms: C_6  and  C_7
REMARK    5  A    between atoms: N_9  and  C_10
REMARK    6  A    between atoms: C_13  and  N_14
REMARK    7  A    between atoms: C_28  and  O_29
REMARK    8  A    between atoms: O_29  and  C_30
REMARK    9  A    between atoms: C_31  and  O_32
REMARK   10  A    between atoms: O_32  and  C_33
REMARK                            x       y       z     vdW  Elec       q    Type
REMARK                         _______ _______ _______ _____ _____    ______ ____
ROOT
ATOM      1  C   UNL     1       0.964   9.487  20.665  0.00  0.00    +0.000 A 
ATOM      2  N   UNL     1       1.020   9.575  19.361  0.00  0.00    +0.000 NA
ATOM      3  N   UNL     1       0.620  10.819  18.859  0.00  0.00    +0.000 N 
ATOM      4  C   UNL     1       1.278  11.867  19.534  0.00  0.00    +0.000 A 
ATOM      5  O   UNL     1       2.164  12.592  19.106  0.00  0.00    +0.000 OA
ATOM      6  C   UNL     1       0.886  11.922  20.958  0.00  0.00    +0.000 A 
ATOM      7  C   UNL     1       0.484  13.185  21.416  0.00  0.00    +0.000 A 
ATOM      8  C   UNL     1      -0.633  13.252  22.225  0.00  0.00    +0.000 A 
ATOM      9  C   UNL     1      -1.283  12.056  22.570  0.00  0.00    +0.000 A 
ATOM     10  C   UNL     1      -0.744  10.778  22.226  0.00  0.00    +0.000 A 
ATOM     11  C   UNL     1       0.428  10.692  21.465  0.00  0.00    +0.000 A 
ENDROOT
BRANCH   3  12
ATOM     12  C   UNL     1      -0.834  10.802  18.659  0.00  0.00    +0.000 A 
ATOM     13  C   UNL     1      -1.558   9.699  18.169  0.00  0.00    +0.000 A 
ATOM     14  C   UNL     1      -2.924   9.819  17.852  0.00  0.00    +0.000 A 
ATOM     15  C   UNL     1      -3.585  11.033  18.055  0.00  0.00    +0.000 A 
ATOM     16  C   UNL     1      -2.901  12.130  18.578  0.00  0.00    +0.000 A 
ATOM     17  C   UNL     1      -1.547  11.999  18.882  0.00  0.00    +0.000 A 
BRANCH  15  18
ATOM     18  N   UNL     1      -5.010  11.190  17.726  0.00  0.00    +0.000 N 
ATOM     19  O   UNL     1      -5.283  11.944  16.783  0.00  0.00    +0.000 OA
ATOM     20  O   UNL     1      -5.831  10.566  18.400  0.00  0.00    +0.000 OA
ENDBRANCH  15  18
ENDBRANCH   3  12
BRANCH   1  21
ATOM     21  C   UNL     1       1.480   8.163  21.273  0.00  0.00    +0.000 C 
BRANCH  21  24
ATOM     22  C   UNL     1       2.985   6.033  18.344  0.00  0.00    +0.000 A 
ATOM     23  C   UNL     1       2.619   7.136  19.177  0.00  0.00    +0.000 A 
ATOM     24  C   UNL     1       1.774   6.999  20.287  0.00  0.00    +0.000 A 
ATOM     25  C   UNL     1       1.245   5.712  20.493  0.00  0.00    +0.000 A 
ATOM     26  C   UNL     1       1.617   4.591  19.694  0.00  0.00    +0.000 A 
ATOM     27  C   UNL     1       2.507   4.733  18.612  0.00  0.00    +0.000 A 
BRANCH  22  29
ATOM     28  C   UNL     1       5.188   6.342  17.482  0.00  0.00    +0.000 C 
ATOM     29  O   UNL     1       3.785   6.205  17.244  0.00  0.00    +0.000 OA
ENDBRANCH  22  29
BRANCH  26  30
ATOM     30  O   UNL     1       0.982   3.421  20.071  0.00  0.00    +0.000 OA
ATOM     31  C   UNL     1       1.373   2.824  21.312  0.00  0.00    +0.000 C 
ENDBRANCH  26  30
BRANCH  27  32
ATOM     32  O   UNL     1       2.787   3.582  17.937  0.00  0.00    +0.000 OA
ATOM     33  C   UNL     1       3.839   2.673  18.206  0.00  0.00    +0.000 C 
ENDBRANCH  27  32
ENDBRANCH  21  24
ENDBRANCH   1  21
TORSDOF 7
ENDMDL
MODEL 2
REMARK VINA RESULT:      -7.8      0.342      2.234
REMARK  Name = 
REMARK  10 active torsions:
REMARK  status: ('A' for Active; 'I' for Inactive)
REMARK    1  A    between atoms: C_1  and  O_2
REMARK    2  A    between atoms: O_2  and  C_3
REMARK    3  A    between atoms: C_5  and  C_6
REMARK    4  A    between atoms: C_6  and  C_7
REMARK    5  A    between atoms: N_9  and  C_10
REMARK    6  A    between atoms: C_13  and  N_14
REMARK    7  A    between atoms: C_28  and  O_29
REMARK    8  A    between atoms: O_29  and  C_30
REMARK    9  A    between atoms: C_31  and  O_32
REMARK   10  A    between atoms: O_32  and  C_33
REMARK                            x       y       z     vdW  Elec       q    Type
REMARK                         _______ _______ _______ _____ _____    ______ ____
ROOT
ATOM      1  C   UNL     1       0.954   9.425  20.509  0.00  0.00    +0.000 A 
ATOM      2  N   UNL     1       0.957   9.414  19.202  0.00  0.00    +0.000 NA
ATOM      3  N   UNL     1       0.611  10.642  18.624  0.00  0.00    +0.000 N 
ATOM      4  C   UNL     1       1.361  11.693  19.191  0.00  0.00    +0.000 A 
ATOM      5  O   UNL     1       2.270  12.326  18.675  0.00  0.00    +0.000 OA
ATOM      6  C   UNL     1       1.037  11.875  20.621  0.00  0.00    +0.000 A 
ATOM      7  C   UNL     1       0.733  13.192  20.999  0.00  0.00    +0.000 A 
ATOM      8  C   UNL     1      -0.341  13.389  21.843  0.00  0.00    +0.000 A 
ATOM      9  C   UNL     1      -1.047  12.266  22.303  0.00  0.00    +0.000 A 
ATOM     10  C   UNL     1      -0.602  10.934  22.035  0.00  0.00    +0.000 A 
ATOM     11  C   UNL     1       0.528  10.718  21.238  0.00  0.00    +0.000 A 
ENDROOT
BRANCH   3  12
ATOM     12  C   UNL     1      -0.848  10.704  18.483  0.00  0.00    +0.000 A 
ATOM     13  C   UNL     1      -1.660   9.615  18.113  0.00  0.00    +0.000 A 
ATOM     14  C   UNL     1      -3.028   9.798  17.842  0.00  0.00    +0.000 A 
ATOM     15  C   UNL     1      -3.604  11.064  17.972  0.00  0.00    +0.000 A 
ATOM     16  C   UNL     1      -2.831  12.152  18.376  0.00  0.00    +0.000 A 
ATOM     17  C   UNL     1      -1.475  11.958  18.636  0.00  0.00    +0.000 A 
BRANCH  15  18
ATOM     18  N   UNL     1      -5.030  11.287  17.687  0.00  0.00    +0.000 N 
ATOM     19  O   UNL     1      -5.840  10.654  18.376  0.00  0.00    +0.000 OA
ATOM     20  O   UNL     1      -5.322  12.083  16.793  0.00  0.00    +0.000 OA
ENDBRANCH  15  18
ENDBRANCH   3  12
BRANCH   1  21
ATOM     21  C   UNL     1       1.414   8.119  21.195  0.00  0.00    +0.000 C 
BRANCH  21  24
ATOM     22  C   UNL     1       1.739   4.598  19.499  0.00  0.00    +0.000 A 
ATOM     23  C   UNL     1       1.418   5.638  20.425  0.00  0.00    +0.000 A 
ATOM     24  C   UNL     1       1.867   6.957  20.269  0.00  0.00    +0.000 A 
ATOM     25  C   UNL     1       2.720   7.183  19.173  0.00  0.00    +0.000 A 
ATOM     26  C   UNL     1       3.032   6.169  18.220  0.00  0.00    +0.000 A 
ATOM     27  C   UNL     1       2.533   4.860  18.361  0.00  0.00    +0.000 A 
BRANCH  22  29
ATOM     28  C   UNL     1       1.592   2.731  20.976  0.00  0.00    +0.000 C 
ATOM     29  O   UNL     1       1.315   3.310  19.698  0.00  0.00    +0.000 OA
ENDBRANCH  22  29
BRANCH  26  30
ATOM     30  O   UNL     1       3.885   6.606  17.221  0.00  0.00    +0.000 OA
ATOM     31  C   UNL     1       5.293   6.504  17.460  0.00  0.00    +0.000 C 
ENDBRANCH  26  30
BRANCH  27  32
ATOM     32  O   UNL     1       2.898   3.990  17.377  0.00  0.00    +0.000 OA
ATOM     33  C   UNL     1       3.924   3.016  17.441  0.00  0.00    +0.000 C 
ENDBRANCH  27  32
ENDBRANCH  21  24
ENDBRANCH   1  21
TORSDOF 7
ENDMDL
MODEL 3
REMARK VINA RESULT:      -7.8      1.113      1.495
REMARK  Name = 
REMARK  10 active torsions:
REMARK  status: ('A' for Active; 'I' for Inactive)
REMARK    1  A    between atoms: C_1  and  O_2
REMARK    2  A    between atoms: O_2  and  C_3
REMARK    3  A    between atoms: C_5  and  C_6
REMARK    4  A    between atoms: C_6  and  C_7
REMARK    5  A    between atoms: N_9  and  C_10
REMARK    6  A    between atoms: C_13  and  N_14
REMARK    7  A    between atoms: C_28  and  O_29
REMARK    8  A    between atoms: O_29  and  C_30
REMARK    9  A    between atoms: C_31  and  O_32
REMARK   10  A    between atoms: O_32  and  C_33
REMARK                            x       y       z     vdW  Elec       q    Type
REMARK                         _______ _______ _______ _____ _____    ______ ____
ROOT
ATOM      1  C   UNL     1       1.153   9.068  19.854  0.00  0.00    +0.000 A 
ATOM      2  N   UNL     1       1.085   9.347  18.578  0.00  0.00    +0.000 NA
ATOM      3  N   UNL     1       0.636  10.645  18.305  0.00  0.00    +0.000 N 
ATOM      4  C   UNL     1       1.352  11.594  19.063  0.00  0.00    +0.000 A 
ATOM      5  O   UNL     1       2.192  12.388  18.666  0.00  0.00    +0.000 OA
ATOM      6  C   UNL     1       1.097  11.432  20.509  0.00  0.00    +0.000 A 
ATOM      7  C   UNL     1       0.736  12.608  21.185  0.00  0.00    +0.000 A 
ATOM      8  C   UNL     1      -0.300  12.537  22.094  0.00  0.00    +0.000 A 
ATOM      9  C   UNL     1      -0.912  11.293  22.318  0.00  0.00    +0.000 A 
ATOM     10  C   UNL     1      -0.404  10.088  21.740  0.00  0.00    +0.000 A 
ATOM     11  C   UNL     1       0.692  10.134  20.870  0.00  0.00    +0.000 A 
ENDROOT
BRANCH   3  12
ATOM     12  C   UNL     1      -0.830  10.634  18.240  0.00  0.00    +0.000 A 
ATOM     13  C   UNL     1      -1.594   9.596  17.675  0.00  0.00    +0.000 A 
ATOM     14  C   UNL     1      -2.984   9.737  17.506  0.00  0.00    +0.000 A 
ATOM     15  C   UNL     1      -3.626  10.903  17.932  0.00  0.00    +0.000 A 
ATOM     16  C   UNL     1      -2.898  11.930  18.532  0.00  0.00    +0.000 A 
ATOM     17  C   UNL     1      -1.521  11.780  18.688  0.00  0.00    +0.000 A 
BRANCH  15  18
ATOM     18  N   UNL     1      -5.076  11.082  17.760  0.00  0.00    +0.000 N 
ATOM     19  O   UNL     1      -5.811  10.385  18.472  0.00  0.00    +0.000 OA
ATOM     20  O   UNL     1      -5.461  11.907  16.930  0.00  0.00    +0.000 OA
ENDBRANCH  15  18
ENDBRANCH   3  12
BRANCH   1  21
ATOM     21  C   UNL     1       1.727   7.678  20.210  0.00  0.00    +0.000 C 
BRANCH  21  24
ATOM     22  C   UNL     1       4.245   6.550  17.423  0.00  0.00    +0.000 A 
ATOM     23  C   UNL     1       3.548   7.341  18.389  0.00  0.00    +0.000 A 
ATOM     24  C   UNL     1       2.409   6.881  19.064  0.00  0.00    +0.000 A 
ATOM     25  C   UNL     1       1.946   5.610  18.679  0.00  0.00    +0.000 A 
ATOM     26  C   UNL     1       2.638   4.791  17.739  0.00  0.00    +0.000 A 
ATOM     27  C   UNL     1       3.811   5.246  17.105  0.00  0.00    +0.000 A 
BRANCH  22  29
ATOM     28  C   UNL     1       6.575   7.061  17.464  0.00  0.00    +0.000 C 
ATOM     29  O   UNL     1       5.335   7.041  16.752  0.00  0.00    +0.000 OA
ENDBRANCH  22  29
BRANCH  26  30
ATOM     30  O   UNL     1       2.012   3.579  17.508  0.00  0.00    +0.000 OA
ATOM     31  C   UNL     1       2.244   2.523  18.447  0.00  0.00    +0.000 C 
ENDBRANCH  26  30
BRANCH  27  32
ATOM     32  O   UNL     1       4.380   4.362  16.236  0.00  0.00    +0.000 OA
ATOM     33  C   UNL     1       5.656   3.758  16.352  0.00  0.00    +0.000 C 
ENDBRANCH  27  32
ENDBRANCH  21  24
ENDBRANCH   1  21
TORSDOF 7
ENDMDL
MODEL 4
REMARK VINA RESULT:      -7.6      1.493      2.859
REMARK  Name = 
REMARK  10 active torsions:
REMARK  status: ('A' for Active; 'I' for Inactive)
REMARK    1  A    between atoms: C_1  and  O_2
REMARK    2  A    between atoms: O_2  and  C_3
REMARK    3  A    between atoms: C_5  and  C_6
REMARK    4  A    between atoms: C_6  and  C_7
REMARK    5  A    between atoms: N_9  and  C_10
REMARK    6  A    between atoms: C_13  and  N_14
REMARK    7  A    between atoms: C_28  and  O_29
REMARK    8  A    between atoms: O_29  and  C_30
REMARK    9  A    between atoms: C_31  and  O_32
REMARK   10  A    between atoms: O_32  and  C_33
REMARK                            x       y       z     vdW  Elec       q    Type
REMARK                         _______ _______ _______ _____ _____    ______ ____
ROOT
ATOM      1  C   UNL     1       1.350   9.751  18.735  0.00  0.00    +0.000 A 
ATOM      2  N   UNL     1       1.182  10.985  18.336  0.00  0.00    +0.000 NA
ATOM      3  N   UNL     1       0.598  11.817  19.298  0.00  0.00    +0.000 N 
ATOM      4  C   UNL     1       1.265  11.699  20.535  0.00  0.00    +0.000 A 
ATOM      5  O   UNL     1       2.002  12.516  21.067  0.00  0.00    +0.000 OA
ATOM      6  C   UNL     1       1.111  10.345  21.104  0.00  0.00    +0.000 A 
ATOM      7  C   UNL     1       0.681  10.306  22.439  0.00  0.00    +0.000 A 
ATOM      8  C   UNL     1      -0.289   9.384  22.778  0.00  0.00    +0.000 A 
ATOM      9  C   UNL     1      -0.767   8.518  21.782  0.00  0.00    +0.000 A 
ATOM     10  C   UNL     1      -0.183   8.472  20.478  0.00  0.00    +0.000 A 
ATOM     11  C   UNL     1       0.851   9.353  20.141  0.00  0.00    +0.000 A 
ENDROOT
BRANCH   3  12
ATOM     12  C   UNL     1      -0.862  11.726  19.180  0.00  0.00    +0.000 A 
ATOM     13  C   UNL     1      -1.536  11.071  18.132  0.00  0.00    +0.000 A 
ATOM     14  C   UNL     1      -2.934  11.169  18.005  0.00  0.00    +0.000 A 
ATOM     15  C   UNL     1      -3.673  11.893  18.945  0.00  0.00    +0.000 A 
ATOM     16  C   UNL     1      -3.033  12.517  20.016  0.00  0.00    +0.000 A 
ATOM     17  C   UNL     1      -1.647  12.417  20.126  0.00  0.00    +0.000 A 
BRANCH  15  18
ATOM     18  N   UNL     1      -5.134  12.019  18.834  0.00  0.00    +0.000 N 
ATOM     19  O   UNL     1      -5.569  12.555  17.806  0.00  0.00    +0.000 OA
ATOM     20  O   UNL     1      -5.823  11.587  19.759  0.00  0.00    +0.000 OA
ENDBRANCH  15  18
ENDBRANCH   3  12
BRANCH   1  21
ATOM     21  C   UNL     1       2.071   8.813  17.741  0.00  0.00    +0.000 C 
BRANCH  21  24
ATOM     22  C   UNL     1       2.829   5.630  19.903  0.00  0.00    +0.000 A 
ATOM     23  C   UNL     1       2.261   6.857  19.440  0.00  0.00    +0.000 A 
ATOM     24  C   UNL     1       2.762   7.554  18.332  0.00  0.00    +0.000 A 
ATOM     25  C   UNL     1       3.914   7.004  17.740  0.00  0.00    +0.000 A 
ATOM     26  C   UNL     1       4.483   5.768  18.166  0.00  0.00    +0.000 A 
ATOM     27  C   UNL     1       3.937   5.052  19.249  0.00  0.00    +0.000 A 
BRANCH  22  29
ATOM     28  C   UNL     1       1.315   4.016  20.795  0.00  0.00    +0.000 C 
ATOM     29  O   UNL     1       2.338   4.992  21.013  0.00  0.00    +0.000 OA
ENDBRANCH  22  29
BRANCH  26  30
ATOM     30  O   UNL     1       5.609   5.410  17.445  0.00  0.00    +0.000 OA
ATOM     31  C   UNL     1       5.411   4.775  16.177  0.00  0.00    +0.000 C 
ENDBRANCH  26  30
BRANCH  27  32
ATOM     32  O   UNL     1       4.569   3.881  19.548  0.00  0.00    +0.000 OA
ATOM     33  C   UNL     1       4.213   2.586  19.099  0.00  0.00    +0.000 C 
ENDBRANCH  27  32
ENDBRANCH  21  24
ENDBRANCH   1  21
TORSDOF 7
ENDMDL
MODEL 5
REMARK VINA RESULT:      -7.6      1.468      2.778
REMARK  Name = 
REMARK  10 active torsions:
REMARK  status: ('A' for Active; 'I' for Inactive)
REMARK    1  A    between atoms: C_1  and  O_2
REMARK    2  A    between atoms: O_2  and  C_3
REMARK    3  A    between atoms: C_5  and  C_6
REMARK    4  A    between atoms: C_6  and  C_7
REMARK    5  A    between atoms: N_9  and  C_10
REMARK    6  A    between atoms: C_13  and  N_14
REMARK    7  A    between atoms: C_28  and  O_29
REMARK    8  A    between atoms: O_29  and  C_30
REMARK    9  A    between atoms: C_31  and  O_32
REMARK   10  A    between atoms: O_32  and  C_33
REMARK                            x       y       z     vdW  Elec       q    Type
REMARK                         _______ _______ _______ _____ _____    ______ ____
ROOT
ATOM      1  C   UNL     1       1.646   9.379  18.661  0.00  0.00    +0.000 A 
ATOM      2  N   UNL     1       1.415  10.545  18.117  0.00  0.00    +0.000 NA
ATOM      3  N   UNL     1       0.686  11.418  18.934  0.00  0.00    +0.000 N 
ATOM      4  C   UNL     1       1.252  11.488  20.224  0.00  0.00    +0.000 A 
ATOM      5  O   UNL     1       1.873  12.417  20.718  0.00  0.00    +0.000 OA
ATOM      6  C   UNL     1       1.158  10.191  20.925  0.00  0.00    +0.000 A 
ATOM      7  C   UNL     1       0.620  10.252  22.219  0.00  0.00    +0.000 A 
ATOM      8  C   UNL     1      -0.299   9.288  22.582  0.00  0.00    +0.000 A 
ATOM      9  C   UNL     1      -0.619   8.285  21.654  0.00  0.00    +0.000 A 
ATOM     10  C   UNL     1       0.076   8.156  20.411  0.00  0.00    +0.000 A 
ATOM     11  C   UNL     1       1.061   9.086  20.059  0.00  0.00    +0.000 A 
ENDROOT
BRANCH   3  12
ATOM     12  C   UNL     1      -0.746  11.186  18.715  0.00  0.00    +0.000 A 
ATOM     13  C   UNL     1      -1.272  10.292  17.763  0.00  0.00    +0.000 A 
ATOM     14  C   UNL     1      -2.654  10.249  17.503  0.00  0.00    +0.000 A 
ATOM     15  C   UNL     1      -3.526  11.073  18.219  0.00  0.00    +0.000 A 
ATOM     16  C   UNL     1      -3.036  11.939  19.197  0.00  0.00    +0.000 A 
ATOM     17  C   UNL     1      -1.664  11.976  19.439  0.00  0.00    +0.000 A 
BRANCH  15  18
ATOM     18  N   UNL     1      -4.975  11.056  17.964  0.00  0.00    +0.000 N 
ATOM     19  O   UNL     1      -5.649  10.265  18.637  0.00  0.00    +0.000 OA
ATOM     20  O   UNL     1      -5.420  11.823  17.109  0.00  0.00    +0.000 OA
ENDBRANCH  15  18
ENDBRANCH   3  12
BRANCH   1  21
ATOM     21  C   UNL     1       2.522   8.412  17.834  0.00  0.00    +0.000 C 
BRANCH  21  24
ATOM     22  C   UNL     1       2.133   4.679  18.974  0.00  0.00    +0.000 A 
ATOM     23  C   UNL     1       1.836   6.002  18.522  0.00  0.00    +0.000 A 
ATOM     24  C   UNL     1       2.805   7.013  18.449  0.00  0.00    +0.000 A 
ATOM     25  C   UNL     1       4.084   6.664  18.920  0.00  0.00    +0.000 A 
ATOM     26  C   UNL     1       4.412   5.345  19.349  0.00  0.00    +0.000 A 
ATOM     27  C   UNL     1       3.441   4.325  19.369  0.00  0.00    +0.000 A 
BRANCH  22  29
ATOM     28  C   UNL     1       0.730   3.365  20.387  0.00  0.00    +0.000 C 
ATOM     29  O   UNL     1       1.157   3.722  19.069  0.00  0.00    +0.000 OA
ENDBRANCH  22  29
BRANCH  26  30
ATOM     30  O   UNL     1       5.725   5.220  19.767  0.00  0.00    +0.000 OA
ATOM     31  C   UNL     1       6.754   5.573  18.836  0.00  0.00    +0.000 C 
ENDBRANCH  26  30
BRANCH  27  32
ATOM     32  O   UNL     1       3.888   3.108  19.791  0.00  0.00    +0.000 OA
ATOM     33  C   UNL     1       4.026   1.935  19.008  0.00  0.00    +0.000 C 
ENDBRANCH  27  32
ENDBRANCH  21  24
ENDBRANCH   1  21
TORSDOF 7
ENDMDL
MODEL 6
REMARK VINA RESULT:      -7.5      2.802      4.782
REMARK  Name = 
REMARK  10 active torsions:
REMARK  status: ('A' for Active; 'I' for Inactive)
REMARK    1  A    between atoms: C_1  and  O_2
REMARK    2  A    between atoms: O_2  and  C_3
REMARK    3  A    between atoms: C_5  and  C_6
REMARK    4  A    between atoms: C_6  and  C_7
REMARK    5  A    between atoms: N_9  and  C_10
REMARK    6  A    between atoms: C_13  and  N_14
REMARK    7  A    between atoms: C_28  and  O_29
REMARK    8  A    between atoms: O_29  and  C_30
REMARK    9  A    between atoms: C_31  and  O_32
REMARK   10  A    between atoms: O_32  and  C_33
REMARK                            x       y       z     vdW  Elec       q    Type
REMARK                         _______ _______ _______ _____ _____    ______ ____
ROOT
ATOM      1  C   UNL     1       1.016  10.111  18.661  0.00  0.00    +0.000 A 
ATOM      2  N   UNL     1       2.006  10.577  19.377  0.00  0.00    +0.000 NA
ATOM      3  N   UNL     1       1.628  11.570  20.289  0.00  0.00    +0.000 N 
ATOM      4  C   UNL     1       0.515  11.156  21.049  0.00  0.00    +0.000 A 
ATOM      5  O   UNL     1       0.493  10.832  22.227  0.00  0.00    +0.000 OA
ATOM      6  C   UNL     1      -0.683  10.985  20.201  0.00  0.00    +0.000 A 
ATOM      7  C   UNL     1      -1.837  11.634  20.665  0.00  0.00    +0.000 A 
ATOM      8  C   UNL     1      -2.611  12.312  19.744  0.00  0.00    +0.000 A 
ATOM      9  C   UNL     1      -2.221  12.288  18.396  0.00  0.00    +0.000 A 
ATOM     10  C   UNL     1      -1.138  11.476  17.937  0.00  0.00    +0.000 A 
ATOM     11  C   UNL     1      -0.387  10.726  18.851  0.00  0.00    +0.000 A 
ENDROOT
BRANCH   3  12
ATOM     12  C   UNL     1       1.682  12.873  19.618  0.00  0.00    +0.000 A 
ATOM     13  C   UNL     1       2.491  13.163  18.504  0.00  0.00    +0.000 A 
ATOM     14  C   UNL     1       2.607  14.480  18.021  0.00  0.00    +0.000 A 
ATOM     15  C   UNL     1       1.887  15.512  18.628  0.00  0.00    +0.000 A 
ATOM     16  C   UNL     1       1.047  15.246  19.709  0.00  0.00    +0.000 A 
ATOM     17  C   UNL     1       0.946  13.938  20.180  0.00  0.00    +0.000 A 
BRANCH  15  18
ATOM     18  N   UNL     1       1.994  16.900  18.151  0.00  0.00    +0.000 N 
ATOM     19  O   UNL     1       1.035  17.645  18.387  0.00  0.00    +0.000 OA
ATOM     20  O   UNL     1       3.022  17.228  17.557  0.00  0.00    +0.000 OA
ENDBRANCH  15  18
ENDBRANCH   3  12
BRANCH   1  21
ATOM     21  C   UNL     1       1.365   8.952  17.702  0.00  0.00    +0.000 C 
BRANCH  21  24
ATOM     22  C   UNL     1       2.691   5.919  19.805  0.00  0.00    +0.000 A 
ATOM     23  C   UNL     1       1.916   7.038  19.370  0.00  0.00    +0.000 A 
ATOM     24  C   UNL     1       2.270   7.820  18.261  0.00  0.00    +0.000 A 
ATOM     25  C   UNL     1       3.484   7.476  17.639  0.00  0.00    +0.000 A 
ATOM     26  C   UNL     1       4.260   6.348  18.037  0.00  0.00    +0.000 A 
ATOM     27  C   UNL     1       3.866   5.541  19.121  0.00  0.00    +0.000 A 
BRANCH  22  29
ATOM     28  C   UNL     1       1.368   4.162  20.730  0.00  0.00    +0.000 C 
ATOM     29  O   UNL     1       2.338   5.196  20.915  0.00  0.00    +0.000 OA
ENDBRANCH  22  29
BRANCH  26  30
ATOM     30  O   UNL     1       5.414   6.191  17.289  0.00  0.00    +0.000 OA
ATOM     31  C   UNL     1       5.267   5.890  15.897  0.00  0.00    +0.000 C 
ENDBRANCH  26  30
BRANCH  27  32
ATOM     32  O   UNL     1       4.690   4.489  19.391  0.00  0.00    +0.000 OA
ATOM     33  C   UNL     1       4.522   3.147  18.970  0.00  0.00    +0.000 C 
ENDBRANCH  27  32
ENDBRANCH  21  24
ENDBRANCH   1  21
TORSDOF 7
ENDMDL
MODEL 7
REMARK VINA RESULT:      -7.5      0.713      1.102
REMARK  Name = 
REMARK  10 active torsions:
REMARK  status: ('A' for Active; 'I' for Inactive)
REMARK    1  A    between atoms: C_1  and  O_2
REMARK    2  A    between atoms: O_2  and  C_3
REMARK    3  A    between atoms: C_5  and  C_6
REMARK    4  A    between atoms: C_6  and  C_7
REMARK    5  A    between atoms: N_9  and  C_10
REMARK    6  A    between atoms: C_13  and  N_14
REMARK    7  A    between atoms: C_28  and  O_29
REMARK    8  A    between atoms: O_29  and  C_30
REMARK    9  A    between atoms: C_31  and  O_32
REMARK   10  A    between atoms: O_32  and  C_33
REMARK                            x       y       z     vdW  Elec       q    Type
REMARK                         _______ _______ _______ _____ _____    ______ ____
ROOT
ATOM      1  C   UNL     1       0.776   9.436  20.343  0.00  0.00    +0.000 A 
ATOM      2  N   UNL     1       0.847   9.428  19.037  0.00  0.00    +0.000 NA
ATOM      3  N   UNL     1       0.650  10.685  18.452  0.00  0.00    +0.000 N 
ATOM      4  C   UNL     1       1.465  11.658  19.066  0.00  0.00    +0.000 A 
ATOM      5  O   UNL     1       2.455  12.203  18.603  0.00  0.00    +0.000 OA
ATOM      6  C   UNL     1       1.085  11.866  20.479  0.00  0.00    +0.000 A 
ATOM      7  C   UNL     1       0.887  13.205  20.850  0.00  0.00    +0.000 A 
ATOM      8  C   UNL     1      -0.206  13.500  21.639  0.00  0.00    +0.000 A 
ATOM      9  C   UNL     1      -1.038  12.448  22.052  0.00  0.00    +0.000 A 
ATOM     10  C   UNL     1      -0.709  11.080  21.797  0.00  0.00    +0.000 A 
ATOM     11  C   UNL     1       0.437  10.761  21.058  0.00  0.00    +0.000 A 
ENDROOT
BRANCH   3  12
ATOM     12  C   UNL     1      -0.788  10.886  18.236  0.00  0.00    +0.000 A 
ATOM     13  C   UNL     1      -1.461  12.105  18.438  0.00  0.00    +0.000 A 
ATOM     14  C   UNL     1      -2.865  12.172  18.366  0.00  0.00    +0.000 A 
ATOM     15  C   UNL     1      -3.604  11.028  18.056  0.00  0.00    +0.000 A 
ATOM     16  C   UNL     1      -2.959   9.816  17.810  0.00  0.00    +0.000 A 
ATOM     17  C   UNL     1      -1.569   9.762  17.891  0.00  0.00    +0.000 A 
BRANCH  15  18
ATOM     18  N   UNL     1      -5.073  11.066  17.981  0.00  0.00    +0.000 N 
ATOM     19  O   UNL     1      -5.573  11.986  17.322  0.00  0.00    +0.000 OA
ATOM     20  O   UNL     1      -5.704  10.187  18.571  0.00  0.00    +0.000 OA
ENDBRANCH  15  18
ENDBRANCH   3  12
BRANCH   1  21
ATOM     21  C   UNL     1       1.073   8.090  21.041  0.00  0.00    +0.000 C 
BRANCH  21  24
ATOM     22  C   UNL     1       3.369   6.362  18.372  0.00  0.00    +0.000 A 
ATOM     23  C   UNL     1       2.567   7.326  19.058  0.00  0.00    +0.000 A 
ATOM     24  C   UNL     1       1.838   7.019  20.215  0.00  0.00    +0.000 A 
ATOM     25  C   UNL     1       1.887   5.674  20.625  0.00  0.00    +0.000 A 
ATOM     26  C   UNL     1       2.701   4.701  19.975  0.00  0.00    +0.000 A 
ATOM     27  C   UNL     1       3.469   5.035  18.842  0.00  0.00    +0.000 A 
BRANCH  22  29
ATOM     28  C   UNL     1       5.431   6.997  17.352  0.00  0.00    +0.000 C 
ATOM     29  O   UNL     1       4.041   6.683  17.221  0.00  0.00    +0.000 OA
ENDBRANCH  22  29
BRANCH  26  30
ATOM     30  O   UNL     1       2.603   3.443  20.543  0.00  0.00    +0.000 OA
ATOM     31  C   UNL     1       1.516   2.610  20.126  0.00  0.00    +0.000 C 
ENDBRANCH  26  30
BRANCH  27  32
ATOM     32  O   UNL     1       4.210   4.016  18.322  0.00  0.00    +0.000 OA
ATOM     33  C   UNL     1       3.876   3.203  17.212  0.00  0.00    +0.000 C 
ENDBRANCH  27  32
ENDBRANCH  21  24
ENDBRANCH   1  21
TORSDOF 7
ENDMDL
MODEL 8
REMARK VINA RESULT:      -7.4      1.490      3.014
REMARK  Name = 
REMARK  10 active torsions:
REMARK  status: ('A' for Active; 'I' for Inactive)
REMARK    1  A    between atoms: C_1  and  O_2
REMARK    2  A    between atoms: O_2  and  C_3
REMARK    3  A    between atoms: C_5  and  C_6
REMARK    4  A    between atoms: C_6  and  C_7
REMARK    5  A    between atoms: N_9  and  C_10
REMARK    6  A    between atoms: C_13  and  N_14
REMARK    7  A    between atoms: C_28  and  O_29
REMARK    8  A    between atoms: O_29  and  C_30
REMARK    9  A    between atoms: C_31  and  O_32
REMARK   10  A    between atoms: O_32  and  C_33
REMARK                            x       y       z     vdW  Elec       q    Type
REMARK                         _______ _______ _______ _____ _____    ______ ____
ROOT
ATOM      1  C   UNL     1       1.186   9.957  18.740  0.00  0.00    +0.000 A 
ATOM      2  N   UNL     1       1.120  11.214  18.386  0.00  0.00    +0.000 NA
ATOM      3  N   UNL     1       0.629  12.060  19.388  0.00  0.00    +0.000 N 
ATOM      4  C   UNL     1       1.306  11.841  20.605  0.00  0.00    +0.000 A 
ATOM      5  O   UNL     1       2.122  12.570  21.149  0.00  0.00    +0.000 OA
ATOM      6  C   UNL     1       1.043  10.485  21.132  0.00  0.00    +0.000 A 
ATOM      7  C   UNL     1       0.637  10.437  22.474  0.00  0.00    +0.000 A 
ATOM      8  C   UNL     1      -0.404   9.592  22.803  0.00  0.00    +0.000 A 
ATOM      9  C   UNL     1      -0.975   8.807  21.788  0.00  0.00    +0.000 A 
ATOM     10  C   UNL     1      -0.422   8.756  20.471  0.00  0.00    +0.000 A 
ATOM     11  C   UNL     1       0.679   9.555  20.142  0.00  0.00    +0.000 A 
ENDROOT
BRANCH   3  12
ATOM     12  C   UNL     1      -0.835  12.100  19.298  0.00  0.00    +0.000 A 
ATOM     13  C   UNL     1      -1.688  12.478  20.352  0.00  0.00    +0.000 A 
ATOM     14  C   UNL     1      -3.083  12.333  20.236  0.00  0.00    +0.000 A 
ATOM     15  C   UNL     1      -3.638  11.842  19.051  0.00  0.00    +0.000 A 
ATOM     16  C   UNL     1      -2.818  11.499  17.977  0.00  0.00    +0.000 A 
ATOM     17  C   UNL     1      -1.438  11.642  18.108  0.00  0.00    +0.000 A 
BRANCH  15  18
ATOM     18  N   UNL     1      -5.092  11.672  18.904  0.00  0.00    +0.000 N 
ATOM     19  O   UNL     1      -5.788  11.960  19.886  0.00  0.00    +0.000 OA
ATOM     20  O   UNL     1      -5.518  11.261  17.823  0.00  0.00    +0.000 OA
ENDBRANCH  15  18
ENDBRANCH   3  12
BRANCH   1  21
ATOM     21  C   UNL     1       1.803   8.996  17.700  0.00  0.00    +0.000 C 
BRANCH  21  24
ATOM     22  C   UNL     1       2.845   5.818  19.749  0.00  0.00    +0.000 A 
ATOM     23  C   UNL     1       2.169   7.005  19.328  0.00  0.00    +0.000 A 
ATOM     24  C   UNL     1       2.605   7.782  18.247  0.00  0.00    +0.000 A 
ATOM     25  C   UNL     1       3.801   7.360  17.638  0.00  0.00    +0.000 A 
ATOM     26  C   UNL     1       4.478   6.165  18.021  0.00  0.00    +0.000 A 
ATOM     27  C   UNL     1       4.000   5.365  19.077  0.00  0.00    +0.000 A 
BRANCH  22  29
ATOM     28  C   UNL     1       1.270   4.264  20.641  0.00  0.00    +0.000 C 
ATOM     29  O   UNL     1       2.415   5.099  20.834  0.00  0.00    +0.000 OA
ENDBRANCH  22  29
BRANCH  26  30
ATOM     30  O   UNL     1       5.631   5.936  17.290  0.00  0.00    +0.000 OA
ATOM     31  C   UNL     1       5.482   5.504  15.934  0.00  0.00    +0.000 C 
ENDBRANCH  26  30
BRANCH  27  32
ATOM     32  O   UNL     1       4.735   4.246  19.335  0.00  0.00    +0.000 OA
ATOM     33  C   UNL     1       4.360   2.905  19.072  0.00  0.00    +0.000 C 
ENDBRANCH  27  32
ENDBRANCH  21  24
ENDBRANCH   1  21
TORSDOF 7
ENDMDL
MODEL 9
REMARK VINA RESULT:      -7.4      0.533      2.321
REMARK  Name = 
REMARK  10 active torsions:
REMARK  status: ('A' for Active; 'I' for Inactive)
REMARK    1  A    between atoms: C_1  and  O_2
REMARK    2  A    between atoms: O_2  and  C_3
REMARK    3  A    between atoms: C_5  and  C_6
REMARK    4  A    between atoms: C_6  and  C_7
REMARK    5  A    between atoms: N_9  and  C_10
REMARK    6  A    between atoms: C_13  and  N_14
REMARK    7  A    between atoms: C_28  and  O_29
REMARK    8  A    between atoms: O_29  and  C_30
REMARK    9  A    between atoms: C_31  and  O_32
REMARK   10  A    between atoms: O_32  and  C_33
REMARK                            x       y       z     vdW  Elec       q    Type
REMARK                         _______ _______ _______ _____ _____    ______ ____
ROOT
ATOM      1  C   UNL     1       0.878   9.503  20.402  0.00  0.00    +0.000 A 
ATOM      2  N   UNL     1       0.979   9.534  19.099  0.00  0.00    +0.000 NA
ATOM      3  N   UNL     1       0.739  10.797  18.542  0.00  0.00    +0.000 N 
ATOM      4  C   UNL     1       1.495  11.788  19.201  0.00  0.00    +0.000 A 
ATOM      5  O   UNL     1       2.470  12.389  18.776  0.00  0.00    +0.000 OA
ATOM      6  C   UNL     1       1.075  11.940  20.609  0.00  0.00    +0.000 A 
ATOM      7  C   UNL     1       0.809  13.258  21.011  0.00  0.00    +0.000 A 
ATOM      8  C   UNL     1      -0.315  13.483  21.782  0.00  0.00    +0.000 A 
ATOM      9  C   UNL     1      -1.108  12.383  22.147  0.00  0.00    +0.000 A 
ATOM     10  C   UNL     1      -0.711  11.040  21.864  0.00  0.00    +0.000 A 
ATOM     11  C   UNL     1       0.464  10.791  21.144  0.00  0.00    +0.000 A 
ENDROOT
BRANCH   3  12
ATOM     12  C   UNL     1      -0.701  10.939  18.297  0.00  0.00    +0.000 A 
ATOM     13  C   UNL     1      -1.436  12.117  18.531  0.00  0.00    +0.000 A 
ATOM     14  C   UNL     1      -2.839  12.121  18.425  0.00  0.00    +0.000 A 
ATOM     15  C   UNL     1      -3.516  10.958  18.051  0.00  0.00    +0.000 A 
ATOM     16  C   UNL     1      -2.809   9.788  17.774  0.00  0.00    +0.000 A 
ATOM     17  C   UNL     1      -1.419   9.796  17.889  0.00  0.00    +0.000 A 
BRANCH  15  18
ATOM     18  N   UNL     1      -4.983  10.931  17.940  0.00  0.00    +0.000 N 
ATOM     19  O   UNL     1      -5.492  11.696  17.112  0.00  0.00    +0.000 OA
ATOM     20  O   UNL     1      -5.602  10.154  18.669  0.00  0.00    +0.000 OA
ENDBRANCH  15  18
ENDBRANCH   3  12
BRANCH   1  21
ATOM     21  C   UNL     1       1.220   8.153  21.072  0.00  0.00    +0.000 C 
BRANCH  21  24
ATOM     22  C   UNL     1       1.851   4.672  19.377  0.00  0.00    +0.000 A 
ATOM     23  C   UNL     1       1.431   5.682  20.298  0.00  0.00    +0.000 A 
ATOM     24  C   UNL     1       1.782   7.031  20.154  0.00  0.00    +0.000 A 
ATOM     25  C   UNL     1       2.640   7.325  19.079  0.00  0.00    +0.000 A 
ATOM     26  C   UNL     1       3.049   6.342  18.131  0.00  0.00    +0.000 A 
ATOM     27  C   UNL     1       2.648   4.998  18.259  0.00  0.00    +0.000 A 
BRANCH  22  29
ATOM     28  C   UNL     1       2.340   2.609  20.470  0.00  0.00    +0.000 C 
ATOM     29  O   UNL     1       1.522   3.355  19.565  0.00  0.00    +0.000 OA
ENDBRANCH  22  29
BRANCH  26  30
ATOM     30  O   UNL     1       3.889   6.845  17.153  0.00  0.00    +0.000 OA
ATOM     31  C   UNL     1       5.280   6.965  17.470  0.00  0.00    +0.000 C 
ENDBRANCH  26  30
BRANCH  27  32
ATOM     32  O   UNL     1       3.101   4.162  17.282  0.00  0.00    +0.000 OA
ATOM     33  C   UNL     1       4.281   3.380  17.312  0.00  0.00    +0.000 C 
ENDBRANCH  27  32
ENDBRANCH  21  24
ENDBRANCH   1  21
TORSDOF 7
ENDMDL
