MODEL 1
REMARK VINA RESULT:      -7.8      0.000      0.000
REMARK  Name = 
REMARK  7 active torsions:
REMARK  status: ('A' for Active; 'I' for Inactive)
REMARK    1  A    between atoms: C_1  and  O_2
REMARK    2  A    between atoms: O_2  and  C_3
REMARK    3  A    between atoms: C_3  and  C_5
REMARK    4  A    between atoms: C_10  and  N_11
REMARK    5  A    between atoms: N_12  and  N_13
REMARK    6  A    between atoms: N_13  and  C_14
REMARK    7  A    between atoms: C_19  and  N_20
REMARK                            x       y       z     vdW  Elec       q    Type
REMARK                         _______ _______ _______ _____ _____    ______ ____
ROOT
ATOM      1  N   UNL     1       6.568   4.281  18.444  0.00  0.00    +0.000 NA
ATOM      2  N   UNL     1       5.709   4.279  19.346  0.00  0.00    +0.000 NA
ENDROOT
BRANCH   1   8
ATOM      3  C   UNL     1       6.670   6.404  17.163  0.00  0.00    +0.000 A 
ATOM      4  C   UNL     1       7.204   7.703  17.020  0.00  0.00    +0.000 A 
ATOM      5  C   UNL     1       8.121   8.209  17.939  0.00  0.00    +0.000 A 
ATOM      6  C   UNL     1       8.514   7.428  19.016  0.00  0.00    +0.000 A 
ATOM      7  C   UNL     1       7.977   6.148  19.172  0.00  0.00    +0.000 A 
ATOM      8  C   UNL     1       7.059   5.598  18.245  0.00  0.00    +0.000 A 
BRANCH   3   9
ATOM      9  C   UNL     1       5.751   5.980  16.081  0.00  0.00    +0.000 C 
ATOM     10  O   UNL     1       4.541   5.902  16.255  0.00  0.00    +0.000 OA
BRANCH   9  12
ATOM     11  C   UNL     1       6.369   4.173  14.718  0.00  0.00    +0.000 C 
ATOM     12  O   UNL     1       6.419   5.579  14.977  0.00  0.00    +0.000 OA
ENDBRANCH   9  12
ENDBRANCH   3   9
ENDBRANCH   1   8
BRANCH   2  13
ATOM     13  N   UNL     1       5.119   3.071  19.368  0.00  0.00    +0.000 N 
ATOM     14  H   UNL     1       5.477   2.405  20.056  0.00  0.00    +0.000 HD
BRANCH  13  15
ATOM     15  C   UNL     1       3.737   3.008  19.080  0.00  0.00    +0.000 A 
ATOM     16  C   UNL     1       3.297   3.187  17.750  0.00  0.00    +0.000 A 
ATOM     17  C   UNL     1       1.945   3.131  17.402  0.00  0.00    +0.000 A 
ATOM     18  C   UNL     1       0.987   2.871  18.374  0.00  0.00    +0.000 A 
ATOM     19  C   UNL     1       1.385   2.650  19.691  0.00  0.00    +0.000 A 
ATOM     20  C   UNL     1       2.750   2.705  20.044  0.00  0.00    +0.000 A 
BRANCH  20  21
ATOM     21  N   UNL     1       3.100   2.471  21.452  0.00  0.00    +0.000 N 
ATOM     22  O   UNL     1       2.364   2.951  22.329  0.00  0.00    +0.000 OA
ATOM     23  O   UNL     1       4.113   1.798  21.692  0.00  0.00    +0.000 OA
ENDBRANCH  20  21
ENDBRANCH  13  15
ENDBRANCH   2  13
TORSDOF 6
ENDMDL
MODEL 2
REMARK VINA RESULT:      -7.7      1.901      2.299
REMARK  Name = 
REMARK  7 active torsions:
REMARK  status: ('A' for Active; 'I' for Inactive)
REMARK    1  A    between atoms: C_1  and  O_2
REMARK    2  A    between atoms: O_2  and  C_3
REMARK    3  A    between atoms: C_3  and  C_5
REMARK    4  A    between atoms: C_10  and  N_11
REMARK    5  A    between atoms: N_12  and  N_13
REMARK    6  A    between atoms: N_13  and  C_14
REMARK    7  A    between atoms: C_19  and  N_20
REMARK                            x       y       z     vdW  Elec       q    Type
REMARK                         _______ _______ _______ _____ _____    ______ ____
ROOT
ATOM      1  N   UNL     1       6.366   4.176  18.351  0.00  0.00    +0.000 NA
ATOM      2  N   UNL     1       5.681   4.165  19.391  0.00  0.00    +0.000 NA
ENDROOT
BRANCH   1   8
ATOM      3  C   UNL     1       6.703   6.240  17.015  0.00  0.00    +0.000 A 
ATOM      4  C   UNL     1       7.309   7.508  16.885  0.00  0.00    +0.000 A 
ATOM      5  C   UNL     1       8.146   8.011  17.879  0.00  0.00    +0.000 A 
ATOM      6  C   UNL     1       8.385   7.258  19.019  0.00  0.00    +0.000 A 
ATOM      7  C   UNL     1       7.775   6.009  19.161  0.00  0.00    +0.000 A 
ATOM      8  C   UNL     1       6.937   5.462  18.161  0.00  0.00    +0.000 A 
BRANCH   3   9
ATOM      9  C   UNL     1       5.885   5.813  15.856  0.00  0.00    +0.000 C 
ATOM     10  O   UNL     1       5.119   6.582  15.287  0.00  0.00    +0.000 OA
BRANCH   9  12
ATOM     11  C   UNL     1       6.075   4.124  14.237  0.00  0.00    +0.000 C 
ATOM     12  O   UNL     1       5.996   4.487  15.619  0.00  0.00    +0.000 OA
ENDBRANCH   9  12
ENDBRANCH   3   9
ENDBRANCH   1   8
BRANCH   2  13
ATOM     13  N   UNL     1       4.993   3.010  19.435  0.00  0.00    +0.000 N 
ATOM     14  H   UNL     1       5.522   2.178  19.705  0.00  0.00    +0.000 HD
BRANCH  13  15
ATOM     15  C   UNL     1       3.641   3.066  19.840  0.00  0.00    +0.000 A 
ATOM     16  C   UNL     1       3.273   2.548  21.101  0.00  0.00    +0.000 A 
ATOM     17  C   UNL     1       1.954   2.578  21.561  0.00  0.00    +0.000 A 
ATOM     18  C   UNL     1       0.959   3.151  20.778  0.00  0.00    +0.000 A 
ATOM     19  C   UNL     1       1.288   3.708  19.544  0.00  0.00    +0.000 A 
ATOM     20  C   UNL     1       2.621   3.679  19.080  0.00  0.00    +0.000 A 
BRANCH  20  21
ATOM     21  N   UNL     1       2.898   4.277  17.767  0.00  0.00    +0.000 N 
ATOM     22  O   UNL     1       2.913   5.515  17.675  0.00  0.00    +0.000 OA
ATOM     23  O   UNL     1       3.108   3.512  16.815  0.00  0.00    +0.000 OA
ENDBRANCH  20  21
ENDBRANCH  13  15
ENDBRANCH   2  13
TORSDOF 6
ENDMDL
MODEL 3
REMARK VINA RESULT:      -7.6      1.770      2.326
REMARK  Name = 
REMARK  7 active torsions:
REMARK  status: ('A' for Active; 'I' for Inactive)
REMARK    1  A    between atoms: C_1  and  O_2
REMARK    2  A    between atoms: O_2  and  C_3
REMARK    3  A    between atoms: C_3  and  C_5
REMARK    4  A    between atoms: C_10  and  N_11
REMARK    5  A    between atoms: N_12  and  N_13
REMARK    6  A    between atoms: N_13  and  C_14
REMARK    7  A    between atoms: C_19  and  N_20
REMARK                            x       y       z     vdW  Elec       q    Type
REMARK                         _______ _______ _______ _____ _____    ______ ____
ROOT
ATOM      1  N   UNL     1       6.256   4.067  18.604  0.00  0.00    +0.000 NA
ATOM      2  N   UNL     1       5.471   4.094  19.569  0.00  0.00    +0.000 NA
ENDROOT
BRANCH   1   8
ATOM      3  C   UNL     1       6.144   6.236  17.404  0.00  0.00    +0.000 A 
ATOM      4  C   UNL     1       6.684   7.521  17.181  0.00  0.00    +0.000 A 
ATOM      5  C   UNL     1       7.813   7.957  17.872  0.00  0.00    +0.000 A 
ATOM      6  C   UNL     1       8.414   7.120  18.799  0.00  0.00    +0.000 A 
ATOM      7  C   UNL     1       7.875   5.853  19.037  0.00  0.00    +0.000 A 
ATOM      8  C   UNL     1       6.743   5.373  18.337  0.00  0.00    +0.000 A 
BRANCH   3   9
ATOM      9  C   UNL     1       4.979   5.889  16.558  0.00  0.00    +0.000 C 
ATOM     10  O   UNL     1       3.854   5.765  17.026  0.00  0.00    +0.000 OA
BRANCH   9  12
ATOM     11  C   UNL     1       5.607   4.224  15.027  0.00  0.00    +0.000 C 
ATOM     12  O   UNL     1       5.342   5.606  15.287  0.00  0.00    +0.000 OA
ENDBRANCH   9  12
ENDBRANCH   3   9
ENDBRANCH   1   8
BRANCH   2  13
ATOM     13  N   UNL     1       4.873   2.893  19.666  0.00  0.00    +0.000 N 
ATOM     14  H   UNL     1       5.440   2.135  20.053  0.00  0.00    +0.000 HD
BRANCH  13  15
ATOM     15  C   UNL     1       3.491   2.868  19.957  0.00  0.00    +0.000 A 
ATOM     16  C   UNL     1       3.060   3.024  21.293  0.00  0.00    +0.000 A 
ATOM     17  C   UNL     1       1.707   3.014  21.643  0.00  0.00    +0.000 A 
ATOM     18  C   UNL     1       0.737   2.868  20.660  0.00  0.00    +0.000 A 
ATOM     19  C   UNL     1       1.120   2.752  19.325  0.00  0.00    +0.000 A 
ATOM     20  C   UNL     1       2.486   2.763  18.971  0.00  0.00    +0.000 A 
BRANCH  20  21
ATOM     21  N   UNL     1       2.821   2.627  17.546  0.00  0.00    +0.000 N 
ATOM     22  O   UNL     1       3.817   1.955  17.238  0.00  0.00    +0.000 OA
ATOM     23  O   UNL     1       2.085   3.190  16.722  0.00  0.00    +0.000 OA
ENDBRANCH  20  21
ENDBRANCH  13  15
ENDBRANCH   2  13
TORSDOF 6
ENDMDL
MODEL 4
REMARK VINA RESULT:      -7.6      1.957      2.491
REMARK  Name = 
REMARK  7 active torsions:
REMARK  status: ('A' for Active; 'I' for Inactive)
REMARK    1  A    between atoms: C_1  and  O_2
REMARK    2  A    between atoms: O_2  and  C_3
REMARK    3  A    between atoms: C_3  and  C_5
REMARK    4  A    between atoms: C_10  and  N_11
REMARK    5  A    between atoms: N_12  and  N_13
REMARK    6  A    between atoms: N_13  and  C_14
REMARK    7  A    between atoms: C_19  and  N_20
REMARK                            x       y       z     vdW  Elec       q    Type
REMARK                         _______ _______ _______ _____ _____    ______ ____
ROOT
ATOM      1  N   UNL     1       5.477   4.039  17.792  0.00  0.00    +0.000 NA
ATOM      2  N   UNL     1       5.409   3.467  18.896  0.00  0.00    +0.000 NA
ENDROOT
BRANCH   1   8
ATOM      3  C   UNL     1       6.380   6.169  16.892  0.00  0.00    +0.000 A 
ATOM      4  C   UNL     1       7.246   7.272  17.045  0.00  0.00    +0.000 A 
ATOM      5  C   UNL     1       8.055   7.401  18.174  0.00  0.00    +0.000 A 
ATOM      6  C   UNL     1       8.005   6.434  19.166  0.00  0.00    +0.000 A 
ATOM      7  C   UNL     1       7.137   5.348  19.028  0.00  0.00    +0.000 A 
ATOM      8  C   UNL     1       6.319   5.177  17.886  0.00  0.00    +0.000 A 
BRANCH   3   9
ATOM      9  C   UNL     1       5.624   6.135  15.619  0.00  0.00    +0.000 C 
ATOM     10  O   UNL     1       4.905   7.063  15.269  0.00  0.00    +0.000 OA
BRANCH   9  12
ATOM     11  C   UNL     1       6.911   4.765  14.213  0.00  0.00    +0.000 C 
ATOM     12  O   UNL     1       5.728   4.938  14.999  0.00  0.00    +0.000 OA
ENDBRANCH   9  12
ENDBRANCH   3   9
ENDBRANCH   1   8
BRANCH   2  13
ATOM     13  N   UNL     1       4.452   2.525  18.829  0.00  0.00    +0.000 N 
ATOM     14  H   UNL     1       4.771   1.563  18.695  0.00  0.00    +0.000 HD
BRANCH  13  15
ATOM     15  C   UNL     1       3.293   2.708  19.617  0.00  0.00    +0.000 A 
ATOM     16  C   UNL     1       3.366   2.509  21.013  0.00  0.00    +0.000 A 
ATOM     17  C   UNL     1       2.257   2.680  21.846  0.00  0.00    +0.000 A 
ATOM     18  C   UNL     1       1.039   3.077  21.309  0.00  0.00    +0.000 A 
ATOM     19  C   UNL     1       0.937   3.322  19.940  0.00  0.00    +0.000 A 
ATOM     20  C   UNL     1       2.057   3.151  19.099  0.00  0.00    +0.000 A 
BRANCH  20  21
ATOM     21  N   UNL     1       1.878   3.418  17.665  0.00  0.00    +0.000 N 
ATOM     22  O   UNL     1       2.439   2.666  16.852  0.00  0.00    +0.000 OA
ATOM     23  O   UNL     1       1.169   4.381  17.339  0.00  0.00    +0.000 OA
ENDBRANCH  20  21
ENDBRANCH  13  15
ENDBRANCH   2  13
TORSDOF 6
ENDMDL
MODEL 5
REMARK VINA RESULT:      -7.5      2.095      2.767
REMARK  Name = 
REMARK  7 active torsions:
REMARK  status: ('A' for Active; 'I' for Inactive)
REMARK    1  A    between atoms: C_1  and  O_2
REMARK    2  A    between atoms: O_2  and  C_3
REMARK    3  A    between atoms: C_3  and  C_5
REMARK    4  A    between atoms: C_10  and  N_11
REMARK    5  A    between atoms: N_12  and  N_13
REMARK    6  A    between atoms: N_13  and  C_14
REMARK    7  A    between atoms: C_19  and  N_20
REMARK                            x       y       z     vdW  Elec       q    Type
REMARK                         _______ _______ _______ _____ _____    ______ ____
ROOT
ATOM      1  N   UNL     1       5.527   4.166  17.877  0.00  0.00    +0.000 NA
ATOM      2  N   UNL     1       5.444   3.598  18.981  0.00  0.00    +0.000 NA
ENDROOT
BRANCH   1   8
ATOM      3  C   UNL     1       6.039   6.527  17.307  0.00  0.00    +0.000 A 
ATOM      4  C   UNL     1       6.881   7.650  17.460  0.00  0.00    +0.000 A 
ATOM      5  C   UNL     1       8.005   7.600  18.282  0.00  0.00    +0.000 A 
ATOM      6  C   UNL     1       8.301   6.431  18.967  0.00  0.00    +0.000 A 
ATOM      7  C   UNL     1       7.463   5.322  18.833  0.00  0.00    +0.000 A 
ATOM      8  C   UNL     1       6.326   5.334  17.991  0.00  0.00    +0.000 A 
BRANCH   3   9
ATOM      9  C   UNL     1       4.915   6.708  16.359  0.00  0.00    +0.000 C 
ATOM     10  O   UNL     1       5.100   7.024  15.190  0.00  0.00    +0.000 OA
BRANCH   9  12
ATOM     11  C   UNL     1       3.297   7.800  17.662  0.00  0.00    +0.000 C 
ATOM     12  O   UNL     1       3.715   6.618  16.974  0.00  0.00    +0.000 OA
ENDBRANCH   9  12
ENDBRANCH   3   9
ENDBRANCH   1   8
BRANCH   2  13
ATOM     13  N   UNL     1       4.523   2.623  18.890  0.00  0.00    +0.000 N 
ATOM     14  H   UNL     1       4.879   1.675  18.748  0.00  0.00    +0.000 HD
BRANCH  13  15
ATOM     15  C   UNL     1       3.348   2.753  19.665  0.00  0.00    +0.000 A 
ATOM     16  C   UNL     1       3.410   2.539  21.059  0.00  0.00    +0.000 A 
ATOM     17  C   UNL     1       2.285   2.659  21.880  0.00  0.00    +0.000 A 
ATOM     18  C   UNL     1       1.060   3.018  21.331  0.00  0.00    +0.000 A 
ATOM     19  C   UNL     1       0.967   3.276  19.964  0.00  0.00    +0.000 A 
ATOM     20  C   UNL     1       2.103   3.157  19.136  0.00  0.00    +0.000 A 
BRANCH  20  21
ATOM     21  N   UNL     1       1.933   3.435  17.702  0.00  0.00    +0.000 N 
ATOM     22  O   UNL     1       1.216   4.393  17.370  0.00  0.00    +0.000 OA
ATOM     23  O   UNL     1       2.519   2.698  16.896  0.00  0.00    +0.000 OA
ENDBRANCH  20  21
ENDBRANCH  13  15
ENDBRANCH   2  13
TORSDOF 6
ENDMDL
MODEL 6
REMARK VINA RESULT:      -7.5      0.706      1.426
REMARK  Name = 
REMARK  7 active torsions:
REMARK  status: ('A' for Active; 'I' for Inactive)
REMARK    1  A    between atoms: C_1  and  O_2
REMARK    2  A    between atoms: O_2  and  C_3
REMARK    3  A    between atoms: C_3  and  C_5
REMARK    4  A    between atoms: C_10  and  N_11
REMARK    5  A    between atoms: N_12  and  N_13
REMARK    6  A    between atoms: N_13  and  C_14
REMARK    7  A    between atoms: C_19  and  N_20
REMARK                            x       y       z     vdW  Elec       q    Type
REMARK                         _______ _______ _______ _____ _____    ______ ____
ROOT
ATOM      1  N   UNL     1       6.349   4.326  18.219  0.00  0.00    +0.000 NA
ATOM      2  N   UNL     1       5.794   4.152  19.320  0.00  0.00    +0.000 NA
ENDROOT
BRANCH   1   8
ATOM      3  C   UNL     1       6.491   6.599  17.233  0.00  0.00    +0.000 A 
ATOM      4  C   UNL     1       7.096   7.874  17.221  0.00  0.00    +0.000 A 
ATOM      5  C   UNL     1       8.114   8.195  18.118  0.00  0.00    +0.000 A 
ATOM      6  C   UNL     1       8.536   7.251  19.042  0.00  0.00    +0.000 A 
ATOM      7  C   UNL     1       7.930   5.993  19.069  0.00  0.00    +0.000 A 
ATOM      8  C   UNL     1       6.909   5.629  18.159  0.00  0.00    +0.000 A 
BRANCH   3   9
ATOM      9  C   UNL     1       5.465   6.382  16.187  0.00  0.00    +0.000 C 
ATOM     10  O   UNL     1       5.700   5.732  15.175  0.00  0.00    +0.000 OA
BRANCH   9  12
ATOM     11  C   UNL     1       3.714   6.809  17.691  0.00  0.00    +0.000 C 
ATOM     12  O   UNL     1       4.336   7.084  16.432  0.00  0.00    +0.000 OA
ENDBRANCH   9  12
ENDBRANCH   3   9
ENDBRANCH   1   8
BRANCH   2  13
ATOM     13  N   UNL     1       5.102   3.001  19.270  0.00  0.00    +0.000 N 
ATOM     14  H   UNL     1       5.418   2.255  19.894  0.00  0.00    +0.000 HD
BRANCH  13  15
ATOM     15  C   UNL     1       3.713   3.078  19.022  0.00  0.00    +0.000 A 
ATOM     16  C   UNL     1       3.256   3.321  17.708  0.00  0.00    +0.000 A 
ATOM     17  C   UNL     1       1.895   3.404  17.399  0.00  0.00    +0.000 A 
ATOM     18  C   UNL     1       0.944   3.222  18.395  0.00  0.00    +0.000 A 
ATOM     19  C   UNL     1       1.355   2.941  19.697  0.00  0.00    +0.000 A 
ATOM     20  C   UNL     1       2.728   2.857  20.010  0.00  0.00    +0.000 A 
BRANCH  20  21
ATOM     21  N   UNL     1       3.093   2.565  21.404  0.00  0.00    +0.000 N 
ATOM     22  O   UNL     1       4.068   1.826  21.615  0.00  0.00    +0.000 OA
ATOM     23  O   UNL     1       2.407   3.078  22.300  0.00  0.00    +0.000 OA
ENDBRANCH  20  21
ENDBRANCH  13  15
ENDBRANCH   2  13
TORSDOF 6
ENDMDL
MODEL 7
REMARK VINA RESULT:      -7.4      2.238      6.310
REMARK  Name = 
REMARK  7 active torsions:
REMARK  status: ('A' for Active; 'I' for Inactive)
REMARK    1  A    between atoms: C_1  and  O_2
REMARK    2  A    between atoms: O_2  and  C_3
REMARK    3  A    between atoms: C_3  and  C_5
REMARK    4  A    between atoms: C_10  and  N_11
REMARK    5  A    between atoms: N_12  and  N_13
REMARK    6  A    between atoms: N_13  and  C_14
REMARK    7  A    between atoms: C_19  and  N_20
REMARK                            x       y       z     vdW  Elec       q    Type
REMARK                         _______ _______ _______ _____ _____    ______ ____
ROOT
ATOM      1  N   UNL     1       4.478   4.448  18.699  0.00  0.00    +0.000 NA
ATOM      2  N   UNL     1       5.491   3.858  19.116  0.00  0.00    +0.000 NA
ENDROOT
BRANCH   1   8
ATOM      3  C   UNL     1       2.340   5.009  19.829  0.00  0.00    +0.000 A 
ATOM      4  C   UNL     1       1.251   4.594  20.625  0.00  0.00    +0.000 A 
ATOM      5  C   UNL     1       1.157   3.282  21.088  0.00  0.00    +0.000 A 
ATOM      6  C   UNL     1       2.144   2.367  20.757  0.00  0.00    +0.000 A 
ATOM      7  C   UNL     1       3.216   2.767  19.957  0.00  0.00    +0.000 A 
ATOM      8  C   UNL     1       3.352   4.096  19.488  0.00  0.00    +0.000 A 
BRANCH   3   9
ATOM      9  C   UNL     1       2.337   6.443  19.458  0.00  0.00    +0.000 C 
ATOM     10  O   UNL     1       2.191   7.327  20.294  0.00  0.00    +0.000 OA
BRANCH   9  12
ATOM     11  C   UNL     1       3.165   7.727  17.676  0.00  0.00    +0.000 C 
ATOM     12  O   UNL     1       2.374   6.619  18.118  0.00  0.00    +0.000 OA
ENDBRANCH   9  12
ENDBRANCH   3   9
ENDBRANCH   1   8
BRANCH   2  13
ATOM     13  N   UNL     1       6.487   4.046  18.232  0.00  0.00    +0.000 N 
ATOM     14  H   UNL     1       6.461   3.469  17.389  0.00  0.00    +0.000 HD
BRANCH  13  15
ATOM     15  C   UNL     1       7.004   5.354  18.092  0.00  0.00    +0.000 A 
ATOM     16  C   UNL     1       7.771   5.913  19.138  0.00  0.00    +0.000 A 
ATOM     17  C   UNL     1       8.313   7.198  19.057  0.00  0.00    +0.000 A 
ATOM     18  C   UNL     1       8.122   7.961  17.912  0.00  0.00    +0.000 A 
ATOM     19  C   UNL     1       7.404   7.431  16.842  0.00  0.00    +0.000 A 
ATOM     20  C   UNL     1       6.857   6.132  16.923  0.00  0.00    +0.000 A 
BRANCH  20  21
ATOM     21  N   UNL     1       6.104   5.637  15.762  0.00  0.00    +0.000 N 
ATOM     22  O   UNL     1       6.314   4.476  15.376  0.00  0.00    +0.000 OA
ATOM     23  O   UNL     1       5.291   6.405  15.229  0.00  0.00    +0.000 OA
ENDBRANCH  20  21
ENDBRANCH  13  15
ENDBRANCH   2  13
TORSDOF 6
ENDMDL
MODEL 8
REMARK VINA RESULT:      -7.3      2.169      6.271
REMARK  Name = 
REMARK  7 active torsions:
REMARK  status: ('A' for Active; 'I' for Inactive)
REMARK    1  A    between atoms: C_1  and  O_2
REMARK    2  A    between atoms: O_2  and  C_3
REMARK    3  A    between atoms: C_3  and  C_5
REMARK    4  A    between atoms: C_10  and  N_11
REMARK    5  A    between atoms: N_12  and  N_13
REMARK    6  A    between atoms: N_13  and  C_14
REMARK    7  A    between atoms: C_19  and  N_20
REMARK                            x       y       z     vdW  Elec       q    Type
REMARK                         _______ _______ _______ _____ _____    ______ ____
ROOT
ATOM      1  N   UNL     1       4.542   4.026  18.660  0.00  0.00    +0.000 NA
ATOM      2  N   UNL     1       5.606   3.740  19.241  0.00  0.00    +0.000 NA
ENDROOT
BRANCH   1   8
ATOM      3  C   UNL     1       2.107   3.974  19.138  0.00  0.00    +0.000 A 
ATOM      4  C   UNL     1       1.053   3.579  19.988  0.00  0.00    +0.000 A 
ATOM      5  C   UNL     1       1.302   2.871  21.163  0.00  0.00    +0.000 A 
ATOM      6  C   UNL     1       2.606   2.543  21.500  0.00  0.00    +0.000 A 
ATOM      7  C   UNL     1       3.653   2.917  20.655  0.00  0.00    +0.000 A 
ATOM      8  C   UNL     1       3.435   3.653  19.466  0.00  0.00    +0.000 A 
BRANCH   3   9
ATOM      9  C   UNL     1       1.698   4.768  17.956  0.00  0.00    +0.000 C 
ATOM     10  O   UNL     1       0.856   4.362  17.164  0.00  0.00    +0.000 OA
BRANCH   9  12
ATOM     11  C   UNL     1       2.230   6.894  18.796  0.00  0.00    +0.000 C 
ATOM     12  O   UNL     1       2.449   5.882  17.809  0.00  0.00    +0.000 OA
ENDBRANCH   9  12
ENDBRANCH   3   9
ENDBRANCH   1   8
BRANCH   2  13
ATOM     13  N   UNL     1       6.622   3.911  18.376  0.00  0.00    +0.000 N 
ATOM     14  H   UNL     1       6.660   3.261  17.588  0.00  0.00    +0.000 HD
BRANCH  13  15
ATOM     15  C   UNL     1       7.066   5.231  18.137  0.00  0.00    +0.000 A 
ATOM     16  C   UNL     1       7.791   5.912  19.139  0.00  0.00    +0.000 A 
ATOM     17  C   UNL     1       8.262   7.215  18.960  0.00  0.00    +0.000 A 
ATOM     18  C   UNL     1       8.040   7.874  17.757  0.00  0.00    +0.000 A 
ATOM     19  C   UNL     1       7.363   7.222  16.728  0.00  0.00    +0.000 A 
ATOM     20  C   UNL     1       6.889   5.905  16.909  0.00  0.00    +0.000 A 
BRANCH  20  21
ATOM     21  N   UNL     1       6.176   5.278  15.786  0.00  0.00    +0.000 N 
ATOM     22  O   UNL     1       6.636   4.228  15.310  0.00  0.00    +0.000 OA
ATOM     23  O   UNL     1       5.146   5.831  15.374  0.00  0.00    +0.000 OA
ENDBRANCH  20  21
ENDBRANCH  13  15
ENDBRANCH   2  13
TORSDOF 6
ENDMDL
MODEL 9
REMARK VINA RESULT:      -7.3      2.307      6.394
REMARK  Name = 
REMARK  7 active torsions:
REMARK  status: ('A' for Active; 'I' for Inactive)
REMARK    1  A    between atoms: C_1  and  O_2
REMARK    2  A    between atoms: O_2  and  C_3
REMARK    3  A    between atoms: C_3  and  C_5
REMARK    4  A    between atoms: C_10  and  N_11
REMARK    5  A    between atoms: N_12  and  N_13
REMARK    6  A    between atoms: N_13  and  C_14
REMARK    7  A    between atoms: C_19  and  N_20
REMARK                            x       y       z     vdW  Elec       q    Type
REMARK                         _______ _______ _______ _____ _____    ______ ____
ROOT
ATOM      1  N   UNL     1       4.641   4.618  18.836  0.00  0.00    +0.000 NA
ATOM      2  N   UNL     1       5.582   3.844  19.092  0.00  0.00    +0.000 NA
ENDROOT
BRANCH   1   8
ATOM      3  C   UNL     1       2.405   5.125  19.787  0.00  0.00    +0.000 A 
ATOM      4  C   UNL     1       1.304   4.713  20.568  0.00  0.00    +0.000 A 
ATOM      5  C   UNL     1       1.278   3.454  21.166  0.00  0.00    +0.000 A 
ATOM      6  C   UNL     1       2.347   2.589  20.990  0.00  0.00    +0.000 A 
ATOM      7  C   UNL     1       3.432   2.985  20.205  0.00  0.00    +0.000 A 
ATOM      8  C   UNL     1       3.499   4.263  19.601  0.00  0.00    +0.000 A 
BRANCH   3   9
ATOM      9  C   UNL     1       2.320   6.507  19.261  0.00  0.00    +0.000 C 
ATOM     10  O   UNL     1       2.524   6.763  18.080  0.00  0.00    +0.000 OA
BRANCH   9  12
ATOM     11  C   UNL     1       1.492   8.627  19.837  0.00  0.00    +0.000 C 
ATOM     12  O   UNL     1       2.132   7.414  20.246  0.00  0.00    +0.000 OA
ENDBRANCH   9  12
ENDBRANCH   3   9
ENDBRANCH   1   8
BRANCH   2  13
ATOM     13  N   UNL     1       6.572   4.071  18.212  0.00  0.00    +0.000 N 
ATOM     14  H   UNL     1       6.560   3.504  17.361  0.00  0.00    +0.000 HD
BRANCH  13  15
ATOM     15  C   UNL     1       7.053   5.393  18.090  0.00  0.00    +0.000 A 
ATOM     16  C   UNL     1       7.851   5.939  19.120  0.00  0.00    +0.000 A 
ATOM     17  C   UNL     1       8.361   7.238  19.055  0.00  0.00    +0.000 A 
ATOM     18  C   UNL     1       8.106   8.030  17.942  0.00  0.00    +0.000 A 
ATOM     19  C   UNL     1       7.356   7.514  16.887  0.00  0.00    +0.000 A 
ATOM     20  C   UNL     1       6.841   6.201  16.951  0.00  0.00    +0.000 A 
BRANCH  20  21
ATOM     21  N   UNL     1       6.051   5.722  15.808  0.00  0.00    +0.000 N 
ATOM     22  O   UNL     1       5.187   6.476  15.333  0.00  0.00    +0.000 OA
ATOM     23  O   UNL     1       6.293   4.587  15.372  0.00  0.00    +0.000 OA
ENDBRANCH  20  21
ENDBRANCH  13  15
ENDBRANCH   2  13
TORSDOF 6
ENDMDL
