MODEL 1
REMARK VINA RESULT:      -7.1      0.000      0.000
REMARK  Name = 
REMARK  6 active torsions:
REMARK  status: ('A' for Active; 'I' for Inactive)
REMARK    1  A    between atoms: C_1  and  S_2
REMARK    2  A    between atoms: S_2  and  C_3
REMARK    3  A    between atoms: C_8  and  C_9
REMARK    4  A    between atoms: C_9  and  C_11
REMARK    5  A    between atoms: N_15  and  C_16
REMARK    6  A    between atoms: C_16  and  C_17
REMARK                            x       y       z     vdW  Elec       q    Type
REMARK                         _______ _______ _______ _____ _____    ______ ____
ROOT
ATOM      1  C   UNL     1       3.458   4.401  19.497  0.00  0.00    +0.000 C 
ATOM      2  C   UNL     1       2.180   3.722  19.001  0.00  0.00    +0.000 C 
ATOM      3  C   UNL     1       1.389   4.423  17.904  0.00  0.00    +0.000 C 
ATOM      4  C   UNL     1       1.569   5.927  17.761  0.00  0.00    +0.000 C 
ATOM      5  N   UNL     1       2.894   6.441  18.087  0.00  0.00    +0.000 NA
ATOM      6  C   UNL     1       3.443   5.936  19.346  0.00  0.00    +0.000 C 
ENDROOT
BRANCH   1   7
ATOM      7  C   UNL     1       4.827   3.814  19.113  0.00  0.00    +0.000 C 
ATOM      8  O   UNL     1       5.295   2.857  19.736  0.00  0.00    +0.000 OA
BRANCH   7  14
ATOM      9  C   UNL     1       6.784   4.736  17.806  0.00  0.00    +0.000 A 
ATOM     10  C   UNL     1       7.403   4.895  16.549  0.00  0.00    +0.000 A 
ATOM     11  C   UNL     1       6.758   4.527  15.360  0.00  0.00    +0.000 A 
ATOM     12  C   UNL     1       5.486   3.970  15.405  0.00  0.00    +0.000 A 
ATOM     13  C   UNL     1       4.878   3.746  16.642  0.00  0.00    +0.000 A 
ATOM     14  C   UNL     1       5.507   4.146  17.838  0.00  0.00    +0.000 A 
BRANCH   9  16
ATOM     15  C   UNL     1       8.056   7.247  18.434  0.00  0.00    +0.000 C 
ATOM     16  S   UNL     1       7.525   5.667  19.160  0.00  0.00    +0.000 S 
ENDBRANCH   9  16
ENDBRANCH   7  14
ENDBRANCH   1   7
BRANCH   5  17
ATOM     17  C   UNL     1       2.926   7.929  18.017  0.00  0.00    +0.000 C 
BRANCH  17  18
ATOM     18  C   UNL     1       1.762   8.694  18.664  0.00  0.00    +0.000 A 
ATOM     19  C   UNL     1       0.916   9.493  17.901  0.00  0.00    +0.000 A 
ATOM     20  C   UNL     1      -0.114  10.201  18.538  0.00  0.00    +0.000 A 
ATOM     21  C   UNL     1      -0.272  10.091  19.908  0.00  0.00    +0.000 A 
ATOM     22  C   UNL     1       0.584   9.247  20.594  0.00  0.00    +0.000 A 
ATOM     23  N   UNL     1       1.590   8.549  20.003  0.00  0.00    +0.000 NA
ENDBRANCH  17  18
ENDBRANCH   5  17
TORSDOF 5
ENDMDL
MODEL 2
REMARK VINA RESULT:      -6.9      3.120      6.687
REMARK  Name = 
REMARK  6 active torsions:
REMARK  status: ('A' for Active; 'I' for Inactive)
REMARK    1  A    between atoms: C_1  and  S_2
REMARK    2  A    between atoms: S_2  and  C_3
REMARK    3  A    between atoms: C_8  and  C_9
REMARK    4  A    between atoms: C_9  and  C_11
REMARK    5  A    between atoms: N_15  and  C_16
REMARK    6  A    between atoms: C_16  and  C_17
REMARK                            x       y       z     vdW  Elec       q    Type
REMARK                         _______ _______ _______ _____ _____    ______ ____
ROOT
ATOM      1  C   UNL     1       4.987   5.236  19.293  0.00  0.00    +0.000 C 
ATOM      2  C   UNL     1       3.967   6.333  18.985  0.00  0.00    +0.000 C 
ATOM      3  C   UNL     1       3.892   6.845  17.553  0.00  0.00    +0.000 C 
ATOM      4  C   UNL     1       5.128   6.673  16.681  0.00  0.00    +0.000 C 
ATOM      5  N   UNL     1       5.929   5.483  16.944  0.00  0.00    +0.000 NA
ATOM      6  C   UNL     1       6.216   5.251  18.360  0.00  0.00    +0.000 C 
ENDROOT
BRANCH   1   7
ATOM      7  C   UNL     1       4.502   3.800  19.555  0.00  0.00    +0.000 C 
ATOM      8  O   UNL     1       5.312   2.877  19.677  0.00  0.00    +0.000 OA
BRANCH   7  14
ATOM      9  C   UNL     1       2.101   3.217  19.020  0.00  0.00    +0.000 A 
ATOM     10  C   UNL     1       0.842   2.808  19.506  0.00  0.00    +0.000 A 
ATOM     11  C   UNL     1       0.577   2.720  20.880  0.00  0.00    +0.000 A 
ATOM     12  C   UNL     1       1.575   3.020  21.799  0.00  0.00    +0.000 A 
ATOM     13  C   UNL     1       2.848   3.368  21.342  0.00  0.00    +0.000 A 
ATOM     14  C   UNL     1       3.110   3.491  19.962  0.00  0.00    +0.000 A 
BRANCH   9  16
ATOM     15  C   UNL     1       3.585   2.893  16.569  0.00  0.00    +0.000 C 
ATOM     16  S   UNL     1       2.138   3.724  17.291  0.00  0.00    +0.000 S 
ENDBRANCH   9  16
ENDBRANCH   7  14
ENDBRANCH   1   7
BRANCH   5  17
ATOM     17  C   UNL     1       7.165   5.473  16.112  0.00  0.00    +0.000 C 
BRANCH  17  18
ATOM     18  C   UNL     1       7.041   4.976  14.664  0.00  0.00    +0.000 A 
ATOM     19  C   UNL     1       6.116   3.997  14.318  0.00  0.00    +0.000 A 
ATOM     20  C   UNL     1       6.060   3.547  12.991  0.00  0.00    +0.000 A 
ATOM     21  C   UNL     1       6.922   4.085  12.051  0.00  0.00    +0.000 A 
ATOM     22  C   UNL     1       7.788   5.082  12.462  0.00  0.00    +0.000 A 
ATOM     23  N   UNL     1       7.864   5.536  13.741  0.00  0.00    +0.000 NA
ENDBRANCH  17  18
ENDBRANCH   5  17
TORSDOF 5
ENDMDL
MODEL 3
REMARK VINA RESULT:      -6.8      1.699      2.670
REMARK  Name = 
REMARK  6 active torsions:
REMARK  status: ('A' for Active; 'I' for Inactive)
REMARK    1  A    between atoms: C_1  and  S_2
REMARK    2  A    between atoms: S_2  and  C_3
REMARK    3  A    between atoms: C_8  and  C_9
REMARK    4  A    between atoms: C_9  and  C_11
REMARK    5  A    between atoms: N_15  and  C_16
REMARK    6  A    between atoms: C_16  and  C_17
REMARK                            x       y       z     vdW  Elec       q    Type
REMARK                         _______ _______ _______ _____ _____    ______ ____
ROOT
ATOM      1  C   UNL     1       4.012   3.503  19.297  0.00  0.00    +0.000 C 
ATOM      2  C   UNL     1       2.940   2.414  19.233  0.00  0.00    +0.000 C 
ATOM      3  C   UNL     1       1.483   2.855  19.279  0.00  0.00    +0.000 C 
ATOM      4  C   UNL     1       1.177   4.203  19.917  0.00  0.00    +0.000 C 
ATOM      5  N   UNL     1       2.200   5.229  19.751  0.00  0.00    +0.000 NA
ATOM      6  C   UNL     1       3.560   4.776  20.044  0.00  0.00    +0.000 C 
ENDROOT
BRANCH   1   7
ATOM      7  C   UNL     1       4.814   3.852  18.032  0.00  0.00    +0.000 C 
ATOM      8  O   UNL     1       4.427   3.479  16.921  0.00  0.00    +0.000 OA
BRANCH   7  14
ATOM      9  C   UNL     1       6.050   5.786  16.972  0.00  0.00    +0.000 A 
ATOM     10  C   UNL     1       7.021   6.797  17.118  0.00  0.00    +0.000 A 
ATOM     11  C   UNL     1       7.844   6.869  18.251  0.00  0.00    +0.000 A 
ATOM     12  C   UNL     1       7.697   5.940  19.275  0.00  0.00    +0.000 A 
ATOM     13  C   UNL     1       6.699   4.967  19.180  0.00  0.00    +0.000 A 
ATOM     14  C   UNL     1       5.893   4.869  18.028  0.00  0.00    +0.000 A 
BRANCH   9  16
ATOM     15  C   UNL     1       6.788   4.813  14.359  0.00  0.00    +0.000 C 
ATOM     16  S   UNL     1       5.419   5.551  15.300  0.00  0.00    +0.000 S 
ENDBRANCH   9  16
ENDBRANCH   7  14
ENDBRANCH   1   7
BRANCH   5  17
ATOM     17  C   UNL     1       1.847   6.466  20.504  0.00  0.00    +0.000 C 
BRANCH  17  18
ATOM     18  C   UNL     1       1.731   7.772  19.705  0.00  0.00    +0.000 A 
ATOM     19  C   UNL     1       2.255   7.877  18.421  0.00  0.00    +0.000 A 
ATOM     20  C   UNL     1       2.157   9.100  17.741  0.00  0.00    +0.000 A 
ATOM     21  C   UNL     1       1.541  10.176  18.356  0.00  0.00    +0.000 A 
ATOM     22  C   UNL     1       1.011   9.984  19.619  0.00  0.00    +0.000 A 
ATOM     23  N   UNL     1       1.091   8.811  20.301  0.00  0.00    +0.000 NA
ENDBRANCH  17  18
ENDBRANCH   5  17
TORSDOF 5
ENDMDL
MODEL 4
REMARK VINA RESULT:      -6.7      1.144      2.088
REMARK  Name = 
REMARK  6 active torsions:
REMARK  status: ('A' for Active; 'I' for Inactive)
REMARK    1  A    between atoms: C_1  and  S_2
REMARK    2  A    between atoms: S_2  and  C_3
REMARK    3  A    between atoms: C_8  and  C_9
REMARK    4  A    between atoms: C_9  and  C_11
REMARK    5  A    between atoms: N_15  and  C_16
REMARK    6  A    between atoms: C_16  and  C_17
REMARK                            x       y       z     vdW  Elec       q    Type
REMARK                         _______ _______ _______ _____ _____    ______ ____
ROOT
ATOM      1  C   UNL     1       3.468   4.513  19.648  0.00  0.00    +0.000 C 
ATOM      2  C   UNL     1       2.279   3.743  19.070  0.00  0.00    +0.000 C 
ATOM      3  C   UNL     1       1.533   4.371  17.900  0.00  0.00    +0.000 C 
ATOM      4  C   UNL     1       1.627   5.882  17.736  0.00  0.00    +0.000 C 
ATOM      5  N   UNL     1       2.888   6.486  18.151  0.00  0.00    +0.000 NA
ATOM      6  C   UNL     1       3.367   6.042  19.460  0.00  0.00    +0.000 C 
ENDROOT
BRANCH   1   7
ATOM      7  C   UNL     1       4.897   4.010  19.384  0.00  0.00    +0.000 C 
ATOM      8  O   UNL     1       5.181   2.819  19.539  0.00  0.00    +0.000 OA
BRANCH   7  14
ATOM      9  C   UNL     1       5.857   5.023  17.276  0.00  0.00    +0.000 A 
ATOM     10  C   UNL     1       6.786   5.916  16.705  0.00  0.00    +0.000 A 
ATOM     11  C   UNL     1       7.766   6.553  17.479  0.00  0.00    +0.000 A 
ATOM     12  C   UNL     1       7.823   6.326  18.848  0.00  0.00    +0.000 A 
ATOM     13  C   UNL     1       6.874   5.493  19.447  0.00  0.00    +0.000 A 
ATOM     14  C   UNL     1       5.909   4.823  18.668  0.00  0.00    +0.000 A 
BRANCH   9  16
ATOM     15  C   UNL     1       5.686   4.342  14.479  0.00  0.00    +0.000 C 
ATOM     16  S   UNL     1       4.992   3.951  16.112  0.00  0.00    +0.000 S 
ENDBRANCH   9  16
ENDBRANCH   7  14
ENDBRANCH   1   7
BRANCH   5  17
ATOM     17  C   UNL     1       2.830   7.971  18.049  0.00  0.00    +0.000 C 
BRANCH  17  18
ATOM     18  C   UNL     1       1.671   8.686  18.758  0.00  0.00    +0.000 A 
ATOM     19  C   UNL     1       0.792   9.501  18.053  0.00  0.00    +0.000 A 
ATOM     20  C   UNL     1      -0.234  10.162  18.746  0.00  0.00    +0.000 A 
ATOM     21  C   UNL     1      -0.354   9.990  20.113  0.00  0.00    +0.000 A 
ATOM     22  C   UNL     1       0.534   9.134  20.740  0.00  0.00    +0.000 A 
ATOM     23  N   UNL     1       1.536   8.481  20.094  0.00  0.00    +0.000 NA
ENDBRANCH  17  18
ENDBRANCH   5  17
TORSDOF 5
ENDMDL
MODEL 5
REMARK VINA RESULT:      -6.7      1.818      2.232
REMARK  Name = 
REMARK  6 active torsions:
REMARK  status: ('A' for Active; 'I' for Inactive)
REMARK    1  A    between atoms: C_1  and  S_2
REMARK    2  A    between atoms: S_2  and  C_3
REMARK    3  A    between atoms: C_8  and  C_9
REMARK    4  A    between atoms: C_9  and  C_11
REMARK    5  A    between atoms: N_15  and  C_16
REMARK    6  A    between atoms: C_16  and  C_17
REMARK                            x       y       z     vdW  Elec       q    Type
REMARK                         _______ _______ _______ _____ _____    ______ ____
ROOT
ATOM      1  C   UNL     1       3.934   4.795  18.423  0.00  0.00    +0.000 C 
ATOM      2  C   UNL     1       3.089   3.540  18.199  0.00  0.00    +0.000 C 
ATOM      3  C   UNL     1       1.652   3.557  18.702  0.00  0.00    +0.000 C 
ATOM      4  C   UNL     1       1.314   4.523  19.828  0.00  0.00    +0.000 C 
ATOM      5  N   UNL     1       2.058   5.777  19.832  0.00  0.00    +0.000 NA
ATOM      6  C   UNL     1       3.502   5.622  19.653  0.00  0.00    +0.000 C 
ENDROOT
BRANCH   1   7
ATOM      7  C   UNL     1       4.274   5.704  17.230  0.00  0.00    +0.000 C 
ATOM      8  O   UNL     1       3.908   6.882  17.215  0.00  0.00    +0.000 OA
BRANCH   7  14
ATOM      9  C   UNL     1       6.655   5.542  16.396  0.00  0.00    +0.000 A 
ATOM     10  C   UNL     1       7.539   5.036  15.422  0.00  0.00    +0.000 A 
ATOM     11  C   UNL     1       7.073   4.384  14.271  0.00  0.00    +0.000 A 
ATOM     12  C   UNL     1       5.708   4.205  14.082  0.00  0.00    +0.000 A 
ATOM     13  C   UNL     1       4.815   4.643  15.063  0.00  0.00    +0.000 A 
ATOM     14  C   UNL     1       5.277   5.330  16.204  0.00  0.00    +0.000 A 
BRANCH   9  16
ATOM     15  C   UNL     1       7.662   5.818  19.084  0.00  0.00    +0.000 C 
ATOM     16  S   UNL     1       7.365   6.737  17.544  0.00  0.00    +0.000 S 
ENDBRANCH   9  16
ENDBRANCH   7  14
ENDBRANCH   1   7
BRANCH   5  17
ATOM     17  C   UNL     1       1.727   6.595  21.033  0.00  0.00    +0.000 C 
BRANCH  17  18
ATOM     18  C   UNL     1       1.318   8.057  20.805  0.00  0.00    +0.000 A 
ATOM     19  C   UNL     1       0.796   8.826  21.839  0.00  0.00    +0.000 A 
ATOM     20  C   UNL     1       0.404  10.148  21.578  0.00  0.00    +0.000 A 
ATOM     21  C   UNL     1       0.544  10.661  20.301  0.00  0.00    +0.000 A 
ATOM     22  C   UNL     1       1.106   9.848  19.333  0.00  0.00    +0.000 A 
ATOM     23  N   UNL     1       1.494   8.565  19.558  0.00  0.00    +0.000 NA
ENDBRANCH  17  18
ENDBRANCH   5  17
TORSDOF 5
ENDMDL
MODEL 6
REMARK VINA RESULT:      -6.7      1.514      2.069
REMARK  Name = 
REMARK  6 active torsions:
REMARK  status: ('A' for Active; 'I' for Inactive)
REMARK    1  A    between atoms: C_1  and  S_2
REMARK    2  A    between atoms: S_2  and  C_3
REMARK    3  A    between atoms: C_8  and  C_9
REMARK    4  A    between atoms: C_9  and  C_11
REMARK    5  A    between atoms: N_15  and  C_16
REMARK    6  A    between atoms: C_16  and  C_17
REMARK                            x       y       z     vdW  Elec       q    Type
REMARK                         _______ _______ _______ _____ _____    ______ ____
ROOT
ATOM      1  C   UNL     1       3.137   2.945  20.710  0.00  0.00    +0.000 C 
ATOM      2  C   UNL     1       1.863   2.214  20.286  0.00  0.00    +0.000 C 
ATOM      3  C   UNL     1       0.721   3.053  19.726  0.00  0.00    +0.000 C 
ATOM      4  C   UNL     1       0.674   4.523  20.117  0.00  0.00    +0.000 C 
ATOM      5  N   UNL     1       1.966   5.168  20.315  0.00  0.00    +0.000 NA
ATOM      6  C   UNL     1       2.898   4.406  21.147  0.00  0.00    +0.000 C 
ENDROOT
BRANCH   1   7
ATOM      7  C   UNL     1       4.406   2.819  19.851  0.00  0.00    +0.000 C 
ATOM      8  O   UNL     1       5.246   1.948  20.097  0.00  0.00    +0.000 OA
BRANCH   7  14
ATOM      9  C   UNL     1       5.629   4.373  18.276  0.00  0.00    +0.000 A 
ATOM     10  C   UNL     1       5.756   4.875  16.965  0.00  0.00    +0.000 A 
ATOM     11  C   UNL     1       4.824   4.565  15.965  0.00  0.00    +0.000 A 
ATOM     12  C   UNL     1       3.753   3.727  16.251  0.00  0.00    +0.000 A 
ATOM     13  C   UNL     1       3.641   3.168  17.526  0.00  0.00    +0.000 A 
ATOM     14  C   UNL     1       4.555   3.504  18.544  0.00  0.00    +0.000 A 
BRANCH   9  16
ATOM     15  C   UNL     1       7.727   6.323  18.615  0.00  0.00    +0.000 C 
ATOM     16  S   UNL     1       6.610   5.218  19.530  0.00  0.00    +0.000 S 
ENDBRANCH   9  16
ENDBRANCH   7  14
ENDBRANCH   1   7
BRANCH   5  17
ATOM     17  C   UNL     1       1.800   6.568  20.798  0.00  0.00    +0.000 C 
BRANCH  17  18
ATOM     18  C   UNL     1       1.819   7.687  19.747  0.00  0.00    +0.000 A 
ATOM     19  C   UNL     1       2.474   7.520  18.531  0.00  0.00    +0.000 A 
ATOM     20  C   UNL     1       2.495   8.580  17.614  0.00  0.00    +0.000 A 
ATOM     21  C   UNL     1       1.864   9.770  17.931  0.00  0.00    +0.000 A 
ATOM     22  C   UNL     1       1.201   9.849  19.143  0.00  0.00    +0.000 A 
ATOM     23  N   UNL     1       1.164   8.837  20.050  0.00  0.00    +0.000 NA
ENDBRANCH  17  18
ENDBRANCH   5  17
TORSDOF 5
ENDMDL
MODEL 7
REMARK VINA RESULT:      -6.7      1.284      2.343
REMARK  Name = 
REMARK  6 active torsions:
REMARK  status: ('A' for Active; 'I' for Inactive)
REMARK    1  A    between atoms: C_1  and  S_2
REMARK    2  A    between atoms: S_2  and  C_3
REMARK    3  A    between atoms: C_8  and  C_9
REMARK    4  A    between atoms: C_9  and  C_11
REMARK    5  A    between atoms: N_15  and  C_16
REMARK    6  A    between atoms: C_16  and  C_17
REMARK                            x       y       z     vdW  Elec       q    Type
REMARK                         _______ _______ _______ _____ _____    ______ ____
ROOT
ATOM      1  C   UNL     1       3.517   4.373  19.647  0.00  0.00    +0.000 C 
ATOM      2  C   UNL     1       2.363   3.580  19.032  0.00  0.00    +0.000 C 
ATOM      3  C   UNL     1       1.596   4.223  17.884  0.00  0.00    +0.000 C 
ATOM      4  C   UNL     1       1.629   5.742  17.782  0.00  0.00    +0.000 C 
ATOM      5  N   UNL     1       2.862   6.380  18.228  0.00  0.00    +0.000 NA
ATOM      6  C   UNL     1       3.355   5.903  19.521  0.00  0.00    +0.000 C 
ENDROOT
BRANCH   1   7
ATOM      7  C   UNL     1       4.967   3.940  19.371  0.00  0.00    +0.000 C 
ATOM      8  O   UNL     1       5.304   2.760  19.499  0.00  0.00    +0.000 OA
BRANCH   7  14
ATOM      9  C   UNL     1       5.865   5.057  17.289  0.00  0.00    +0.000 A 
ATOM     10  C   UNL     1       6.755   6.003  16.739  0.00  0.00    +0.000 A 
ATOM     11  C   UNL     1       7.720   6.649  17.524  0.00  0.00    +0.000 A 
ATOM     12  C   UNL     1       7.801   6.378  18.884  0.00  0.00    +0.000 A 
ATOM     13  C   UNL     1       6.890   5.492  19.464  0.00  0.00    +0.000 A 
ATOM     14  C   UNL     1       5.941   4.814  18.672  0.00  0.00    +0.000 A 
BRANCH   9  16
ATOM     15  C   UNL     1       6.092   3.975  14.625  0.00  0.00    +0.000 C 
ATOM     16  S   UNL     1       5.027   3.995  16.098  0.00  0.00    +0.000 S 
ENDBRANCH   9  16
ENDBRANCH   7  14
ENDBRANCH   1   7
BRANCH   5  17
ATOM     17  C   UNL     1       2.744   7.865  18.186  0.00  0.00    +0.000 C 
BRANCH  17  18
ATOM     18  C   UNL     1       1.713   8.520  19.116  0.00  0.00    +0.000 A 
ATOM     19  C   UNL     1       1.589   8.123  20.444  0.00  0.00    +0.000 A 
ATOM     20  C   UNL     1       0.611   8.725  21.249  0.00  0.00    +0.000 A 
ATOM     21  C   UNL     1      -0.209   9.701  20.712  0.00  0.00    +0.000 A 
ATOM     22  C   UNL     1      -0.001  10.070  19.396  0.00  0.00    +0.000 A 
ATOM     23  N   UNL     1       0.939   9.504  18.592  0.00  0.00    +0.000 NA
ENDBRANCH  17  18
ENDBRANCH   5  17
TORSDOF 5
ENDMDL
MODEL 8
REMARK VINA RESULT:      -6.7      1.718      2.748
REMARK  Name = 
REMARK  6 active torsions:
REMARK  status: ('A' for Active; 'I' for Inactive)
REMARK    1  A    between atoms: C_1  and  S_2
REMARK    2  A    between atoms: S_2  and  C_3
REMARK    3  A    between atoms: C_8  and  C_9
REMARK    4  A    between atoms: C_9  and  C_11
REMARK    5  A    between atoms: N_15  and  C_16
REMARK    6  A    between atoms: C_16  and  C_17
REMARK                            x       y       z     vdW  Elec       q    Type
REMARK                         _______ _______ _______ _____ _____    ______ ____
ROOT
ATOM      1  C   UNL     1       4.071   3.491  19.153  0.00  0.00    +0.000 C 
ATOM      2  C   UNL     1       2.988   2.418  19.028  0.00  0.00    +0.000 C 
ATOM      3  C   UNL     1       1.535   2.871  19.093  0.00  0.00    +0.000 C 
ATOM      4  C   UNL     1       1.241   4.186  19.801  0.00  0.00    +0.000 C 
ATOM      5  N   UNL     1       2.275   5.209  19.694  0.00  0.00    +0.000 NA
ATOM      6  C   UNL     1       3.630   4.727  19.966  0.00  0.00    +0.000 C 
ENDROOT
BRANCH   1   7
ATOM      7  C   UNL     1       4.882   3.899  17.912  0.00  0.00    +0.000 C 
ATOM      8  O   UNL     1       4.503   3.576  16.782  0.00  0.00    +0.000 OA
BRANCH   7  14
ATOM      9  C   UNL     1       6.115   5.886  16.953  0.00  0.00    +0.000 A 
ATOM     10  C   UNL     1       7.084   6.891  17.153  0.00  0.00    +0.000 A 
ATOM     11  C   UNL     1       7.903   6.909  18.291  0.00  0.00    +0.000 A 
ATOM     12  C   UNL     1       7.754   5.931  19.266  0.00  0.00    +0.000 A 
ATOM     13  C   UNL     1       6.760   4.961  19.120  0.00  0.00    +0.000 A 
ATOM     14  C   UNL     1       5.958   4.918  17.962  0.00  0.00    +0.000 A 
BRANCH   9  16
ATOM     15  C   UNL     1       6.731   4.751  14.374  0.00  0.00    +0.000 C 
ATOM     16  S   UNL     1       5.490   5.733  15.269  0.00  0.00    +0.000 S 
ENDBRANCH   9  16
ENDBRANCH   7  14
ENDBRANCH   1   7
BRANCH   5  17
ATOM     17  C   UNL     1       1.931   6.407  20.510  0.00  0.00    +0.000 C 
BRANCH  17  18
ATOM     18  C   UNL     1       1.764   7.743  19.772  0.00  0.00    +0.000 A 
ATOM     19  C   UNL     1       1.091   8.809  20.361  0.00  0.00    +0.000 A 
ATOM     20  C   UNL     1       0.932  10.000  19.637  0.00  0.00    +0.000 A 
ATOM     21  C   UNL     1       1.447  10.095  18.357  0.00  0.00    +0.000 A 
ATOM     22  C   UNL     1       2.138   9.007  17.854  0.00  0.00    +0.000 A 
ATOM     23  N   UNL     1       2.307   7.841  18.532  0.00  0.00    +0.000 NA
ENDBRANCH  17  18
ENDBRANCH   5  17
TORSDOF 5
ENDMDL
MODEL 9
REMARK VINA RESULT:      -6.6      2.540      4.747
REMARK  Name = 
REMARK  6 active torsions:
REMARK  status: ('A' for Active; 'I' for Inactive)
REMARK    1  A    between atoms: C_1  and  S_2
REMARK    2  A    between atoms: S_2  and  C_3
REMARK    3  A    between atoms: C_8  and  C_9
REMARK    4  A    between atoms: C_9  and  C_11
REMARK    5  A    between atoms: N_15  and  C_16
REMARK    6  A    between atoms: C_16  and  C_17
REMARK                            x       y       z     vdW  Elec       q    Type
REMARK                         _______ _______ _______ _____ _____    ______ ____
ROOT
ATOM      1  C   UNL     1       2.174   7.686  19.825  0.00  0.00    +0.000 C 
ATOM      2  C   UNL     1       1.692   7.710  21.277  0.00  0.00    +0.000 C 
ATOM      3  C   UNL     1       0.398   8.455  21.578  0.00  0.00    +0.000 C 
ATOM      4  C   UNL     1      -0.027   9.546  20.605  0.00  0.00    +0.000 C 
ATOM      5  N   UNL     1       0.328   9.322  19.208  0.00  0.00    +0.000 NA
ATOM      6  C   UNL     1       1.715   8.905  18.998  0.00  0.00    +0.000 C 
ENDROOT
BRANCH   1   7
ATOM      7  C   UNL     1       2.066   6.385  19.012  0.00  0.00    +0.000 C 
ATOM      8  O   UNL     1       2.140   6.408  17.780  0.00  0.00    +0.000 OA
BRANCH   7  14
ATOM      9  C   UNL     1       3.407   4.423  19.875  0.00  0.00    +0.000 A 
ATOM     10  C   UNL     1       3.406   3.208  20.590  0.00  0.00    +0.000 A 
ATOM     11  C   UNL     1       2.214   2.603  21.012  0.00  0.00    +0.000 A 
ATOM     12  C   UNL     1       0.995   3.213  20.746  0.00  0.00    +0.000 A 
ATOM     13  C   UNL     1       0.973   4.448  20.094  0.00  0.00    +0.000 A 
ATOM     14  C   UNL     1       2.167   5.044  19.637  0.00  0.00    +0.000 A 
BRANCH   9  16
ATOM     15  C   UNL     1       4.791   4.052  17.372  0.00  0.00    +0.000 C 
ATOM     16  S   UNL     1       4.940   4.817  19.015  0.00  0.00    +0.000 S 
ENDBRANCH   9  16
ENDBRANCH   7  14
ENDBRANCH   1   7
BRANCH   5  17
ATOM     17  C   UNL     1      -0.038  10.496  18.367  0.00  0.00    +0.000 C 
BRANCH  17  18
ATOM     18  C   UNL     1      -1.500  10.615  17.913  0.00  0.00    +0.000 A 
ATOM     19  C   UNL     1      -1.981   9.874  16.839  0.00  0.00    +0.000 A 
ATOM     20  C   UNL     1      -3.315  10.039  16.438  0.00  0.00    +0.000 A 
ATOM     21  C   UNL     1      -4.127  10.932  17.115  0.00  0.00    +0.000 A 
ATOM     22  C   UNL     1      -3.588  11.604  18.197  0.00  0.00    +0.000 A 
ATOM     23  N   UNL     1      -2.300  11.464  18.608  0.00  0.00    +0.000 NA
ENDBRANCH  17  18
ENDBRANCH   5  17
TORSDOF 5
ENDMDL
