MODEL 1
REMARK VINA RESULT:      -6.7      0.000      0.000
REMARK  Name = 
REMARK  8 active torsions:
REMARK  status: ('A' for Active; 'I' for Inactive)
REMARK    1  A    between atoms: C_1  and  O_2
REMARK    2  A    between atoms: O_2  and  C_3
REMARK    3  A    between atoms: C_3  and  C_5
REMARK    4  A    between atoms: C_6  and  C_7
REMARK    5  A    between atoms: N_13  and  C_14
REMARK    6  A    between atoms: C_14  and  C_15
REMARK    7  A    between atoms: C_18  and  O_19
REMARK    8  A    between atoms: O_19  and  C_20
REMARK                            x       y       z     vdW  Elec       q    Type
REMARK                         _______ _______ _______ _____ _____    ______ ____
ROOT
ATOM      1  C   UNL     1       4.445   4.621  17.777  0.00  0.00    +0.000 A 
ATOM      2  C   UNL     1       4.863   3.742  16.754  0.00  0.00    +0.000 A 
ATOM      3  C   UNL     1       4.099   2.625  16.370  0.00  0.00    +0.000 A 
ATOM      4  C   UNL     1       2.891   2.358  16.999  0.00  0.00    +0.000 A 
ATOM      5  C   UNL     1       2.495   3.231  17.997  0.00  0.00    +0.000 A 
ATOM      6  C   UNL     1       3.232   4.352  18.407  0.00  0.00    +0.000 A 
ATOM      7  N   UNL     1       2.546   5.016  19.453  0.00  0.00    +0.000 N 
ATOM      8  C   UNL     1       1.352   4.372  19.753  0.00  0.00    +0.000 C 
ATOM      9  O   UNL     1       0.503   4.661  20.572  0.00  0.00    +0.000 OA
ATOM     10  C   UNL     1       1.280   3.168  18.801  0.00  0.00    +0.000 C 
ATOM     11  O   UNL     1       0.399   2.339  18.731  0.00  0.00    +0.000 OA
ENDROOT
BRANCH   1  13
ATOM     12  C   UNL     1       6.608   5.747  17.647  0.00  0.00    +0.000 C 
ATOM     13  C   UNL     1       5.335   5.744  18.065  0.00  0.00    +0.000 C 
BRANCH  12  14
ATOM     14  C   UNL     1       7.517   6.835  18.060  0.00  0.00    +0.000 C 
ATOM     15  O   UNL     1       8.313   6.774  18.982  0.00  0.00    +0.000 OA
BRANCH  14  17
ATOM     16  C   UNL     1       7.899   9.102  17.655  0.00  0.00    +0.000 C 
ATOM     17  O   UNL     1       7.339   7.869  17.203  0.00  0.00    +0.000 OA
ENDBRANCH  14  17
ENDBRANCH  12  14
ENDBRANCH   1  13
BRANCH   7  18
ATOM     18  C   UNL     1       2.967   6.204  20.157  0.00  0.00    +0.000 C 
BRANCH  18  19
ATOM     19  C   UNL     1       2.252   7.473  19.747  0.00  0.00    +0.000 A 
ATOM     20  C   UNL     1       2.302   7.973  18.439  0.00  0.00    +0.000 A 
ATOM     21  C   UNL     1       1.577   9.113  18.081  0.00  0.00    +0.000 A 
ATOM     22  C   UNL     1       0.763   9.755  19.012  0.00  0.00    +0.000 A 
ATOM     23  C   UNL     1       0.707   9.274  20.319  0.00  0.00    +0.000 A 
ATOM     24  C   UNL     1       1.433   8.134  20.677  0.00  0.00    +0.000 A 
BRANCH  22  25
ATOM     25  O   UNL     1       0.087  10.849  18.549  0.00  0.00    +0.000 OA
ATOM     26  C   UNL     1       0.741  12.096  18.760  0.00  0.00    +0.000 C 
ENDBRANCH  22  25
ENDBRANCH  18  19
ENDBRANCH   7  18
TORSDOF 6
ENDMDL
MODEL 2
REMARK VINA RESULT:      -6.7      0.507      1.407
REMARK  Name = 
REMARK  8 active torsions:
REMARK  status: ('A' for Active; 'I' for Inactive)
REMARK    1  A    between atoms: C_1  and  O_2
REMARK    2  A    between atoms: O_2  and  C_3
REMARK    3  A    between atoms: C_3  and  C_5
REMARK    4  A    between atoms: C_6  and  C_7
REMARK    5  A    between atoms: N_13  and  C_14
REMARK    6  A    between atoms: C_14  and  C_15
REMARK    7  A    between atoms: C_18  and  O_19
REMARK    8  A    between atoms: O_19  and  C_20
REMARK                            x       y       z     vdW  Elec       q    Type
REMARK                         _______ _______ _______ _____ _____    ______ ____
ROOT
ATOM      1  C   UNL     1       4.397   4.839  17.616  0.00  0.00    +0.000 A 
ATOM      2  C   UNL     1       4.798   3.899  16.640  0.00  0.00    +0.000 A 
ATOM      3  C   UNL     1       4.080   2.713  16.406  0.00  0.00    +0.000 A 
ATOM      4  C   UNL     1       2.936   2.433  17.142  0.00  0.00    +0.000 A 
ATOM      5  C   UNL     1       2.557   3.365  18.091  0.00  0.00    +0.000 A 
ATOM      6  C   UNL     1       3.249   4.557  18.353  0.00  0.00    +0.000 A 
ATOM      7  N   UNL     1       2.596   5.268  19.389  0.00  0.00    +0.000 N 
ATOM      8  C   UNL     1       1.468   4.587  19.828  0.00  0.00    +0.000 C 
ATOM      9  O   UNL     1       0.661   4.896  20.680  0.00  0.00    +0.000 OA
ATOM     10  C   UNL     1       1.405   3.303  18.984  0.00  0.00    +0.000 C 
ATOM     11  O   UNL     1       0.575   2.423  19.047  0.00  0.00    +0.000 OA
ENDROOT
BRANCH   1  13
ATOM     12  C   UNL     1       6.537   6.001  17.436  0.00  0.00    +0.000 C 
ATOM     13  C   UNL     1       5.233   6.030  17.745  0.00  0.00    +0.000 C 
BRANCH  12  14
ATOM     14  C   UNL     1       7.382   7.184  17.696  0.00  0.00    +0.000 C 
ATOM     15  O   UNL     1       7.352   8.223  17.058  0.00  0.00    +0.000 OA
BRANCH  14  17
ATOM     16  C   UNL     1       8.017   5.579  19.268  0.00  0.00    +0.000 C 
ATOM     17  O   UNL     1       8.137   6.919  18.788  0.00  0.00    +0.000 OA
ENDBRANCH  14  17
ENDBRANCH  12  14
ENDBRANCH   1  13
BRANCH   7  18
ATOM     18  C   UNL     1       2.990   6.534  19.961  0.00  0.00    +0.000 C 
BRANCH  18  19
ATOM     19  C   UNL     1       2.126   7.710  19.559  0.00  0.00    +0.000 A 
ATOM     20  C   UNL     1       1.341   8.414  20.483  0.00  0.00    +0.000 A 
ATOM     21  C   UNL     1       0.606   9.535  20.089  0.00  0.00    +0.000 A 
ATOM     22  C   UNL     1       0.666   9.994  18.774  0.00  0.00    +0.000 A 
ATOM     23  C   UNL     1       1.436   9.302  17.842  0.00  0.00    +0.000 A 
ATOM     24  C   UNL     1       2.172   8.179  18.237  0.00  0.00    +0.000 A 
BRANCH  22  25
ATOM     25  O   UNL     1      -0.081  11.107  18.504  0.00  0.00    +0.000 OA
ATOM     26  C   UNL     1       0.370  12.302  19.133  0.00  0.00    +0.000 C 
ENDBRANCH  22  25
ENDBRANCH  18  19
ENDBRANCH   7  18
TORSDOF 6
ENDMDL
MODEL 3
REMARK VINA RESULT:      -6.6      1.355      2.082
REMARK  Name = 
REMARK  8 active torsions:
REMARK  status: ('A' for Active; 'I' for Inactive)
REMARK    1  A    between atoms: C_1  and  O_2
REMARK    2  A    between atoms: O_2  and  C_3
REMARK    3  A    between atoms: C_3  and  C_5
REMARK    4  A    between atoms: C_6  and  C_7
REMARK    5  A    between atoms: N_13  and  C_14
REMARK    6  A    between atoms: C_14  and  C_15
REMARK    7  A    between atoms: C_18  and  O_19
REMARK    8  A    between atoms: O_19  and  C_20
REMARK                            x       y       z     vdW  Elec       q    Type
REMARK                         _______ _______ _______ _____ _____    ______ ____
ROOT
ATOM      1  C   UNL     1       5.829   5.799  17.049  0.00  0.00    +0.000 A 
ATOM      2  C   UNL     1       6.578   5.296  15.962  0.00  0.00    +0.000 A 
ATOM      3  C   UNL     1       6.163   4.171  15.226  0.00  0.00    +0.000 A 
ATOM      4  C   UNL     1       4.983   3.518  15.557  0.00  0.00    +0.000 A 
ATOM      5  C   UNL     1       4.262   4.025  16.623  0.00  0.00    +0.000 A 
ATOM      6  C   UNL     1       4.646   5.142  17.380  0.00  0.00    +0.000 A 
ATOM      7  N   UNL     1       3.690   5.379  18.397  0.00  0.00    +0.000 N 
ATOM      8  C   UNL     1       2.658   4.451  18.338  0.00  0.00    +0.000 C 
ATOM      9  O   UNL     1       1.666   4.354  19.030  0.00  0.00    +0.000 OA
ATOM     10  C   UNL     1       3.004   3.522  17.163  0.00  0.00    +0.000 C 
ATOM     11  O   UNL     1       2.366   2.571  16.766  0.00  0.00    +0.000 OA
ENDROOT
BRANCH   1  13
ATOM     12  C   UNL     1       7.575   7.474  17.381  0.00  0.00    +0.000 C 
ATOM     13  C   UNL     1       6.376   6.977  17.717  0.00  0.00    +0.000 C 
BRANCH  12  14
ATOM     14  C   UNL     1       8.156   8.588  18.157  0.00  0.00    +0.000 C 
ATOM     15  O   UNL     1       8.879   8.463  19.131  0.00  0.00    +0.000 OA
BRANCH  14  17
ATOM     16  C   UNL     1       8.610  10.861  17.890  0.00  0.00    +0.000 C 
ATOM     17  O   UNL     1       7.784   9.745  17.559  0.00  0.00    +0.000 OA
ENDBRANCH  14  17
ENDBRANCH  12  14
ENDBRANCH   1  13
BRANCH   7  18
ATOM     18  C   UNL     1       3.716   6.424  19.393  0.00  0.00    +0.000 C 
BRANCH  18  19
ATOM     19  C   UNL     1       2.696   7.524  19.189  0.00  0.00    +0.000 A 
ATOM     20  C   UNL     1       1.851   7.963  20.217  0.00  0.00    +0.000 A 
ATOM     21  C   UNL     1       0.966   9.025  20.010  0.00  0.00    +0.000 A 
ATOM     22  C   UNL     1       0.932   9.689  18.786  0.00  0.00    +0.000 A 
ATOM     23  C   UNL     1       1.762   9.261  17.751  0.00  0.00    +0.000 A 
ATOM     24  C   UNL     1       2.647   8.198  17.958  0.00  0.00    +0.000 A 
BRANCH  22  25
ATOM     25  O   UNL     1       0.041  10.723  18.701  0.00  0.00    +0.000 OA
ATOM     26  C   UNL     1      -1.319  10.333  18.541  0.00  0.00    +0.000 C 
ENDBRANCH  22  25
ENDBRANCH  18  19
ENDBRANCH   7  18
TORSDOF 6
ENDMDL
MODEL 4
REMARK VINA RESULT:      -6.6      2.537      6.280
REMARK  Name = 
REMARK  8 active torsions:
REMARK  status: ('A' for Active; 'I' for Inactive)
REMARK    1  A    between atoms: C_1  and  O_2
REMARK    2  A    between atoms: O_2  and  C_3
REMARK    3  A    between atoms: C_3  and  C_5
REMARK    4  A    between atoms: C_6  and  C_7
REMARK    5  A    between atoms: N_13  and  C_14
REMARK    6  A    between atoms: C_14  and  C_15
REMARK    7  A    between atoms: C_18  and  O_19
REMARK    8  A    between atoms: O_19  and  C_20
REMARK                            x       y       z     vdW  Elec       q    Type
REMARK                         _______ _______ _______ _____ _____    ______ ____
ROOT
ATOM      1  C   UNL     1       2.093   5.303  19.297  0.00  0.00    +0.000 A 
ATOM      2  C   UNL     1       1.000   4.780  20.024  0.00  0.00    +0.000 A 
ATOM      3  C   UNL     1       1.101   3.595  20.775  0.00  0.00    +0.000 A 
ATOM      4  C   UNL     1       2.301   2.899  20.821  0.00  0.00    +0.000 A 
ATOM      5  C   UNL     1       3.361   3.426  20.105  0.00  0.00    +0.000 A 
ATOM      6  C   UNL     1       3.296   4.603  19.345  0.00  0.00    +0.000 A 
ATOM      7  N   UNL     1       4.551   4.845  18.735  0.00  0.00    +0.000 N 
ATOM      8  C   UNL     1       5.470   3.861  19.077  0.00  0.00    +0.000 C 
ATOM      9  O   UNL     1       6.636   3.749  18.761  0.00  0.00    +0.000 OA
ATOM     10  C   UNL     1       4.711   2.887  19.993  0.00  0.00    +0.000 C 
ATOM     11  O   UNL     1       5.143   1.882  20.514  0.00  0.00    +0.000 OA
ENDROOT
BRANCH   1  13
ATOM     12  C   UNL     1       2.143   7.737  19.107  0.00  0.00    +0.000 C 
ATOM     13  C   UNL     1       1.847   6.546  18.569  0.00  0.00    +0.000 C 
BRANCH  12  14
ATOM     14  C   UNL     1       1.769   8.978  18.400  0.00  0.00    +0.000 C 
ATOM     15  O   UNL     1       2.163   9.303  17.293  0.00  0.00    +0.000 OA
BRANCH  14  17
ATOM     16  C   UNL     1       0.906  11.060  19.009  0.00  0.00    +0.000 C 
ATOM     17  O   UNL     1       0.879   9.642  19.177  0.00  0.00    +0.000 OA
ENDBRANCH  14  17
ENDBRANCH  12  14
ENDBRANCH   1  13
BRANCH   7  18
ATOM     18  C   UNL     1       4.903   5.945  17.868  0.00  0.00    +0.000 C 
BRANCH  18  19
ATOM     19  C   UNL     1       5.476   5.539  16.527  0.00  0.00    +0.000 A 
ATOM     20  C   UNL     1       6.783   5.865  16.140  0.00  0.00    +0.000 A 
ATOM     21  C   UNL     1       7.301   5.418  14.921  0.00  0.00    +0.000 A 
ATOM     22  C   UNL     1       6.535   4.612  14.081  0.00  0.00    +0.000 A 
ATOM     23  C   UNL     1       5.231   4.284  14.447  0.00  0.00    +0.000 A 
ATOM     24  C   UNL     1       4.713   4.732  15.667  0.00  0.00    +0.000 A 
BRANCH  22  25
ATOM     25  O   UNL     1       7.147   4.221  12.922  0.00  0.00    +0.000 OA
ATOM     26  C   UNL     1       6.380   3.347  12.101  0.00  0.00    +0.000 C 
ENDBRANCH  22  25
ENDBRANCH  18  19
ENDBRANCH   7  18
TORSDOF 6
ENDMDL
MODEL 5
REMARK VINA RESULT:      -6.6      1.306      1.839
REMARK  Name = 
REMARK  8 active torsions:
REMARK  status: ('A' for Active; 'I' for Inactive)
REMARK    1  A    between atoms: C_1  and  O_2
REMARK    2  A    between atoms: O_2  and  C_3
REMARK    3  A    between atoms: C_3  and  C_5
REMARK    4  A    between atoms: C_6  and  C_7
REMARK    5  A    between atoms: N_13  and  C_14
REMARK    6  A    between atoms: C_14  and  C_15
REMARK    7  A    between atoms: C_18  and  O_19
REMARK    8  A    between atoms: O_19  and  C_20
REMARK                            x       y       z     vdW  Elec       q    Type
REMARK                         _______ _______ _______ _____ _____    ______ ____
ROOT
ATOM      1  C   UNL     1       3.921   4.009  17.739  0.00  0.00    +0.000 A 
ATOM      2  C   UNL     1       4.005   2.687  17.249  0.00  0.00    +0.000 A 
ATOM      3  C   UNL     1       3.269   1.632  17.818  0.00  0.00    +0.000 A 
ATOM      4  C   UNL     1       2.426   1.871  18.895  0.00  0.00    +0.000 A 
ATOM      5  C   UNL     1       2.355   3.172  19.360  0.00  0.00    +0.000 A 
ATOM      6  C   UNL     1       3.075   4.247  18.819  0.00  0.00    +0.000 A 
ATOM      7  N   UNL     1       2.777   5.429  19.540  0.00  0.00    +0.000 N 
ATOM      8  C   UNL     1       1.860   5.178  20.553  0.00  0.00    +0.000 C 
ATOM      9  O   UNL     1       1.363   5.944  21.353  0.00  0.00    +0.000 OA
ATOM     10  C   UNL     1       1.552   3.675  20.469  0.00  0.00    +0.000 C 
ATOM     11  O   UNL     1       0.800   3.039  21.174  0.00  0.00    +0.000 OA
ENDROOT
BRANCH   1  13
ATOM     12  C   UNL     1       5.988   4.730  16.656  0.00  0.00    +0.000 C 
ATOM     13  C   UNL     1       4.735   5.005  17.046  0.00  0.00    +0.000 C 
BRANCH  12  14
ATOM     14  C   UNL     1       6.828   5.795  16.072  0.00  0.00    +0.000 C 
ATOM     15  O   UNL     1       7.619   5.643  15.156  0.00  0.00    +0.000 OA
BRANCH  14  17
ATOM     16  C   UNL     1       7.546   7.449  17.554  0.00  0.00    +0.000 C 
ATOM     17  O   UNL     1       6.516   6.955  16.696  0.00  0.00    +0.000 OA
ENDBRANCH  14  17
ENDBRANCH  12  14
ENDBRANCH   1  13
BRANCH   7  18
ATOM     18  C   UNL     1       3.312   6.750  19.309  0.00  0.00    +0.000 C 
BRANCH  18  19
ATOM     19  C   UNL     1       2.273   7.831  19.103  0.00  0.00    +0.000 A 
ATOM     20  C   UNL     1       1.664   8.501  20.173  0.00  0.00    +0.000 A 
ATOM     21  C   UNL     1       0.756   9.538  19.944  0.00  0.00    +0.000 A 
ATOM     22  C   UNL     1       0.464   9.948  18.645  0.00  0.00    +0.000 A 
ATOM     23  C   UNL     1       1.055   9.288  17.569  0.00  0.00    +0.000 A 
ATOM     24  C   UNL     1       1.964   8.250  17.799  0.00  0.00    +0.000 A 
BRANCH  22  25
ATOM     25  O   UNL     1      -0.425  10.981  18.539  0.00  0.00    +0.000 OA
ATOM     26  C   UNL     1      -0.736  11.636  19.764  0.00  0.00    +0.000 C 
ENDBRANCH  22  25
ENDBRANCH  18  19
ENDBRANCH   7  18
TORSDOF 6
ENDMDL
MODEL 6
REMARK VINA RESULT:      -6.6      1.617      2.267
REMARK  Name = 
REMARK  8 active torsions:
REMARK  status: ('A' for Active; 'I' for Inactive)
REMARK    1  A    between atoms: C_1  and  O_2
REMARK    2  A    between atoms: O_2  and  C_3
REMARK    3  A    between atoms: C_3  and  C_5
REMARK    4  A    between atoms: C_6  and  C_7
REMARK    5  A    between atoms: N_13  and  C_14
REMARK    6  A    between atoms: C_14  and  C_15
REMARK    7  A    between atoms: C_18  and  O_19
REMARK    8  A    between atoms: O_19  and  C_20
REMARK                            x       y       z     vdW  Elec       q    Type
REMARK                         _______ _______ _______ _____ _____    ______ ____
ROOT
ATOM      1  C   UNL     1       4.037   3.936  17.825  0.00  0.00    +0.000 A 
ATOM      2  C   UNL     1       4.134   2.611  17.344  0.00  0.00    +0.000 A 
ATOM      3  C   UNL     1       3.368   1.563  17.884  0.00  0.00    +0.000 A 
ATOM      4  C   UNL     1       2.479   1.811  18.922  0.00  0.00    +0.000 A 
ATOM      5  C   UNL     1       2.395   3.114  19.378  0.00  0.00    +0.000 A 
ATOM      6  C   UNL     1       3.144   4.184  18.866  0.00  0.00    +0.000 A 
ATOM      7  N   UNL     1       2.822   5.370  19.568  0.00  0.00    +0.000 N 
ATOM      8  C   UNL     1       1.859   5.129  20.540  0.00  0.00    +0.000 C 
ATOM      9  O   UNL     1       1.332   5.901  21.314  0.00  0.00    +0.000 OA
ATOM     10  C   UNL     1       1.546   3.627  20.448  0.00  0.00    +0.000 C 
ATOM     11  O   UNL     1       0.760   2.998  21.122  0.00  0.00    +0.000 OA
ENDROOT
BRANCH   1  13
ATOM     12  C   UNL     1       5.860   4.553  16.322  0.00  0.00    +0.000 C 
ATOM     13  C   UNL     1       4.886   4.925  17.165  0.00  0.00    +0.000 C 
BRANCH  12  14
ATOM     14  C   UNL     1       6.782   5.565  15.768  0.00  0.00    +0.000 C 
ATOM     15  O   UNL     1       7.473   6.321  16.429  0.00  0.00    +0.000 OA
BRANCH  14  17
ATOM     16  C   UNL     1       6.448   4.142  13.949  0.00  0.00    +0.000 C 
ATOM     17  O   UNL     1       6.752   5.455  14.419  0.00  0.00    +0.000 OA
ENDBRANCH  14  17
ENDBRANCH  12  14
ENDBRANCH   1  13
BRANCH   7  18
ATOM     18  C   UNL     1       3.374   6.687  19.356  0.00  0.00    +0.000 C 
BRANCH  18  19
ATOM     19  C   UNL     1       2.351   7.775  19.107  0.00  0.00    +0.000 A 
ATOM     20  C   UNL     1       1.745   8.488  20.151  0.00  0.00    +0.000 A 
ATOM     21  C   UNL     1       0.853   9.529  19.882  0.00  0.00    +0.000 A 
ATOM     22  C   UNL     1       0.574   9.900  18.568  0.00  0.00    +0.000 A 
ATOM     23  C   UNL     1       1.163   9.197  17.518  0.00  0.00    +0.000 A 
ATOM     24  C   UNL     1       2.056   8.154  17.788  0.00  0.00    +0.000 A 
BRANCH  22  25
ATOM     25  O   UNL     1      -0.300  10.941  18.423  0.00  0.00    +0.000 OA
ATOM     26  C   UNL     1      -1.340  10.995  19.393  0.00  0.00    +0.000 C 
ENDBRANCH  22  25
ENDBRANCH  18  19
ENDBRANCH   7  18
TORSDOF 6
ENDMDL
MODEL 7
REMARK VINA RESULT:      -6.5      5.734     10.241
REMARK  Name = 
REMARK  8 active torsions:
REMARK  status: ('A' for Active; 'I' for Inactive)
REMARK    1  A    between atoms: C_1  and  O_2
REMARK    2  A    between atoms: O_2  and  C_3
REMARK    3  A    between atoms: C_3  and  C_5
REMARK    4  A    between atoms: C_6  and  C_7
REMARK    5  A    between atoms: N_13  and  C_14
REMARK    6  A    between atoms: C_14  and  C_15
REMARK    7  A    between atoms: C_18  and  O_19
REMARK    8  A    between atoms: O_19  and  C_20
REMARK                            x       y       z     vdW  Elec       q    Type
REMARK                         _______ _______ _______ _____ _____    ______ ____
ROOT
ATOM      1  C   UNL     1      -4.976  11.749  19.174  0.00  0.00    +0.000 A 
ATOM      2  C   UNL     1      -6.188  11.154  18.761  0.00  0.00    +0.000 A 
ATOM      3  C   UNL     1      -7.351  11.201  19.551  0.00  0.00    +0.000 A 
ATOM      4  C   UNL     1      -7.334  11.850  20.778  0.00  0.00    +0.000 A 
ATOM      5  C   UNL     1      -6.139  12.429  21.166  0.00  0.00    +0.000 A 
ATOM      6  C   UNL     1      -4.960  12.400  20.406  0.00  0.00    +0.000 A 
ATOM      7  N   UNL     1      -3.928  13.075  21.101  0.00  0.00    +0.000 N 
ATOM      8  C   UNL     1      -4.387  13.573  22.314  0.00  0.00    +0.000 C 
ATOM      9  O   UNL     1      -3.798  14.214  23.160  0.00  0.00    +0.000 OA
ATOM     10  C   UNL     1      -5.866  13.160  22.398  0.00  0.00    +0.000 C 
ATOM     11  O   UNL     1      -6.643  13.391  23.299  0.00  0.00    +0.000 OA
ENDROOT
BRANCH   1  13
ATOM     12  C   UNL     1      -3.588  10.474  17.620  0.00  0.00    +0.000 C 
ATOM     13  C   UNL     1      -3.851  11.629  18.249  0.00  0.00    +0.000 C 
BRANCH  12  14
ATOM     14  C   UNL     1      -2.373  10.347  16.791  0.00  0.00    +0.000 C 
ATOM     15  O   UNL     1      -1.369   9.731  17.105  0.00  0.00    +0.000 OA
BRANCH  14  17
ATOM     16  C   UNL     1      -3.318  10.199  14.661  0.00  0.00    +0.000 C 
ATOM     17  O   UNL     1      -2.606  10.984  15.618  0.00  0.00    +0.000 OA
ENDBRANCH  14  17
ENDBRANCH  12  14
ENDBRANCH   1  13
BRANCH   7  18
ATOM     18  C   UNL     1      -2.563  13.264  20.670  0.00  0.00    +0.000 C 
BRANCH  18  19
ATOM     19  C   UNL     1      -1.609  12.162  21.081  0.00  0.00    +0.000 A 
ATOM     20  C   UNL     1      -1.539  11.683  22.396  0.00  0.00    +0.000 A 
ATOM     21  C   UNL     1      -0.692  10.621  22.725  0.00  0.00    +0.000 A 
ATOM     22  C   UNL     1       0.074   9.997  21.743  0.00  0.00    +0.000 A 
ATOM     23  C   UNL     1       0.021  10.466  20.432  0.00  0.00    +0.000 A 
ATOM     24  C   UNL     1      -0.826  11.529  20.103  0.00  0.00    +0.000 A 
BRANCH  22  25
ATOM     25  O   UNL     1       0.854   8.960  22.175  0.00  0.00    +0.000 OA
ATOM     26  C   UNL     1       1.304   8.078  21.152  0.00  0.00    +0.000 C 
ENDBRANCH  22  25
ENDBRANCH  18  19
ENDBRANCH   7  18
TORSDOF 6
ENDMDL
MODEL 8
REMARK VINA RESULT:      -6.5      1.628      2.101
REMARK  Name = 
REMARK  8 active torsions:
REMARK  status: ('A' for Active; 'I' for Inactive)
REMARK    1  A    between atoms: C_1  and  O_2
REMARK    2  A    between atoms: O_2  and  C_3
REMARK    3  A    between atoms: C_3  and  C_5
REMARK    4  A    between atoms: C_6  and  C_7
REMARK    5  A    between atoms: N_13  and  C_14
REMARK    6  A    between atoms: C_14  and  C_15
REMARK    7  A    between atoms: C_18  and  O_19
REMARK    8  A    between atoms: O_19  and  C_20
REMARK                            x       y       z     vdW  Elec       q    Type
REMARK                         _______ _______ _______ _____ _____    ______ ____
ROOT
ATOM      1  C   UNL     1       4.815   3.965  19.333  0.00  0.00    +0.000 A 
ATOM      2  C   UNL     1       5.291   2.885  20.109  0.00  0.00    +0.000 A 
ATOM      3  C   UNL     1       4.513   1.739  20.351  0.00  0.00    +0.000 A 
ATOM      4  C   UNL     1       3.234   1.639  19.819  0.00  0.00    +0.000 A 
ATOM      5  C   UNL     1       2.785   2.705  19.060  0.00  0.00    +0.000 A 
ATOM      6  C   UNL     1       3.532   3.864  18.800  0.00  0.00    +0.000 A 
ATOM      7  N   UNL     1       2.770   4.753  18.005  0.00  0.00    +0.000 N 
ATOM      8  C   UNL     1       1.523   4.215  17.709  0.00  0.00    +0.000 C 
ATOM      9  O   UNL     1       0.620   4.677  17.044  0.00  0.00    +0.000 OA
ATOM     10  C   UNL     1       1.491   2.842  18.400  0.00  0.00    +0.000 C 
ATOM     11  O   UNL     1       0.583   2.040  18.398  0.00  0.00    +0.000 OA
ENDROOT
BRANCH   1  13
ATOM     12  C   UNL     1       6.474   5.214  18.048  0.00  0.00    +0.000 C 
ATOM     13  C   UNL     1       5.734   5.087  19.159  0.00  0.00    +0.000 C 
BRANCH  12  14
ATOM     14  C   UNL     1       7.484   6.287  17.954  0.00  0.00    +0.000 C 
ATOM     15  O   UNL     1       8.118   6.739  18.893  0.00  0.00    +0.000 OA
BRANCH  14  17
ATOM     16  C   UNL     1       7.008   5.692  15.748  0.00  0.00    +0.000 C 
ATOM     17  O   UNL     1       7.607   6.625  16.649  0.00  0.00    +0.000 OA
ENDBRANCH  14  17
ENDBRANCH  12  14
ENDBRANCH   1  13
BRANCH   7  18
ATOM     18  C   UNL     1       3.168   6.056  17.526  0.00  0.00    +0.000 C 
BRANCH  18  19
ATOM     19  C   UNL     1       2.553   7.222  18.269  0.00  0.00    +0.000 A 
ATOM     20  C   UNL     1       2.154   8.399  17.619  0.00  0.00    +0.000 A 
ATOM     21  C   UNL     1       1.531   9.430  18.327  0.00  0.00    +0.000 A 
ATOM     22  C   UNL     1       1.264   9.293  19.688  0.00  0.00    +0.000 A 
ATOM     23  C   UNL     1       1.660   8.132  20.350  0.00  0.00    +0.000 A 
ATOM     24  C   UNL     1       2.284   7.101  19.641  0.00  0.00    +0.000 A 
BRANCH  22  25
ATOM     25  O   UNL     1       0.636  10.357  20.275  0.00  0.00    +0.000 OA
ATOM     26  C   UNL     1       0.065  10.090  21.551  0.00  0.00    +0.000 C 
ENDBRANCH  22  25
ENDBRANCH  18  19
ENDBRANCH   7  18
TORSDOF 6
ENDMDL
MODEL 9
REMARK VINA RESULT:      -6.5      1.835      5.520
REMARK  Name = 
REMARK  8 active torsions:
REMARK  status: ('A' for Active; 'I' for Inactive)
REMARK    1  A    between atoms: C_1  and  O_2
REMARK    2  A    between atoms: O_2  and  C_3
REMARK    3  A    between atoms: C_3  and  C_5
REMARK    4  A    between atoms: C_6  and  C_7
REMARK    5  A    between atoms: N_13  and  C_14
REMARK    6  A    between atoms: C_14  and  C_15
REMARK    7  A    between atoms: C_18  and  O_19
REMARK    8  A    between atoms: O_19  and  C_20
REMARK                            x       y       z     vdW  Elec       q    Type
REMARK                         _______ _______ _______ _____ _____    ______ ____
ROOT
ATOM      1  C   UNL     1       2.429   5.562  19.167  0.00  0.00    +0.000 A 
ATOM      2  C   UNL     1       1.575   5.343  20.271  0.00  0.00    +0.000 A 
ATOM      3  C   UNL     1       1.376   4.063  20.818  0.00  0.00    +0.000 A 
ATOM      4  C   UNL     1       2.030   2.964  20.277  0.00  0.00    +0.000 A 
ATOM      5  C   UNL     1       2.864   3.197  19.199  0.00  0.00    +0.000 A 
ATOM      6  C   UNL     1       3.084   4.458  18.626  0.00  0.00    +0.000 A 
ATOM      7  N   UNL     1       3.980   4.336  17.536  0.00  0.00    +0.000 N 
ATOM      8  C   UNL     1       4.381   3.017  17.366  0.00  0.00    +0.000 C 
ATOM      9  O   UNL     1       5.149   2.541  16.555  0.00  0.00    +0.000 OA
ATOM     10  C   UNL     1       3.654   2.219  18.460  0.00  0.00    +0.000 C 
ATOM     11  O   UNL     1       3.721   1.027  18.667  0.00  0.00    +0.000 OA
ENDROOT
BRANCH   1  13
ATOM     12  C   UNL     1       1.733   7.903  19.174  0.00  0.00    +0.000 C 
ATOM     13  C   UNL     1       2.546   6.944  18.708  0.00  0.00    +0.000 C 
BRANCH  12  14
ATOM     14  C   UNL     1       1.792   9.262  18.600  0.00  0.00    +0.000 C 
ATOM     15  O   UNL     1       2.265   9.546  17.512  0.00  0.00    +0.000 OA
BRANCH  14  17
ATOM     16  C   UNL     1       0.168  10.914  18.880  0.00  0.00    +0.000 C 
ATOM     17  O   UNL     1       1.184  10.104  19.470  0.00  0.00    +0.000 OA
ENDBRANCH  14  17
ENDBRANCH  12  14
ENDBRANCH   1  13
BRANCH   7  18
ATOM     18  C   UNL     1       4.458   5.393  16.676  0.00  0.00    +0.000 C 
BRANCH  18  19
ATOM     19  C   UNL     1       5.675   6.132  17.192  0.00  0.00    +0.000 A 
ATOM     20  C   UNL     1       5.926   7.474  16.876  0.00  0.00    +0.000 A 
ATOM     21  C   UNL     1       7.025   8.143  17.422  0.00  0.00    +0.000 A 
ATOM     22  C   UNL     1       7.873   7.496  18.319  0.00  0.00    +0.000 A 
ATOM     23  C   UNL     1       7.641   6.159  18.638  0.00  0.00    +0.000 A 
ATOM     24  C   UNL     1       6.541   5.490  18.090  0.00  0.00    +0.000 A 
BRANCH  22  25
ATOM     25  O   UNL     1       8.905   8.251  18.802  0.00  0.00    +0.000 OA
ATOM     26  C   UNL     1       8.795   9.649  18.559  0.00  0.00    +0.000 C 
ENDBRANCH  22  25
ENDBRANCH  18  19
ENDBRANCH   7  18
TORSDOF 6
ENDMDL
