MODEL 1
REMARK VINA RESULT:      -8.6      0.000      0.000
REMARK  Name = 
REMARK  5 active torsions:
REMARK  status: ('A' for Active; 'I' for Inactive)
REMARK    1  A    between atoms: C_1  and  O_2
REMARK    2  A    between atoms: O_2  and  C_3
REMARK    3  A    between atoms: C_8  and  C_9
REMARK    4  A    between atoms: C_12  and  C_14
REMARK    5  A    between atoms: C_18  and  C_19
REMARK                            x       y       z     vdW  Elec       q    Type
REMARK                         _______ _______ _______ _____ _____    ______ ____
ROOT
ATOM      1  C   UNL     1       3.447   4.713  17.294  0.00  0.00    +0.000 C 
ATOM      2  C   UNL     1       2.803   6.051  17.631  0.00  0.00    +0.000 C 
ATOM      3  N   UNL     1       2.361   5.911  19.013  0.00  0.00    +0.000 N 
ATOM      4  C   UNL     1       1.788   6.911  19.794  0.00  0.00    +0.000 C 
ATOM      5  O   UNL     1       1.289   6.624  20.884  0.00  0.00    +0.000 OA
ATOM      6  C   UNL     1       2.166   4.505  19.340  0.00  0.00    +0.000 C 
ATOM      7  C   UNL     1       3.001   3.701  20.402  0.00  0.00    +0.000 C 
ATOM      8  C   UNL     1       1.978   2.618  20.801  0.00  0.00    +0.000 C 
ATOM      9  C   UNL     1       1.558   1.903  19.474  0.00  0.00    +0.000 C 
ATOM     10  N   UNL     1       2.423   2.284  18.282  0.00  0.00    +0.000 NA
ATOM     11  C   UNL     1       3.783   1.935  18.670  0.00  0.00    +0.000 C 
ATOM     12  C   UNL     1       4.178   2.773  19.898  0.00  0.00    +0.000 C 
ATOM     13  C   UNL     1       2.364   3.758  18.025  0.00  0.00    +0.000 C 
ENDROOT
BRANCH   4  14
ATOM     14  C   UNL     1       1.797   8.284  19.305  0.00  0.00    +0.000 A 
ATOM     15  N   UNL     1       2.413   8.795  18.185  0.00  0.00    +0.000 N 
ATOM     16  C   UNL     1       2.197  10.143  18.148  0.00  0.00    +0.000 A 
ATOM     17  N   UNL     1       1.382  10.519  19.102  0.00  0.00    +0.000 NA
ATOM     18  C   UNL     1       1.094   9.370  19.809  0.00  0.00    +0.000 A 
ATOM     19  C   UNL     1       0.169   9.409  20.967  0.00  0.00    +0.000 C 
ATOM     20  H   UNL     1       2.951   8.293  17.498  0.00  0.00    +0.000 HD
ENDBRANCH   4  14
BRANCH   1  26
ATOM     21  C   UNL     1       6.058   4.236  16.871  0.00  0.00    +0.000 A 
ATOM     22  C   UNL     1       7.362   4.659  17.162  0.00  0.00    +0.000 A 
ATOM     23  C   UNL     1       7.639   5.409  18.297  0.00  0.00    +0.000 A 
ATOM     24  C   UNL     1       6.605   5.722  19.165  0.00  0.00    +0.000 A 
ATOM     25  C   UNL     1       5.287   5.390  18.842  0.00  0.00    +0.000 A 
ATOM     26  C   UNL     1       4.957   4.746  17.634  0.00  0.00    +0.000 A 
BRANCH  21  28
ATOM     27  C   UNL     1       6.087   3.910  14.507  0.00  0.00    +0.000 C 
ATOM     28  O   UNL     1       5.833   3.387  15.817  0.00  0.00    +0.000 OA
ENDBRANCH  21  28
ENDBRANCH   1  26
TORSDOF 3
ENDMDL
MODEL 2
REMARK VINA RESULT:      -7.7      2.009      4.332
REMARK  Name = 
REMARK  5 active torsions:
REMARK  status: ('A' for Active; 'I' for Inactive)
REMARK    1  A    between atoms: C_1  and  O_2
REMARK    2  A    between atoms: O_2  and  C_3
REMARK    3  A    between atoms: C_8  and  C_9
REMARK    4  A    between atoms: C_12  and  C_14
REMARK    5  A    between atoms: C_18  and  C_19
REMARK                            x       y       z     vdW  Elec       q    Type
REMARK                         _______ _______ _______ _____ _____    ______ ____
ROOT
ATOM      1  C   UNL     1       3.938   5.111  19.639  0.00  0.00    +0.000 C 
ATOM      2  C   UNL     1       3.119   6.361  19.931  0.00  0.00    +0.000 C 
ATOM      3  N   UNL     1       3.085   7.085  18.667  0.00  0.00    +0.000 N 
ATOM      4  C   UNL     1       2.377   8.256  18.414  0.00  0.00    +0.000 C 
ATOM      5  O   UNL     1       2.572   8.873  17.364  0.00  0.00    +0.000 OA
ATOM      6  C   UNL     1       4.224   6.708  17.840  0.00  0.00    +0.000 C 
ATOM      7  C   UNL     1       4.128   5.964  16.458  0.00  0.00    +0.000 C 
ATOM      8  C   UNL     1       5.430   6.449  15.788  0.00  0.00    +0.000 C 
ATOM      9  C   UNL     1       6.592   6.074  16.767  0.00  0.00    +0.000 C 
ATOM     10  N   UNL     1       6.154   5.163  17.903  0.00  0.00    +0.000 NA
ATOM     11  C   UNL     1       5.600   3.982  17.255  0.00  0.00    +0.000 C 
ATOM     12  C   UNL     1       4.381   4.403  16.416  0.00  0.00    +0.000 C 
ATOM     13  C   UNL     1       5.078   5.804  18.723  0.00  0.00    +0.000 C 
ENDROOT
BRANCH   4  14
ATOM     14  C   UNL     1       1.409   8.725  19.397  0.00  0.00    +0.000 A 
ATOM     15  N   UNL     1       1.439   8.590  20.766  0.00  0.00    +0.000 N 
ATOM     16  C   UNL     1       0.299   9.138  21.282  0.00  0.00    +0.000 A 
ATOM     17  N   UNL     1      -0.409   9.724  20.349  0.00  0.00    +0.000 NA
ATOM     18  C   UNL     1       0.285   9.509  19.176  0.00  0.00    +0.000 A 
ATOM     19  C   UNL     1      -0.215  10.058  17.892  0.00  0.00    +0.000 C 
ATOM     20  H   UNL     1       2.156   8.156  21.325  0.00  0.00    +0.000 HD
ENDBRANCH   4  14
BRANCH   1  26
ATOM     21  C   UNL     1       3.231   2.549  19.236  0.00  0.00    +0.000 A 
ATOM     22  C   UNL     1       2.152   1.668  19.082  0.00  0.00    +0.000 A 
ATOM     23  C   UNL     1       0.905   2.122  18.669  0.00  0.00    +0.000 A 
ATOM     24  C   UNL     1       0.742   3.468  18.383  0.00  0.00    +0.000 A 
ATOM     25  C   UNL     1       1.779   4.373  18.621  0.00  0.00    +0.000 A 
ATOM     26  C   UNL     1       3.012   3.964  19.166  0.00  0.00    +0.000 A 
BRANCH  21  28
ATOM     27  C   UNL     1       4.737   1.699  20.881  0.00  0.00    +0.000 C 
ATOM     28  O   UNL     1       4.481   2.057  19.517  0.00  0.00    +0.000 OA
ENDBRANCH  21  28
ENDBRANCH   1  26
TORSDOF 3
ENDMDL
MODEL 3
REMARK VINA RESULT:      -7.6      5.930      9.791
REMARK  Name = 
REMARK  5 active torsions:
REMARK  status: ('A' for Active; 'I' for Inactive)
REMARK    1  A    between atoms: C_1  and  O_2
REMARK    2  A    between atoms: O_2  and  C_3
REMARK    3  A    between atoms: C_8  and  C_9
REMARK    4  A    between atoms: C_12  and  C_14
REMARK    5  A    between atoms: C_18  and  C_19
REMARK                            x       y       z     vdW  Elec       q    Type
REMARK                         _______ _______ _______ _____ _____    ______ ____
ROOT
ATOM      1  C   UNL     1      -0.075  11.620  20.989  0.00  0.00    +0.000 C 
ATOM      2  C   UNL     1      -1.209  11.964  21.947  0.00  0.00    +0.000 C 
ATOM      3  N   UNL     1      -1.454  13.385  21.733  0.00  0.00    +0.000 N 
ATOM      4  C   UNL     1      -2.463  14.138  22.326  0.00  0.00    +0.000 C 
ATOM      5  O   UNL     1      -2.457  15.366  22.209  0.00  0.00    +0.000 OA
ATOM      6  C   UNL     1      -0.263  14.026  21.193  0.00  0.00    +0.000 C 
ATOM      7  C   UNL     1      -0.159  14.683  19.769  0.00  0.00    +0.000 C 
ATOM      8  C   UNL     1       0.950  15.725  20.020  0.00  0.00    +0.000 C 
ATOM      9  C   UNL     1       2.178  14.930  20.575  0.00  0.00    +0.000 C 
ATOM     10  N   UNL     1       2.022  13.422  20.465  0.00  0.00    +0.000 NA
ATOM     11  C   UNL     1       1.814  13.161  19.046  0.00  0.00    +0.000 C 
ATOM     12  C   UNL     1       0.519  13.860  18.600  0.00  0.00    +0.000 C 
ATOM     13  C   UNL     1       0.817  12.949  21.217  0.00  0.00    +0.000 C 
ENDROOT
BRANCH   4  14
ATOM     14  C   UNL     1      -3.515  13.455  23.068  0.00  0.00    +0.000 A 
ATOM     15  N   UNL     1      -3.657  13.317  24.430  0.00  0.00    +0.000 N 
ATOM     16  C   UNL     1      -4.764  12.555  24.675  0.00  0.00    +0.000 A 
ATOM     17  N   UNL     1      -5.414  12.292  23.570  0.00  0.00    +0.000 NA
ATOM     18  C   UNL     1      -4.671  12.875  22.564  0.00  0.00    +0.000 A 
ATOM     19  C   UNL     1      -5.122  12.800  21.153  0.00  0.00    +0.000 C 
ATOM     20  H   UNL     1      -3.059  13.688  25.150  0.00  0.00    +0.000 HD
ENDBRANCH   4  14
BRANCH   1  26
ATOM     21  C   UNL     1      -0.064  10.300  18.647  0.00  0.00    +0.000 A 
ATOM     22  C   UNL     1      -0.866   9.741  17.642  0.00  0.00    +0.000 A 
ATOM     23  C   UNL     1      -2.175  10.163  17.447  0.00  0.00    +0.000 A 
ATOM     24  C   UNL     1      -2.682  11.172  18.250  0.00  0.00    +0.000 A 
ATOM     25  C   UNL     1      -1.930  11.673  19.315  0.00  0.00    +0.000 A 
ATOM     26  C   UNL     1      -0.649  11.173  19.621  0.00  0.00    +0.000 A 
BRANCH  21  28
ATOM     27  C   UNL     1       1.742   9.005  17.777  0.00  0.00    +0.000 C 
ATOM     28  O   UNL     1       1.263   9.961  18.732  0.00  0.00    +0.000 OA
ENDBRANCH  21  28
ENDBRANCH   1  26
TORSDOF 3
ENDMDL
MODEL 4
REMARK VINA RESULT:      -7.5      6.645     10.679
REMARK  Name = 
REMARK  5 active torsions:
REMARK  status: ('A' for Active; 'I' for Inactive)
REMARK    1  A    between atoms: C_1  and  O_2
REMARK    2  A    between atoms: O_2  and  C_3
REMARK    3  A    between atoms: C_8  and  C_9
REMARK    4  A    between atoms: C_12  and  C_14
REMARK    5  A    between atoms: C_18  and  C_19
REMARK                            x       y       z     vdW  Elec       q    Type
REMARK                         _______ _______ _______ _____ _____    ______ ____
ROOT
ATOM      1  C   UNL     1      -1.139  12.062  21.905  0.00  0.00    +0.000 C 
ATOM      2  C   UNL     1      -2.526  12.294  22.490  0.00  0.00    +0.000 C 
ATOM      3  N   UNL     1      -2.803  13.702  22.235  0.00  0.00    +0.000 N 
ATOM      4  C   UNL     1      -3.995  14.365  22.514  0.00  0.00    +0.000 C 
ATOM      5  O   UNL     1      -4.046  15.594  22.423  0.00  0.00    +0.000 OA
ATOM      6  C   UNL     1      -1.557  14.442  22.081  0.00  0.00    +0.000 C 
ATOM      7  C   UNL     1      -1.088  15.155  20.761  0.00  0.00    +0.000 C 
ATOM      8  C   UNL     1      -0.183  16.259  21.345  0.00  0.00    +0.000 C 
ATOM      9  C   UNL     1       0.884  15.529  22.227  0.00  0.00    +0.000 C 
ATOM     10  N   UNL     1       0.880  14.018  22.052  0.00  0.00    +0.000 NA
ATOM     11  C   UNL     1       1.118  13.796  20.632  0.00  0.00    +0.000 C 
ATOM     12  C   UNL     1      -0.038  14.423  19.833  0.00  0.00    +0.000 C 
ATOM     13  C   UNL     1      -0.455  13.439  22.407  0.00  0.00    +0.000 C 
ENDROOT
BRANCH   4  14
ATOM     14  C   UNL     1      -5.164  13.586  22.901  0.00  0.00    +0.000 A 
ATOM     15  N   UNL     1      -5.772  13.500  24.133  0.00  0.00    +0.000 N 
ATOM     16  C   UNL     1      -6.805  12.611  24.046  0.00  0.00    +0.000 A 
ATOM     17  N   UNL     1      -6.981  12.208  22.813  0.00  0.00    +0.000 NA
ATOM     18  C   UNL     1      -5.993  12.833  22.081  0.00  0.00    +0.000 A 
ATOM     19  C   UNL     1      -5.894  12.626  20.615  0.00  0.00    +0.000 C 
ATOM     20  H   UNL     1      -5.516  13.984  24.978  0.00  0.00    +0.000 HD
ENDBRANCH   4  14
BRANCH   1  26
ATOM     21  C   UNL     1      -0.375  10.778  19.670  0.00  0.00    +0.000 A 
ATOM     22  C   UNL     1      -0.814  10.223  18.460  0.00  0.00    +0.000 A 
ATOM     23  C   UNL     1      -2.005  10.630  17.871  0.00  0.00    +0.000 A 
ATOM     24  C   UNL     1      -2.754  11.620  18.486  0.00  0.00    +0.000 A 
ATOM     25  C   UNL     1      -2.381  12.116  19.737  0.00  0.00    +0.000 A 
ATOM     26  C   UNL     1      -1.250  11.628  20.422  0.00  0.00    +0.000 A 
BRANCH  21  28
ATOM     27  C   UNL     1       1.051   9.101  20.590  0.00  0.00    +0.000 C 
ATOM     28  O   UNL     1       0.865  10.456  20.161  0.00  0.00    +0.000 OA
ENDBRANCH  21  28
ENDBRANCH   1  26
TORSDOF 3
ENDMDL
MODEL 5
REMARK VINA RESULT:      -7.5      2.145      5.800
REMARK  Name = 
REMARK  5 active torsions:
REMARK  status: ('A' for Active; 'I' for Inactive)
REMARK    1  A    between atoms: C_1  and  O_2
REMARK    2  A    between atoms: O_2  and  C_3
REMARK    3  A    between atoms: C_8  and  C_9
REMARK    4  A    between atoms: C_12  and  C_14
REMARK    5  A    between atoms: C_18  and  C_19
REMARK                            x       y       z     vdW  Elec       q    Type
REMARK                         _______ _______ _______ _____ _____    ______ ____
ROOT
ATOM      1  C   UNL     1       3.840   6.001  19.749  0.00  0.00    +0.000 C 
ATOM      2  C   UNL     1       4.773   5.619  18.607  0.00  0.00    +0.000 C 
ATOM      3  N   UNL     1       4.150   4.452  17.996  0.00  0.00    +0.000 N 
ATOM      4  C   UNL     1       4.594   3.793  16.853  0.00  0.00    +0.000 C 
ATOM      5  O   UNL     1       4.092   2.711  16.538  0.00  0.00    +0.000 OA
ATOM      6  C   UNL     1       3.288   3.778  18.958  0.00  0.00    +0.000 C 
ATOM      7  C   UNL     1       1.728   3.640  18.829  0.00  0.00    +0.000 C 
ATOM      8  C   UNL     1       1.492   2.351  19.642  0.00  0.00    +0.000 C 
ATOM      9  C   UNL     1       2.112   2.607  21.056  0.00  0.00    +0.000 C 
ATOM     10  N   UNL     1       2.509   4.056  21.289  0.00  0.00    +0.000 NA
ATOM     11  C   UNL     1       1.286   4.824  21.095  0.00  0.00    +0.000 C 
ATOM     12  C   UNL     1       0.806   4.634  19.646  0.00  0.00    +0.000 C 
ATOM     13  C   UNL     1       3.518   4.506  20.279  0.00  0.00    +0.000 C 
ENDROOT
BRANCH   4  14
ATOM     14  C   UNL     1       5.641   4.404  16.045  0.00  0.00    +0.000 A 
ATOM     15  N   UNL     1       5.551   4.938  14.780  0.00  0.00    +0.000 N 
ATOM     16  C   UNL     1       6.794   5.353  14.394  0.00  0.00    +0.000 A 
ATOM     17  N   UNL     1       7.658   5.234  15.371  0.00  0.00    +0.000 NA
ATOM     18  C   UNL     1       6.950   4.680  16.418  0.00  0.00    +0.000 A 
ATOM     19  C   UNL     1       7.610   4.417  17.720  0.00  0.00    +0.000 C 
ATOM     20  H   UNL     1       4.730   5.013  14.202  0.00  0.00    +0.000 HD
ENDBRANCH   4  14
BRANCH   1  26
ATOM     21  C   UNL     1       1.945   7.888  20.023  0.00  0.00    +0.000 A 
ATOM     22  C   UNL     1       1.293   8.957  19.393  0.00  0.00    +0.000 A 
ATOM     23  C   UNL     1       1.266   9.070  18.009  0.00  0.00    +0.000 A 
ATOM     24  C   UNL     1       1.878   8.090  17.243  0.00  0.00    +0.000 A 
ATOM     25  C   UNL     1       2.612   7.071  17.854  0.00  0.00    +0.000 A 
ATOM     26  C   UNL     1       2.770   7.004  19.253  0.00  0.00    +0.000 A 
BRANCH  21  28
ATOM     27  C   UNL     1       1.272   8.821  22.113  0.00  0.00    +0.000 C 
ATOM     28  O   UNL     1       1.844   7.730  21.382  0.00  0.00    +0.000 OA
ENDBRANCH  21  28
ENDBRANCH   1  26
TORSDOF 3
ENDMDL
MODEL 6
REMARK VINA RESULT:      -7.4      6.068      9.908
REMARK  Name = 
REMARK  5 active torsions:
REMARK  status: ('A' for Active; 'I' for Inactive)
REMARK    1  A    between atoms: C_1  and  O_2
REMARK    2  A    between atoms: O_2  and  C_3
REMARK    3  A    between atoms: C_8  and  C_9
REMARK    4  A    between atoms: C_12  and  C_14
REMARK    5  A    between atoms: C_18  and  C_19
REMARK                            x       y       z     vdW  Elec       q    Type
REMARK                         _______ _______ _______ _____ _____    ______ ____
ROOT
ATOM      1  C   UNL     1      -0.828  11.454  21.066  0.00  0.00    +0.000 C 
ATOM      2  C   UNL     1      -2.134  11.859  21.736  0.00  0.00    +0.000 C 
ATOM      3  N   UNL     1      -2.205  13.305  21.565  0.00  0.00    +0.000 N 
ATOM      4  C   UNL     1      -3.268  14.121  21.939  0.00  0.00    +0.000 C 
ATOM      5  O   UNL     1      -3.136  15.347  21.910  0.00  0.00    +0.000 OA
ATOM      6  C   UNL     1      -0.869  13.856  21.379  0.00  0.00    +0.000 C 
ATOM      7  C   UNL     1      -0.360  14.564  20.071  0.00  0.00    +0.000 C 
ATOM      8  C   UNL     1       0.729  15.486  20.656  0.00  0.00    +0.000 C 
ATOM      9  C   UNL     1       1.712  14.556  21.443  0.00  0.00    +0.000 C 
ATOM     10  N   UNL     1       1.470  13.075  21.196  0.00  0.00    +0.000 NA
ATOM     11  C   UNL     1       1.605  12.899  19.757  0.00  0.00    +0.000 C 
ATOM     12  C   UNL     1       0.523  13.735  19.052  0.00  0.00    +0.000 C 
ATOM     13  C   UNL     1       0.081  12.683  21.596  0.00  0.00    +0.000 C 
ENDROOT
BRANCH   4  14
ATOM     14  C   UNL     1      -4.523  13.506  22.352  0.00  0.00    +0.000 A 
ATOM     15  N   UNL     1      -5.640  13.238  21.594  0.00  0.00    +0.000 N 
ATOM     16  C   UNL     1      -6.597  12.702  22.408  0.00  0.00    +0.000 A 
ATOM     17  N   UNL     1      -6.133  12.494  23.614  0.00  0.00    +0.000 NA
ATOM     18  C   UNL     1      -4.832  12.954  23.588  0.00  0.00    +0.000 A 
ATOM     19  C   UNL     1      -3.974  12.859  24.793  0.00  0.00    +0.000 C 
ATOM     20  H   UNL     1      -5.769  13.407  20.610  0.00  0.00    +0.000 HD
ENDBRANCH   4  14
BRANCH   1  26
ATOM     21  C   UNL     1      -0.331  10.247  18.716  0.00  0.00    +0.000 A 
ATOM     22  C   UNL     1      -0.897   9.811  17.510  0.00  0.00    +0.000 A 
ATOM     23  C   UNL     1      -2.078  10.360  17.027  0.00  0.00    +0.000 A 
ATOM     24  C   UNL     1      -2.690  11.374  17.746  0.00  0.00    +0.000 A 
ATOM     25  C   UNL     1      -2.192  11.755  18.995  0.00  0.00    +0.000 A 
ATOM     26  C   UNL     1      -1.073  11.125  19.573  0.00  0.00    +0.000 A 
BRANCH  21  28
ATOM     27  C   UNL     1       1.774   9.339  18.056  0.00  0.00    +0.000 C 
ATOM     28  O   UNL     1       0.901   9.783  19.102  0.00  0.00    +0.000 OA
ENDBRANCH  21  28
ENDBRANCH   1  26
TORSDOF 3
ENDMDL
MODEL 7
REMARK VINA RESULT:      -7.4      7.442     11.070
REMARK  Name = 
REMARK  5 active torsions:
REMARK  status: ('A' for Active; 'I' for Inactive)
REMARK    1  A    between atoms: C_1  and  O_2
REMARK    2  A    between atoms: O_2  and  C_3
REMARK    3  A    between atoms: C_8  and  C_9
REMARK    4  A    between atoms: C_12  and  C_14
REMARK    5  A    between atoms: C_18  and  C_19
REMARK                            x       y       z     vdW  Elec       q    Type
REMARK                         _______ _______ _______ _____ _____    ______ ____
ROOT
ATOM      1  C   UNL     1      -1.523  12.378  22.629  0.00  0.00    +0.000 C 
ATOM      2  C   UNL     1      -3.026  12.444  22.870  0.00  0.00    +0.000 C 
ATOM      3  N   UNL     1      -3.418  13.768  22.404  0.00  0.00    +0.000 N 
ATOM      4  C   UNL     1      -4.717  14.262  22.341  0.00  0.00    +0.000 C 
ATOM      5  O   UNL     1      -4.906  15.457  22.102  0.00  0.00    +0.000 OA
ATOM      6  C   UNL     1      -2.276  14.673  22.440  0.00  0.00    +0.000 C 
ATOM      7  C   UNL     1      -1.614  15.340  21.180  0.00  0.00    +0.000 C 
ATOM      8  C   UNL     1      -1.019  16.612  21.816  0.00  0.00    +0.000 C 
ATOM      9  C   UNL     1      -0.098  16.127  22.984  0.00  0.00    +0.000 C 
ATOM     10  N   UNL     1       0.135  14.624  22.986  0.00  0.00    +0.000 NA
ATOM     11  C   UNL     1       0.720  14.326  21.685  0.00  0.00    +0.000 C 
ATOM     12  C   UNL     1      -0.291  14.703  20.590  0.00  0.00    +0.000 C 
ATOM     13  C   UNL     1      -1.158  13.880  23.108  0.00  0.00    +0.000 C 
ENDROOT
BRANCH   4  14
ATOM     14  C   UNL     1      -5.833  13.348  22.553  0.00  0.00    +0.000 A 
ATOM     15  N   UNL     1      -6.663  13.242  23.645  0.00  0.00    +0.000 N 
ATOM     16  C   UNL     1      -7.536  12.214  23.428  0.00  0.00    +0.000 A 
ATOM     17  N   UNL     1      -7.404  11.727  22.220  0.00  0.00    +0.000 NA
ATOM     18  C   UNL     1      -6.375  12.445  21.648  0.00  0.00    +0.000 A 
ATOM     19  C   UNL     1      -5.953  12.179  20.251  0.00  0.00    +0.000 C 
ATOM     20  H   UNL     1      -6.650  13.800  24.483  0.00  0.00    +0.000 HD
ENDBRANCH   4  14
BRANCH   1  26
ATOM     21  C   UNL     1      -0.151  10.976  20.792  0.00  0.00    +0.000 A 
ATOM     22  C   UNL     1      -0.239  10.287  19.574  0.00  0.00    +0.000 A 
ATOM     23  C   UNL     1      -1.264  10.546  18.673  0.00  0.00    +0.000 A 
ATOM     24  C   UNL     1      -2.199  11.522  18.981  0.00  0.00    +0.000 A 
ATOM     25  C   UNL     1      -2.180  12.149  20.229  0.00  0.00    +0.000 A 
ATOM     26  C   UNL     1      -1.233  11.813  21.216  0.00  0.00    +0.000 A 
BRANCH  21  28
ATOM     27  C   UNL     1       1.123   9.484  22.151  0.00  0.00    +0.000 C 
ATOM     28  O   UNL     1       0.942  10.796  21.602  0.00  0.00    +0.000 OA
ENDBRANCH  21  28
ENDBRANCH   1  26
TORSDOF 3
ENDMDL
MODEL 8
REMARK VINA RESULT:      -7.3      2.150      5.865
REMARK  Name = 
REMARK  5 active torsions:
REMARK  status: ('A' for Active; 'I' for Inactive)
REMARK    1  A    between atoms: C_1  and  O_2
REMARK    2  A    between atoms: O_2  and  C_3
REMARK    3  A    between atoms: C_8  and  C_9
REMARK    4  A    between atoms: C_12  and  C_14
REMARK    5  A    between atoms: C_18  and  C_19
REMARK                            x       y       z     vdW  Elec       q    Type
REMARK                         _______ _______ _______ _____ _____    ______ ____
ROOT
ATOM      1  C   UNL     1       3.834   5.785  19.813  0.00  0.00    +0.000 C 
ATOM      2  C   UNL     1       4.888   5.438  18.770  0.00  0.00    +0.000 C 
ATOM      3  N   UNL     1       4.316   4.324  18.024  0.00  0.00    +0.000 N 
ATOM      4  C   UNL     1       4.878   3.714  16.906  0.00  0.00    +0.000 C 
ATOM      5  O   UNL     1       4.393   2.667  16.473  0.00  0.00    +0.000 OA
ATOM      6  C   UNL     1       3.329   3.626  18.837  0.00  0.00    +0.000 C 
ATOM      7  C   UNL     1       1.793   3.542  18.516  0.00  0.00    +0.000 C 
ATOM      8  C   UNL     1       1.431   2.219  19.221  0.00  0.00    +0.000 C 
ATOM      9  C   UNL     1       1.882   2.379  20.710  0.00  0.00    +0.000 C 
ATOM     10  N   UNL     1       2.282   3.802  21.071  0.00  0.00    +0.000 NA
ATOM     11  C   UNL     1       1.110   4.615  20.777  0.00  0.00    +0.000 C 
ATOM     12  C   UNL     1       0.804   4.517  19.273  0.00  0.00    +0.000 C 
ATOM     13  C   UNL     1       3.416   4.275  20.214  0.00  0.00    +0.000 C 
ENDROOT
BRANCH   4  14
ATOM     14  C   UNL     1       6.029   4.336  16.264  0.00  0.00    +0.000 A 
ATOM     15  N   UNL     1       7.196   4.786  16.838  0.00  0.00    +0.000 N 
ATOM     16  C   UNL     1       7.973   5.343  15.863  0.00  0.00    +0.000 A 
ATOM     17  N   UNL     1       7.440   5.177  14.678  0.00  0.00    +0.000 NA
ATOM     18  C   UNL     1       6.249   4.519  14.905  0.00  0.00    +0.000 A 
ATOM     19  C   UNL     1       5.370   4.138  13.773  0.00  0.00    +0.000 C 
ATOM     20  H   UNL     1       7.460   4.741  17.808  0.00  0.00    +0.000 HD
ENDBRANCH   4  14
BRANCH   1  26
ATOM     21  C   UNL     1       1.992   7.737  19.968  0.00  0.00    +0.000 A 
ATOM     22  C   UNL     1       1.445   8.851  19.316  0.00  0.00    +0.000 A 
ATOM     23  C   UNL     1       1.557   9.007  17.941  0.00  0.00    +0.000 A 
ATOM     24  C   UNL     1       2.205   8.029  17.204  0.00  0.00    +0.000 A 
ATOM     25  C   UNL     1       2.838   6.962  17.847  0.00  0.00    +0.000 A 
ATOM     26  C   UNL     1       2.855   6.845  19.251  0.00  0.00    +0.000 A 
BRANCH  21  28
ATOM     27  C   UNL     1       1.135   8.624  22.011  0.00  0.00    +0.000 C 
ATOM     28  O   UNL     1       1.753   7.540  21.305  0.00  0.00    +0.000 OA
ENDBRANCH  21  28
ENDBRANCH   1  26
TORSDOF 3
ENDMDL
MODEL 9
REMARK VINA RESULT:      -7.1      7.359     10.906
REMARK  Name = 
REMARK  5 active torsions:
REMARK  status: ('A' for Active; 'I' for Inactive)
REMARK    1  A    between atoms: C_1  and  O_2
REMARK    2  A    between atoms: O_2  and  C_3
REMARK    3  A    between atoms: C_8  and  C_9
REMARK    4  A    between atoms: C_12  and  C_14
REMARK    5  A    between atoms: C_18  and  C_19
REMARK                            x       y       z     vdW  Elec       q    Type
REMARK                         _______ _______ _______ _____ _____    ______ ____
ROOT
ATOM      1  C   UNL     1      -1.695  12.218  22.424  0.00  0.00    +0.000 C 
ATOM      2  C   UNL     1      -3.218  12.218  22.416  0.00  0.00    +0.000 C 
ATOM      3  N   UNL     1      -3.585  13.528  21.892  0.00  0.00    +0.000 N 
ATOM      4  C   UNL     1      -4.877  13.966  21.618  0.00  0.00    +0.000 C 
ATOM      5  O   UNL     1      -5.075  15.154  21.352  0.00  0.00    +0.000 OA
ATOM      6  C   UNL     1      -2.506  14.480  22.115  0.00  0.00    +0.000 C 
ATOM      7  C   UNL     1      -1.675  15.185  20.981  0.00  0.00    +0.000 C 
ATOM      8  C   UNL     1      -1.248  16.476  21.708  0.00  0.00    +0.000 C 
ATOM      9  C   UNL     1      -0.510  16.021  23.011  0.00  0.00    +0.000 C 
ATOM     10  N   UNL     1      -0.216  14.530  23.050  0.00  0.00    +0.000 NA
ATOM     11  C   UNL     1       0.587  14.267  21.862  0.00  0.00    +0.000 C 
ATOM     12  C   UNL     1      -0.248  14.609  20.616  0.00  0.00    +0.000 C 
ATOM     13  C   UNL     1      -1.479  13.730  22.957  0.00  0.00    +0.000 C 
ENDROOT
BRANCH   4  14
ATOM     14  C   UNL     1      -5.972  13.004  21.643  0.00  0.00    +0.000 A 
ATOM     15  N   UNL     1      -6.374  12.132  20.657  0.00  0.00    +0.000 N 
ATOM     16  C   UNL     1      -7.475  11.456  21.099  0.00  0.00    +0.000 A 
ATOM     17  N   UNL     1      -7.740  11.745  22.348  0.00  0.00    +0.000 NA
ATOM     18  C   UNL     1      -6.793  12.679  22.714  0.00  0.00    +0.000 A 
ATOM     19  C   UNL     1      -6.768  13.229  24.091  0.00  0.00    +0.000 C 
ATOM     20  H   UNL     1      -5.959  11.999  19.749  0.00  0.00    +0.000 HD
ENDBRANCH   4  14
BRANCH   1  26
ATOM     21  C   UNL     1       0.017  10.886  20.837  0.00  0.00    +0.000 A 
ATOM     22  C   UNL     1       0.158  10.205  19.620  0.00  0.00    +0.000 A 
ATOM     23  C   UNL     1      -0.713  10.432  18.562  0.00  0.00    +0.000 A 
ATOM     24  C   UNL     1      -1.724  11.367  18.713  0.00  0.00    +0.000 A 
ATOM     25  C   UNL     1      -1.937  11.984  19.948  0.00  0.00    +0.000 A 
ATOM     26  C   UNL     1      -1.154  11.677  21.078  0.00  0.00    +0.000 A 
BRANCH  21  28
ATOM     27  C   UNL     1       1.249   9.403  22.243  0.00  0.00    +0.000 C 
ATOM     28  O   UNL     1       0.967  10.742  21.816  0.00  0.00    +0.000 OA
ENDBRANCH  21  28
ENDBRANCH   1  26
TORSDOF 3
ENDMDL
