MODEL 1
REMARK VINA RESULT:      -7.8      0.000      0.000
REMARK  Name = 
REMARK  4 active torsions:
REMARK  status: ('A' for Active; 'I' for Inactive)
REMARK    1  A    between atoms: C_1  and  O_2
REMARK    2  A    between atoms: O_2  and  C_3
REMARK    3  A    between atoms: C_9  and  O_10
REMARK    4  A    between atoms: C_9  and  C_11
REMARK                            x       y       z     vdW  Elec       q    Type
REMARK                         _______ _______ _______ _____ _____    ______ ____
ROOT
ATOM      1  C   UNL     1       2.287   6.631  19.820  0.00  0.00    +0.000 A 
ATOM      2  C   UNL     1       2.597   7.546  18.806  0.00  0.00    +0.000 A 
ATOM      3  N   UNL     1       3.373   7.274  17.724  0.00  0.00    +0.000 NA
ATOM      4  C   UNL     1       3.847   6.019  17.679  0.00  0.00    +0.000 A 
ATOM      5  C   UNL     1       3.599   5.035  18.637  0.00  0.00    +0.000 A 
ATOM      6  C   UNL     1       2.821   5.343  19.739  0.00  0.00    +0.000 A 
ATOM      7  C   UNL     1       4.258   3.727  18.227  0.00  0.00    +0.000 C 
ATOM      8  C   UNL     1       4.976   4.137  16.940  0.00  0.00    +0.000 A 
ATOM      9  C   UNL     1       5.801   3.380  16.119  0.00  0.00    +0.000 A 
ATOM     10  C   UNL     1       6.325   3.984  14.973  0.00  0.00    +0.000 A 
ATOM     11  C   UNL     1       6.035   5.324  14.669  0.00  0.00    +0.000 A 
ATOM     12  C   UNL     1       5.218   6.089  15.508  0.00  0.00    +0.000 A 
ATOM     13  C   UNL     1       4.693   5.488  16.638  0.00  0.00    +0.000 A 
ENDROOT
BRANCH   7  14
ATOM     14  C   UNL     1       3.232   2.569  18.018  0.00  0.00    +0.000 C 
ATOM     15  F   UNL     1       3.817   1.389  17.704  0.00  0.00    +0.000 F 
ATOM     16  F   UNL     1       2.436   2.343  19.086  0.00  0.00    +0.000 F 
ATOM     17  F   UNL     1       2.408   2.874  16.975  0.00  0.00    +0.000 F 
ENDBRANCH   7  14
BRANCH   1  19
ATOM     18  C   UNL     1       1.177   8.242  21.138  0.00  0.00    +0.000 C 
ATOM     19  O   UNL     1       1.511   6.875  20.917  0.00  0.00    +0.000 OA
ENDBRANCH   1  19
BRANCH   7  20
ATOM     20  O   UNL     1       5.268   3.435  19.209  0.00  0.00    +0.000 OA
ATOM     21  H   UNL     1       6.121   3.723  18.835  0.00  0.00    +0.000 HD
ENDBRANCH   7  20
TORSDOF 3
ENDMDL
MODEL 2
REMARK VINA RESULT:      -7.6      2.811      5.062
REMARK  Name = 
REMARK  4 active torsions:
REMARK  status: ('A' for Active; 'I' for Inactive)
REMARK    1  A    between atoms: C_1  and  O_2
REMARK    2  A    between atoms: O_2  and  C_3
REMARK    3  A    between atoms: C_9  and  O_10
REMARK    4  A    between atoms: C_9  and  C_11
REMARK                            x       y       z     vdW  Elec       q    Type
REMARK                         _______ _______ _______ _____ _____    ______ ____
ROOT
ATOM      1  C   UNL     1       6.394   5.657  16.703  0.00  0.00    +0.000 A 
ATOM      2  C   UNL     1       6.102   4.396  16.166  0.00  0.00    +0.000 A 
ATOM      3  N   UNL     1       5.036   3.631  16.516  0.00  0.00    +0.000 NA
ATOM      4  C   UNL     1       4.237   4.177  17.446  0.00  0.00    +0.000 A 
ATOM      5  C   UNL     1       4.441   5.422  18.044  0.00  0.00    +0.000 A 
ATOM      6  C   UNL     1       5.546   6.173  17.684  0.00  0.00    +0.000 A 
ATOM      7  C   UNL     1       3.309   5.728  19.013  0.00  0.00    +0.000 C 
ATOM      8  C   UNL     1       2.482   4.443  18.932  0.00  0.00    +0.000 A 
ATOM      9  C   UNL     1       1.338   4.095  19.637  0.00  0.00    +0.000 A 
ATOM     10  C   UNL     1       0.747   2.858  19.364  0.00  0.00    +0.000 A 
ATOM     11  C   UNL     1       1.305   1.987  18.414  0.00  0.00    +0.000 A 
ATOM     12  C   UNL     1       2.469   2.335  17.720  0.00  0.00    +0.000 A 
ATOM     13  C   UNL     1       3.048   3.563  17.984  0.00  0.00    +0.000 A 
ENDROOT
BRANCH   7  14
ATOM     14  C   UNL     1       2.503   7.006  18.621  0.00  0.00    +0.000 C 
ATOM     15  F   UNL     1       1.772   7.508  19.644  0.00  0.00    +0.000 F 
ATOM     16  F   UNL     1       3.270   8.014  18.151  0.00  0.00    +0.000 F 
ATOM     17  F   UNL     1       1.614   6.698  17.634  0.00  0.00    +0.000 F 
ENDBRANCH   7  14
BRANCH   1  19
ATOM     18  C   UNL     1       7.722   7.522  17.270  0.00  0.00    +0.000 C 
ATOM     19  O   UNL     1       7.456   6.449  16.372  0.00  0.00    +0.000 OA
ENDBRANCH   1  19
BRANCH   7  20
ATOM     20  O   UNL     1       3.885   5.788  20.331  0.00  0.00    +0.000 OA
ATOM     21  H   UNL     1       4.438   4.992  20.437  0.00  0.00    +0.000 HD
ENDBRANCH   7  20
TORSDOF 3
ENDMDL
MODEL 3
REMARK VINA RESULT:      -7.6      1.969      4.883
REMARK  Name = 
REMARK  4 active torsions:
REMARK  status: ('A' for Active; 'I' for Inactive)
REMARK    1  A    between atoms: C_1  and  O_2
REMARK    2  A    between atoms: O_2  and  C_3
REMARK    3  A    between atoms: C_9  and  O_10
REMARK    4  A    between atoms: C_9  and  C_11
REMARK                            x       y       z     vdW  Elec       q    Type
REMARK                         _______ _______ _______ _____ _____    ______ ____
ROOT
ATOM      1  C   UNL     1       5.984   4.813  15.883  0.00  0.00    +0.000 A 
ATOM      2  C   UNL     1       5.948   6.038  16.562  0.00  0.00    +0.000 A 
ATOM      3  N   UNL     1       5.058   6.360  17.537  0.00  0.00    +0.000 NA
ATOM      4  C   UNL     1       4.176   5.393  17.829  0.00  0.00    +0.000 A 
ATOM      5  C   UNL     1       4.126   4.142  17.212  0.00  0.00    +0.000 A 
ATOM      6  C   UNL     1       5.031   3.846  16.208  0.00  0.00    +0.000 A 
ATOM      7  C   UNL     1       3.028   3.294  17.835  0.00  0.00    +0.000 C 
ATOM      8  C   UNL     1       2.417   4.275  18.838  0.00  0.00    +0.000 A 
ATOM      9  C   UNL     1       1.329   4.097  19.683  0.00  0.00    +0.000 A 
ATOM     10  C   UNL     1       0.977   5.149  20.532  0.00  0.00    +0.000 A 
ATOM     11  C   UNL     1       1.695   6.356  20.521  0.00  0.00    +0.000 A 
ATOM     12  C   UNL     1       2.780   6.536  19.656  0.00  0.00    +0.000 A 
ATOM     13  C   UNL     1       3.133   5.492  18.821  0.00  0.00    +0.000 A 
ENDROOT
BRANCH   7  14
ATOM     14  C   UNL     1       3.571   1.990  18.500  0.00  0.00    +0.000 C 
ATOM     15  F   UNL     1       2.632   1.327  19.216  0.00  0.00    +0.000 F 
ATOM     16  F   UNL     1       4.096   1.106  17.623  0.00  0.00    +0.000 F 
ATOM     17  F   UNL     1       4.565   2.307  19.377  0.00  0.00    +0.000 F 
ENDBRANCH   7  14
BRANCH   1  19
ATOM     18  C   UNL     1       6.278   3.941  13.711  0.00  0.00    +0.000 C 
ATOM     19  O   UNL     1       6.865   4.461  14.901  0.00  0.00    +0.000 OA
ENDBRANCH   1  19
BRANCH   7  20
ATOM     20  O   UNL     1       2.044   3.056  16.812  0.00  0.00    +0.000 OA
ATOM     21  H   UNL     1       1.182   2.972  17.259  0.00  0.00    +0.000 HD
ENDBRANCH   7  20
TORSDOF 3
ENDMDL
MODEL 4
REMARK VINA RESULT:      -7.4      1.853      4.872
REMARK  Name = 
REMARK  4 active torsions:
REMARK  status: ('A' for Active; 'I' for Inactive)
REMARK    1  A    between atoms: C_1  and  O_2
REMARK    2  A    between atoms: O_2  and  C_3
REMARK    3  A    between atoms: C_9  and  O_10
REMARK    4  A    between atoms: C_9  and  C_11
REMARK                            x       y       z     vdW  Elec       q    Type
REMARK                         _______ _______ _______ _____ _____    ______ ____
ROOT
ATOM      1  C   UNL     1       5.401   4.537  15.544  0.00  0.00    +0.000 A 
ATOM      2  C   UNL     1       5.379   5.899  15.868  0.00  0.00    +0.000 A 
ATOM      3  N   UNL     1       4.641   6.448  16.868  0.00  0.00    +0.000 NA
ATOM      4  C   UNL     1       3.900   5.570  17.562  0.00  0.00    +0.000 A 
ATOM      5  C   UNL     1       3.850   4.196  17.318  0.00  0.00    +0.000 A 
ATOM      6  C   UNL     1       4.597   3.665  16.281  0.00  0.00    +0.000 A 
ATOM      7  C   UNL     1       2.943   3.518  18.333  0.00  0.00    +0.000 C 
ATOM      8  C   UNL     1       2.430   4.716  19.133  0.00  0.00    +0.000 A 
ATOM      9  C   UNL     1       1.514   4.742  20.177  0.00  0.00    +0.000 A 
ATOM     10  C   UNL     1       1.224   5.975  20.767  0.00  0.00    +0.000 A 
ATOM     11  C   UNL     1       1.830   7.155  20.306  0.00  0.00    +0.000 A 
ATOM     12  C   UNL     1       2.738   7.126  19.242  0.00  0.00    +0.000 A 
ATOM     13  C   UNL     1       3.031   5.904  18.664  0.00  0.00    +0.000 A 
ENDROOT
BRANCH   7  14
ATOM     14  C   UNL     1       3.692   2.466  19.209  0.00  0.00    +0.000 C 
ATOM     15  F   UNL     1       3.912   1.295  18.565  0.00  0.00    +0.000 F 
ATOM     16  F   UNL     1       4.888   2.892  19.673  0.00  0.00    +0.000 F 
ATOM     17  F   UNL     1       2.935   2.163  20.301  0.00  0.00    +0.000 F 
ENDBRANCH   7  14
BRANCH   1  19
ATOM     18  C   UNL     1       7.057   4.816  13.888  0.00  0.00    +0.000 C 
ATOM     19  O   UNL     1       6.133   3.956  14.548  0.00  0.00    +0.000 OA
ENDBRANCH   1  19
BRANCH   7  20
ATOM     20  O   UNL     1       1.825   2.975  17.605  0.00  0.00    +0.000 OA
ATOM     21  H   UNL     1       1.028   3.436  17.923  0.00  0.00    +0.000 HD
ENDBRANCH   7  20
TORSDOF 3
ENDMDL
MODEL 5
REMARK VINA RESULT:      -7.3      3.042      3.658
REMARK  Name = 
REMARK  4 active torsions:
REMARK  status: ('A' for Active; 'I' for Inactive)
REMARK    1  A    between atoms: C_1  and  O_2
REMARK    2  A    between atoms: O_2  and  C_3
REMARK    3  A    between atoms: C_9  and  O_10
REMARK    4  A    between atoms: C_9  and  C_11
REMARK                            x       y       z     vdW  Elec       q    Type
REMARK                         _______ _______ _______ _____ _____    ______ ____
ROOT
ATOM      1  C   UNL     1       3.156   4.566  19.638  0.00  0.00    +0.000 A 
ATOM      2  C   UNL     1       2.766   3.667  18.637  0.00  0.00    +0.000 A 
ATOM      3  N   UNL     1       3.390   3.520  17.439  0.00  0.00    +0.000 NA
ATOM      4  C   UNL     1       4.451   4.321  17.260  0.00  0.00    +0.000 A 
ATOM      5  C   UNL     1       4.919   5.250  18.191  0.00  0.00    +0.000 A 
ATOM      6  C   UNL     1       4.254   5.393  19.396  0.00  0.00    +0.000 A 
ATOM      7  C   UNL     1       6.167   5.939  17.661  0.00  0.00    +0.000 C 
ATOM      8  C   UNL     1       6.289   5.320  16.267  0.00  0.00    +0.000 A 
ATOM      9  C   UNL     1       7.215   5.591  15.268  0.00  0.00    +0.000 A 
ATOM     10  C   UNL     1       7.129   4.866  14.077  0.00  0.00    +0.000 A 
ATOM     11  C   UNL     1       6.125   3.901  13.891  0.00  0.00    +0.000 A 
ATOM     12  C   UNL     1       5.184   3.645  14.893  0.00  0.00    +0.000 A 
ATOM     13  C   UNL     1       5.274   4.357  16.075  0.00  0.00    +0.000 A 
ENDROOT
BRANCH   7  14
ATOM     14  C   UNL     1       7.422   5.694  18.556  0.00  0.00    +0.000 C 
ATOM     15  F   UNL     1       8.340   6.686  18.468  0.00  0.00    +0.000 F 
ATOM     16  F   UNL     1       7.137   5.535  19.868  0.00  0.00    +0.000 F 
ATOM     17  F   UNL     1       8.053   4.555  18.153  0.00  0.00    +0.000 F 
ENDBRANCH   7  14
BRANCH   1  19
ATOM     18  C   UNL     1       1.998   3.556  21.428  0.00  0.00    +0.000 C 
ATOM     19  O   UNL     1       2.551   4.735  20.851  0.00  0.00    +0.000 OA
ENDBRANCH   1  19
BRANCH   7  20
ATOM     20  O   UNL     1       5.841   7.330  17.487  0.00  0.00    +0.000 OA
ATOM     21  H   UNL     1       5.656   7.463  16.540  0.00  0.00    +0.000 HD
ENDBRANCH   7  20
TORSDOF 3
ENDMDL
MODEL 6
REMARK VINA RESULT:      -7.3      2.766      5.427
REMARK  Name = 
REMARK  4 active torsions:
REMARK  status: ('A' for Active; 'I' for Inactive)
REMARK    1  A    between atoms: C_1  and  O_2
REMARK    2  A    between atoms: O_2  and  C_3
REMARK    3  A    between atoms: C_9  and  O_10
REMARK    4  A    between atoms: C_9  and  C_11
REMARK                            x       y       z     vdW  Elec       q    Type
REMARK                         _______ _______ _______ _____ _____    ______ ____
ROOT
ATOM      1  C   UNL     1       6.118   5.062  16.024  0.00  0.00    +0.000 A 
ATOM      2  C   UNL     1       5.583   3.811  15.692  0.00  0.00    +0.000 A 
ATOM      3  N   UNL     1       4.516   3.235  16.305  0.00  0.00    +0.000 NA
ATOM      4  C   UNL     1       3.976   3.968  17.292  0.00  0.00    +0.000 A 
ATOM      5  C   UNL     1       4.435   5.222  17.700  0.00  0.00    +0.000 A 
ATOM      6  C   UNL     1       5.536   5.778  17.072  0.00  0.00    +0.000 A 
ATOM      7  C   UNL     1       3.548   5.767  18.809  0.00  0.00    +0.000 C 
ATOM      8  C   UNL     1       2.573   4.608  19.019  0.00  0.00    +0.000 A 
ATOM      9  C   UNL     1       1.546   4.486  19.945  0.00  0.00    +0.000 A 
ATOM     10  C   UNL     1       0.771   3.324  19.920  0.00  0.00    +0.000 A 
ATOM     11  C   UNL     1       1.034   2.302  18.993  0.00  0.00    +0.000 A 
ATOM     12  C   UNL     1       2.081   2.421  18.074  0.00  0.00    +0.000 A 
ATOM     13  C   UNL     1       2.843   3.576  18.093  0.00  0.00    +0.000 A 
ENDROOT
BRANCH   7  14
ATOM     14  C   UNL     1       2.842   7.104  18.420  0.00  0.00    +0.000 C 
ATOM     15  F   UNL     1       2.343   7.773  19.486  0.00  0.00    +0.000 F 
ATOM     16  F   UNL     1       3.637   7.968  17.748  0.00  0.00    +0.000 F 
ATOM     17  F   UNL     1       1.781   6.838  17.608  0.00  0.00    +0.000 F 
ENDBRANCH   7  14
BRANCH   1  19
ATOM     18  C   UNL     1       7.471   5.234  14.099  0.00  0.00    +0.000 C 
ATOM     19  O   UNL     1       7.188   5.666  15.427  0.00  0.00    +0.000 OA
ENDBRANCH   1  19
BRANCH   7  20
ATOM     20  O   UNL     1       4.362   5.865  19.992  0.00  0.00    +0.000 OA
ATOM     21  H   UNL     1       3.771   6.117  20.725  0.00  0.00    +0.000 HD
ENDBRANCH   7  20
TORSDOF 3
ENDMDL
MODEL 7
REMARK VINA RESULT:      -7.2      0.935      1.357
REMARK  Name = 
REMARK  4 active torsions:
REMARK  status: ('A' for Active; 'I' for Inactive)
REMARK    1  A    between atoms: C_1  and  O_2
REMARK    2  A    between atoms: O_2  and  C_3
REMARK    3  A    between atoms: C_9  and  O_10
REMARK    4  A    between atoms: C_9  and  C_11
REMARK                            x       y       z     vdW  Elec       q    Type
REMARK                         _______ _______ _______ _____ _____    ______ ____
ROOT
ATOM      1  C   UNL     1       1.721   7.310  20.179  0.00  0.00    +0.000 A 
ATOM      2  C   UNL     1       2.220   8.205  19.224  0.00  0.00    +0.000 A 
ATOM      3  N   UNL     1       3.026   7.862  18.185  0.00  0.00    +0.000 NA
ATOM      4  C   UNL     1       3.329   6.556  18.120  0.00  0.00    +0.000 A 
ATOM      5  C   UNL     1       2.885   5.587  19.021  0.00  0.00    +0.000 A 
ATOM      6  C   UNL     1       2.081   5.965  20.082  0.00  0.00    +0.000 A 
ATOM      7  C   UNL     1       3.389   4.214  18.602  0.00  0.00    +0.000 C 
ATOM      8  C   UNL     1       4.244   4.562  17.382  0.00  0.00    +0.000 A 
ATOM      9  C   UNL     1       5.015   3.724  16.587  0.00  0.00    +0.000 A 
ATOM     10  C   UNL     1       5.693   4.286  15.502  0.00  0.00    +0.000 A 
ATOM     11  C   UNL     1       5.607   5.662  15.233  0.00  0.00    +0.000 A 
ATOM     12  C   UNL     1       4.844   6.505  16.047  0.00  0.00    +0.000 A 
ATOM     13  C   UNL     1       4.166   5.947  17.116  0.00  0.00    +0.000 A 
ENDROOT
BRANCH   7  14
ATOM     14  C   UNL     1       2.234   3.214  18.282  0.00  0.00    +0.000 C 
ATOM     15  F   UNL     1       1.223   3.777  17.578  0.00  0.00    +0.000 F 
ATOM     16  F   UNL     1       2.632   2.120  17.596  0.00  0.00    +0.000 F 
ATOM     17  F   UNL     1       1.685   2.767  19.446  0.00  0.00    +0.000 F 
ENDBRANCH   7  14
BRANCH   1  19
ATOM     18  C   UNL     1       1.083   8.933  21.768  0.00  0.00    +0.000 C 
ATOM     19  O   UNL     1       0.910   7.624  21.232  0.00  0.00    +0.000 OA
ENDBRANCH   1  19
BRANCH   7  20
ATOM     20  O   UNL     1       4.281   3.757  19.636  0.00  0.00    +0.000 OA
ATOM     21  H   UNL     1       5.125   3.530  19.204  0.00  0.00    +0.000 HD
ENDBRANCH   7  20
TORSDOF 3
ENDMDL
MODEL 8
REMARK VINA RESULT:      -7.1      1.542      2.011
REMARK  Name = 
REMARK  4 active torsions:
REMARK  status: ('A' for Active; 'I' for Inactive)
REMARK    1  A    between atoms: C_1  and  O_2
REMARK    2  A    between atoms: O_2  and  C_3
REMARK    3  A    between atoms: C_9  and  O_10
REMARK    4  A    between atoms: C_9  and  C_11
REMARK                            x       y       z     vdW  Elec       q    Type
REMARK                         _______ _______ _______ _____ _____    ______ ____
ROOT
ATOM      1  C   UNL     1       1.495   8.861  19.286  0.00  0.00    +0.000 A 
ATOM      2  C   UNL     1       2.122   9.369  18.141  0.00  0.00    +0.000 A 
ATOM      3  N   UNL     1       2.988   8.675  17.357  0.00  0.00    +0.000 NA
ATOM      4  C   UNL     1       3.219   7.416  17.759  0.00  0.00    +0.000 A 
ATOM      5  C   UNL     1       2.648   6.817  18.883  0.00  0.00    +0.000 A 
ATOM      6  C   UNL     1       1.784   7.552  19.676  0.00  0.00    +0.000 A 
ATOM      7  C   UNL     1       3.104   5.371  18.995  0.00  0.00    +0.000 C 
ATOM      8  C   UNL     1       4.073   5.265  17.816  0.00  0.00    +0.000 A 
ATOM      9  C   UNL     1       4.857   4.188  17.423  0.00  0.00    +0.000 A 
ATOM     10  C   UNL     1       5.652   4.333  16.283  0.00  0.00    +0.000 A 
ATOM     11  C   UNL     1       5.669   5.541  15.566  0.00  0.00    +0.000 A 
ATOM     12  C   UNL     1       4.892   6.629  15.977  0.00  0.00    +0.000 A 
ATOM     13  C   UNL     1       4.099   6.481  17.100  0.00  0.00    +0.000 A 
ENDROOT
BRANCH   7  14
ATOM     14  C   UNL     1       1.922   4.353  18.915  0.00  0.00    +0.000 C 
ATOM     15  F   UNL     1       2.329   3.062  18.940  0.00  0.00    +0.000 F 
ATOM     16  F   UNL     1       1.007   4.499  19.899  0.00  0.00    +0.000 F 
ATOM     17  F   UNL     1       1.259   4.520  17.736  0.00  0.00    +0.000 F 
ENDBRANCH   7  14
BRANCH   1  19
ATOM     18  C   UNL     1       0.398   8.949  21.372  0.00  0.00    +0.000 C 
ATOM     19  O   UNL     1       0.621   9.533  20.092  0.00  0.00    +0.000 OA
ENDBRANCH   1  19
BRANCH   7  20
ATOM     20  O   UNL     1       3.881   5.263  20.202  0.00  0.00    +0.000 OA
ATOM     21  H   UNL     1       4.249   4.361  20.224  0.00  0.00    +0.000 HD
ENDBRANCH   7  20
TORSDOF 3
ENDMDL
MODEL 9
REMARK VINA RESULT:      -7.0      3.189      4.346
REMARK  Name = 
REMARK  4 active torsions:
REMARK  status: ('A' for Active; 'I' for Inactive)
REMARK    1  A    between atoms: C_1  and  O_2
REMARK    2  A    between atoms: O_2  and  C_3
REMARK    3  A    between atoms: C_9  and  O_10
REMARK    4  A    between atoms: C_9  and  C_11
REMARK                            x       y       z     vdW  Elec       q    Type
REMARK                         _______ _______ _______ _____ _____    ______ ____
ROOT
ATOM      1  C   UNL     1       3.020   2.503  19.028  0.00  0.00    +0.000 A 
ATOM      2  C   UNL     1       4.164   2.338  19.819  0.00  0.00    +0.000 A 
ATOM      3  N   UNL     1       5.240   3.168  19.811  0.00  0.00    +0.000 NA
ATOM      4  C   UNL     1       5.140   4.205  18.965  0.00  0.00    +0.000 A 
ATOM      5  C   UNL     1       4.046   4.456  18.134  0.00  0.00    +0.000 A 
ATOM      6  C   UNL     1       2.971   3.585  18.147  0.00  0.00    +0.000 A 
ATOM      7  C   UNL     1       4.268   5.743  17.354  0.00  0.00    +0.000 C 
ATOM      8  C   UNL     1       5.675   6.137  17.807  0.00  0.00    +0.000 A 
ATOM      9  C   UNL     1       6.457   7.209  17.398  0.00  0.00    +0.000 A 
ATOM     10  C   UNL     1       7.715   7.369  17.986  0.00  0.00    +0.000 A 
ATOM     11  C   UNL     1       8.179   6.461  18.952  0.00  0.00    +0.000 A 
ATOM     12  C   UNL     1       7.395   5.372  19.347  0.00  0.00    +0.000 A 
ATOM     13  C   UNL     1       6.147   5.219  18.771  0.00  0.00    +0.000 A 
ENDROOT
BRANCH   7  14
ATOM     14  C   UNL     1       3.193   6.833  17.661  0.00  0.00    +0.000 C 
ATOM     15  F   UNL     1       3.322   7.940  16.892  0.00  0.00    +0.000 F 
ATOM     16  F   UNL     1       1.920   6.401  17.522  0.00  0.00    +0.000 F 
ATOM     17  F   UNL     1       3.325   7.249  18.952  0.00  0.00    +0.000 F 
ENDBRANCH   7  14
BRANCH   1  19
ATOM     18  C   UNL     1       0.668   2.354  18.921  0.00  0.00    +0.000 C 
ATOM     19  O   UNL     1       1.924   1.688  19.014  0.00  0.00    +0.000 OA
ENDBRANCH   1  19
BRANCH   7  20
ATOM     20  O   UNL     1       4.348   5.386  15.961  0.00  0.00    +0.000 OA
ATOM     21  H   UNL     1       4.264   4.416  15.911  0.00  0.00    +0.000 HD
ENDBRANCH   7  20
TORSDOF 3
ENDMDL
