MODEL 1
REMARK VINA RESULT:      -8.0      0.000      0.000
REMARK  Name = 
REMARK  5 active torsions:
REMARK  status: ('A' for Active; 'I' for Inactive)
REMARK    1  A    between atoms: C_1  and  N_2
REMARK    2  A    between atoms: C_6  and  C_7
REMARK    3  A    between atoms: C_7  and  N_8
REMARK    4  A    between atoms: C_9  and  C_11
REMARK    5  A    between atoms: C_11  and  C_12
REMARK                            x       y       z     vdW  Elec       q    Type
REMARK                         _______ _______ _______ _____ _____    ______ ____
ROOT
ATOM      1  C   UNL     1       3.480   4.863  18.892  0.00  0.00    +0.000 C 
ATOM      2  C   UNL     1       2.637   4.818  17.591  0.00  0.00    +0.000 C 
ATOM      3  C   UNL     1       1.274   4.165  17.791  0.00  0.00    +0.000 C 
ATOM      4  C   UNL     1       1.322   2.855  18.541  0.00  0.00    +0.000 C 
ATOM      5  O   UNL     1       0.412   2.034  18.469  0.00  0.00    +0.000 OA
ATOM      6  N   UNL     1       2.365   2.657  19.394  0.00  0.00    +0.000 N 
ATOM      7  C   UNL     1       3.616   3.398  19.384  0.00  0.00    +0.000 C 
ATOM      8  H   UNL     1       2.335   1.769  19.884  0.00  0.00    +0.000 HD
ENDROOT
BRANCH   1   9
ATOM      9  C   UNL     1       4.885   5.435  18.582  0.00  0.00    +0.000 A 
ATOM     10  C   UNL     1       6.018   5.138  19.355  0.00  0.00    +0.000 A 
ATOM     11  C   UNL     1       7.262   5.718  19.069  0.00  0.00    +0.000 A 
ATOM     12  C   UNL     1       7.404   6.597  18.000  0.00  0.00    +0.000 A 
ATOM     13  C   UNL     1       6.308   6.881  17.196  0.00  0.00    +0.000 A 
ATOM     14  C   UNL     1       5.068   6.304  17.482  0.00  0.00    +0.000 A 
ENDBRANCH   1   9
BRANCH   1  16
ATOM     15  N   UNL     1       2.485   6.991  19.786  0.00  0.00    +0.000 N 
ATOM     16  C   UNL     1       2.728   5.646  20.011  0.00  0.00    +0.000 C 
ATOM     17  O   UNL     1       2.370   5.116  21.064  0.00  0.00    +0.000 OA
ATOM     18  H   UNL     1       3.097   7.503  19.164  0.00  0.00    +0.000 HD
BRANCH  15  19
ATOM     19  C   UNL     1       1.697   7.732  20.745  0.00  0.00    +0.000 C 
BRANCH  19  25
ATOM     20  C   UNL     1      -0.077   9.901  22.131  0.00  0.00    +0.000 C 
ATOM     21  N   UNL     1       0.372   9.894  20.760  0.00  0.00    +0.000 N 
ATOM     22  N   UNL     1       0.053  10.943  19.975  0.00  0.00    +0.000 NA
ATOM     23  C   UNL     1       0.628  10.662  18.806  0.00  0.00    +0.000 A 
ATOM     24  C   UNL     1       1.294   9.429  18.826  0.00  0.00    +0.000 A 
ATOM     25  C   UNL     1       1.128   8.946  20.111  0.00  0.00    +0.000 A 
ENDBRANCH  19  25
ENDBRANCH  15  19
ENDBRANCH   1  16
TORSDOF 4
ENDMDL
MODEL 2
REMARK VINA RESULT:      -7.9      0.137      1.011
REMARK  Name = 
REMARK  5 active torsions:
REMARK  status: ('A' for Active; 'I' for Inactive)
REMARK    1  A    between atoms: C_1  and  N_2
REMARK    2  A    between atoms: C_6  and  C_7
REMARK    3  A    between atoms: C_7  and  N_8
REMARK    4  A    between atoms: C_9  and  C_11
REMARK    5  A    between atoms: C_11  and  C_12
REMARK                            x       y       z     vdW  Elec       q    Type
REMARK                         _______ _______ _______ _____ _____    ______ ____
ROOT
ATOM      1  C   UNL     1       3.569   4.906  18.914  0.00  0.00    +0.000 C 
ATOM      2  C   UNL     1       2.730   4.776  17.615  0.00  0.00    +0.000 C 
ATOM      3  C   UNL     1       1.404   4.058  17.838  0.00  0.00    +0.000 C 
ATOM      4  C   UNL     1       1.520   2.777  18.628  0.00  0.00    +0.000 C 
ATOM      5  O   UNL     1       0.655   1.906  18.583  0.00  0.00    +0.000 OA
ATOM      6  N   UNL     1       2.572   2.661  19.486  0.00  0.00    +0.000 N 
ATOM      7  C   UNL     1       3.781   3.467  19.452  0.00  0.00    +0.000 C 
ATOM      8  H   UNL     1       2.588   1.788  20.004  0.00  0.00    +0.000 HD
ENDROOT
BRANCH   1   9
ATOM      9  C   UNL     1       4.941   5.541  18.585  0.00  0.00    +0.000 A 
ATOM     10  C   UNL     1       5.136   6.428  17.514  0.00  0.00    +0.000 A 
ATOM     11  C   UNL     1       6.407   6.941  17.220  0.00  0.00    +0.000 A 
ATOM     12  C   UNL     1       7.508   6.590  17.994  0.00  0.00    +0.000 A 
ATOM     13  C   UNL     1       7.339   5.744  19.082  0.00  0.00    +0.000 A 
ATOM     14  C   UNL     1       6.072   5.231  19.374  0.00  0.00    +0.000 A 
ENDBRANCH   1   9
BRANCH   1  16
ATOM     15  N   UNL     1       2.531   7.026  19.777  0.00  0.00    +0.000 N 
ATOM     16  C   UNL     1       2.775   5.683  20.009  0.00  0.00    +0.000 C 
ATOM     17  O   UNL     1       2.387   5.149  21.049  0.00  0.00    +0.000 OA
ATOM     18  H   UNL     1       3.159   7.543  19.175  0.00  0.00    +0.000 HD
BRANCH  15  19
ATOM     19  C   UNL     1       1.707   7.761  20.711  0.00  0.00    +0.000 C 
BRANCH  19  25
ATOM     20  C   UNL     1       0.009  10.001  22.080  0.00  0.00    +0.000 C 
ATOM     21  N   UNL     1       0.424   9.948  20.698  0.00  0.00    +0.000 N 
ATOM     22  N   UNL     1       0.105  10.981  19.892  0.00  0.00    +0.000 NA
ATOM     23  C   UNL     1       0.646  10.658  18.719  0.00  0.00    +0.000 A 
ATOM     24  C   UNL     1       1.288   9.412  18.756  0.00  0.00    +0.000 A 
ATOM     25  C   UNL     1       1.145   8.968  20.057  0.00  0.00    +0.000 A 
ENDBRANCH  19  25
ENDBRANCH  15  19
ENDBRANCH   1  16
TORSDOF 4
ENDMDL
MODEL 3
REMARK VINA RESULT:      -7.6      0.782      1.299
REMARK  Name = 
REMARK  5 active torsions:
REMARK  status: ('A' for Active; 'I' for Inactive)
REMARK    1  A    between atoms: C_1  and  N_2
REMARK    2  A    between atoms: C_6  and  C_7
REMARK    3  A    between atoms: C_7  and  N_8
REMARK    4  A    between atoms: C_9  and  C_11
REMARK    5  A    between atoms: C_11  and  C_12
REMARK                            x       y       z     vdW  Elec       q    Type
REMARK                         _______ _______ _______ _____ _____    ______ ____
ROOT
ATOM      1  C   UNL     1       3.475   4.866  18.882  0.00  0.00    +0.000 C 
ATOM      2  C   UNL     1       2.621   4.830  17.587  0.00  0.00    +0.000 C 
ATOM      3  C   UNL     1       1.258   4.179  17.794  0.00  0.00    +0.000 C 
ATOM      4  C   UNL     1       1.309   2.865  18.536  0.00  0.00    +0.000 C 
ATOM      5  O   UNL     1       0.397   2.045  18.466  0.00  0.00    +0.000 OA
ATOM      6  N   UNL     1       2.359   2.659  19.380  0.00  0.00    +0.000 N 
ATOM      7  C   UNL     1       3.611   3.398  19.364  0.00  0.00    +0.000 C 
ATOM      8  H   UNL     1       2.330   1.768  19.865  0.00  0.00    +0.000 HD
ENDROOT
BRANCH   1   9
ATOM      9  C   UNL     1       4.878   5.436  18.564  0.00  0.00    +0.000 A 
ATOM     10  C   UNL     1       6.014   5.144  19.335  0.00  0.00    +0.000 A 
ATOM     11  C   UNL     1       7.256   5.723  19.042  0.00  0.00    +0.000 A 
ATOM     12  C   UNL     1       7.395   6.596  17.967  0.00  0.00    +0.000 A 
ATOM     13  C   UNL     1       6.296   6.874  17.165  0.00  0.00    +0.000 A 
ATOM     14  C   UNL     1       5.057   6.298  17.458  0.00  0.00    +0.000 A 
ENDBRANCH   1   9
BRANCH   1  16
ATOM     15  N   UNL     1       2.524   6.998  19.812  0.00  0.00    +0.000 N 
ATOM     16  C   UNL     1       2.733   5.644  20.012  0.00  0.00    +0.000 C 
ATOM     17  O   UNL     1       2.354   5.101  21.050  0.00  0.00    +0.000 OA
ATOM     18  H   UNL     1       3.153   7.508  19.204  0.00  0.00    +0.000 HD
BRANCH  15  19
ATOM     19  C   UNL     1       1.747   7.739  20.781  0.00  0.00    +0.000 C 
BRANCH  19  25
ATOM     20  C   UNL     1       2.260   8.832  17.897  0.00  0.00    +0.000 C 
ATOM     21  N   UNL     1       1.259   9.286  18.832  0.00  0.00    +0.000 N 
ATOM     22  N   UNL     1       0.403  10.251  18.439  0.00  0.00    +0.000 NA
ATOM     23  C   UNL     1      -0.401  10.422  19.487  0.00  0.00    +0.000 A 
ATOM     24  C   UNL     1      -0.053   9.592  20.562  0.00  0.00    +0.000 A 
ATOM     25  C   UNL     1       1.024   8.849  20.115  0.00  0.00    +0.000 A 
ENDBRANCH  19  25
ENDBRANCH  15  19
ENDBRANCH   1  16
TORSDOF 4
ENDMDL
MODEL 4
REMARK VINA RESULT:      -7.5      2.461      4.329
REMARK  Name = 
REMARK  5 active torsions:
REMARK  status: ('A' for Active; 'I' for Inactive)
REMARK    1  A    between atoms: C_1  and  N_2
REMARK    2  A    between atoms: C_6  and  C_7
REMARK    3  A    between atoms: C_7  and  N_8
REMARK    4  A    between atoms: C_9  and  C_11
REMARK    5  A    between atoms: C_11  and  C_12
REMARK                            x       y       z     vdW  Elec       q    Type
REMARK                         _______ _______ _______ _____ _____    ______ ____
ROOT
ATOM      1  C   UNL     1       4.140   4.727  18.279  0.00  0.00    +0.000 C 
ATOM      2  C   UNL     1       5.320   4.778  19.284  0.00  0.00    +0.000 C 
ATOM      3  C   UNL     1       6.625   5.235  18.642  0.00  0.00    +0.000 C 
ATOM      4  C   UNL     1       6.951   4.536  17.344  0.00  0.00    +0.000 C 
ATOM      5  O   UNL     1       8.094   4.498  16.897  0.00  0.00    +0.000 OA
ATOM      6  N   UNL     1       5.910   4.037  16.620  0.00  0.00    +0.000 N 
ATOM      7  C   UNL     1       4.574   3.777  17.132  0.00  0.00    +0.000 C 
ATOM      8  H   UNL     1       6.187   3.596  15.749  0.00  0.00    +0.000 HD
ENDROOT
BRANCH   1   9
ATOM      9  C   UNL     1       2.886   4.151  18.978  0.00  0.00    +0.000 A 
ATOM     10  C   UNL     1       2.686   4.218  20.366  0.00  0.00    +0.000 A 
ATOM     11  C   UNL     1       1.559   3.638  20.965  0.00  0.00    +0.000 A 
ATOM     12  C   UNL     1       0.601   2.989  20.192  0.00  0.00    +0.000 A 
ATOM     13  C   UNL     1       0.754   2.939  18.812  0.00  0.00    +0.000 A 
ATOM     14  C   UNL     1       1.878   3.516  18.216  0.00  0.00    +0.000 A 
ENDBRANCH   1   9
BRANCH   1  16
ATOM     15  N   UNL     1       3.003   6.969  18.273  0.00  0.00    +0.000 N 
ATOM     16  C   UNL     1       3.900   6.128  17.636  0.00  0.00    +0.000 C 
ATOM     17  O   UNL     1       4.462   6.485  16.600  0.00  0.00    +0.000 OA
ATOM     18  H   UNL     1       2.270   6.564  18.842  0.00  0.00    +0.000 HD
BRANCH  15  19
ATOM     19  C   UNL     1       2.829   8.316  17.776  0.00  0.00    +0.000 C 
BRANCH  19  25
ATOM     20  C   UNL     1       1.795   7.768  20.675  0.00  0.00    +0.000 C 
ATOM     21  N   UNL     1       1.256   8.711  19.725  0.00  0.00    +0.000 N 
ATOM     22  N   UNL     1       0.226   9.492  20.110  0.00  0.00    +0.000 NA
ATOM     23  C   UNL     1      -0.014  10.261  19.049  0.00  0.00    +0.000 A 
ATOM     24  C   UNL     1       0.836   9.962  17.975  0.00  0.00    +0.000 A 
ATOM     25  C   UNL     1       1.667   8.958  18.436  0.00  0.00    +0.000 A 
ENDBRANCH  19  25
ENDBRANCH  15  19
ENDBRANCH   1  16
TORSDOF 4
ENDMDL
MODEL 5
REMARK VINA RESULT:      -7.5      0.770      1.635
REMARK  Name = 
REMARK  5 active torsions:
REMARK  status: ('A' for Active; 'I' for Inactive)
REMARK    1  A    between atoms: C_1  and  N_2
REMARK    2  A    between atoms: C_6  and  C_7
REMARK    3  A    between atoms: C_7  and  N_8
REMARK    4  A    between atoms: C_9  and  C_11
REMARK    5  A    between atoms: C_11  and  C_12
REMARK                            x       y       z     vdW  Elec       q    Type
REMARK                         _______ _______ _______ _____ _____    ______ ____
ROOT
ATOM      1  C   UNL     1       3.433   4.926  18.884  0.00  0.00    +0.000 C 
ATOM      2  C   UNL     1       2.580   4.877  17.590  0.00  0.00    +0.000 C 
ATOM      3  C   UNL     1       1.228   4.203  17.798  0.00  0.00    +0.000 C 
ATOM      4  C   UNL     1       1.301   2.889  18.538  0.00  0.00    +0.000 C 
ATOM      5  O   UNL     1       0.403   2.054  18.469  0.00  0.00    +0.000 OA
ATOM      6  N   UNL     1       2.355   2.701  19.382  0.00  0.00    +0.000 N 
ATOM      7  C   UNL     1       3.594   3.460  19.365  0.00  0.00    +0.000 C 
ATOM      8  H   UNL     1       2.342   1.809  19.866  0.00  0.00    +0.000 HD
ENDROOT
BRANCH   1   9
ATOM      9  C   UNL     1       4.826   5.520  18.566  0.00  0.00    +0.000 A 
ATOM     10  C   UNL     1       5.060   6.383  17.483  0.00  0.00    +0.000 A 
ATOM     11  C   UNL     1       6.348   6.858  17.201  0.00  0.00    +0.000 A 
ATOM     12  C   UNL     1       7.428   6.493  17.998  0.00  0.00    +0.000 A 
ATOM     13  C   UNL     1       7.221   5.670  19.098  0.00  0.00    +0.000 A 
ATOM     14  C   UNL     1       5.937   5.195  19.378  0.00  0.00    +0.000 A 
ENDBRANCH   1   9
BRANCH   1  16
ATOM     15  N   UNL     1       2.489   7.050  19.839  0.00  0.00    +0.000 N 
ATOM     16  C   UNL     1       2.679   5.691  20.015  0.00  0.00    +0.000 C 
ATOM     17  O   UNL     1       2.275   5.132  21.036  0.00  0.00    +0.000 OA
ATOM     18  H   UNL     1       3.135   7.565  19.253  0.00  0.00    +0.000 HD
BRANCH  15  19
ATOM     19  C   UNL     1       1.702   7.781  20.807  0.00  0.00    +0.000 C 
BRANCH  19  25
ATOM     20  C   UNL     1       2.192   8.864  17.915  0.00  0.00    +0.000 C 
ATOM     21  N   UNL     1       1.199   9.322  18.857  0.00  0.00    +0.000 N 
ATOM     22  N   UNL     1       0.341  10.286  18.466  0.00  0.00    +0.000 NA
ATOM     23  C   UNL     1      -0.454  10.461  19.520  0.00  0.00    +0.000 A 
ATOM     24  C   UNL     1      -0.098   9.635  20.596  0.00  0.00    +0.000 A 
ATOM     25  C   UNL     1       0.974   8.890  20.143  0.00  0.00    +0.000 A 
ENDBRANCH  19  25
ENDBRANCH  15  19
ENDBRANCH   1  16
TORSDOF 4
ENDMDL
MODEL 6
REMARK VINA RESULT:      -7.5      2.433      4.436
REMARK  Name = 
REMARK  5 active torsions:
REMARK  status: ('A' for Active; 'I' for Inactive)
REMARK    1  A    between atoms: C_1  and  N_2
REMARK    2  A    between atoms: C_6  and  C_7
REMARK    3  A    between atoms: C_7  and  N_8
REMARK    4  A    between atoms: C_9  and  C_11
REMARK    5  A    between atoms: C_11  and  C_12
REMARK                            x       y       z     vdW  Elec       q    Type
REMARK                         _______ _______ _______ _____ _____    ______ ____
ROOT
ATOM      1  C   UNL     1       4.036   4.657  18.159  0.00  0.00    +0.000 C 
ATOM      2  C   UNL     1       5.357   4.506  18.959  0.00  0.00    +0.000 C 
ATOM      3  C   UNL     1       6.557   5.108  18.238  0.00  0.00    +0.000 C 
ATOM      4  C   UNL     1       6.667   4.711  16.785  0.00  0.00    +0.000 C 
ATOM      5  O   UNL     1       7.728   4.786  16.171  0.00  0.00    +0.000 OA
ATOM      6  N   UNL     1       5.518   4.365  16.139  0.00  0.00    +0.000 N 
ATOM      7  C   UNL     1       4.272   3.983  16.782  0.00  0.00    +0.000 C 
ATOM      8  H   UNL     1       5.650   4.126  15.162  0.00  0.00    +0.000 HD
ENDROOT
BRANCH   1   9
ATOM      9  C   UNL     1       2.892   3.927  18.902  0.00  0.00    +0.000 A 
ATOM     10  C   UNL     1       1.894   3.196  18.238  0.00  0.00    +0.000 A 
ATOM     11  C   UNL     1       0.847   2.591  18.947  0.00  0.00    +0.000 A 
ATOM     12  C   UNL     1       0.778   2.692  20.333  0.00  0.00    +0.000 A 
ATOM     13  C   UNL     1       1.771   3.379  21.019  0.00  0.00    +0.000 A 
ATOM     14  C   UNL     1       2.815   3.983  20.313  0.00  0.00    +0.000 A 
ENDBRANCH   1   9
BRANCH   1  16
ATOM     15  N   UNL     1       2.602   6.697  18.477  0.00  0.00    +0.000 N 
ATOM     16  C   UNL     1       3.729   6.160  17.878  0.00  0.00    +0.000 C 
ATOM     17  O   UNL     1       4.436   6.854  17.145  0.00  0.00    +0.000 OA
ATOM     18  H   UNL     1       1.835   6.082  18.720  0.00  0.00    +0.000 HD
BRANCH  15  19
ATOM     19  C   UNL     1       2.336   8.111  18.334  0.00  0.00    +0.000 C 
BRANCH  19  25
ATOM     20  C   UNL     1       0.589  10.698  18.494  0.00  0.00    +0.000 C 
ATOM     21  N   UNL     1       0.836   9.751  19.554  0.00  0.00    +0.000 N 
ATOM     22  N   UNL     1       0.227   9.943  20.742  0.00  0.00    +0.000 NA
ATOM     23  C   UNL     1       0.619   8.907  21.481  0.00  0.00    +0.000 A 
ATOM     24  C   UNL     1       1.497   8.063  20.786  0.00  0.00    +0.000 A 
ATOM     25  C   UNL     1       1.619   8.620  19.527  0.00  0.00    +0.000 A 
ENDBRANCH  19  25
ENDBRANCH  15  19
ENDBRANCH   1  16
TORSDOF 4
ENDMDL
MODEL 7
REMARK VINA RESULT:      -7.5      2.466      4.396
REMARK  Name = 
REMARK  5 active torsions:
REMARK  status: ('A' for Active; 'I' for Inactive)
REMARK    1  A    between atoms: C_1  and  N_2
REMARK    2  A    between atoms: C_6  and  C_7
REMARK    3  A    between atoms: C_7  and  N_8
REMARK    4  A    between atoms: C_9  and  C_11
REMARK    5  A    between atoms: C_11  and  C_12
REMARK                            x       y       z     vdW  Elec       q    Type
REMARK                         _______ _______ _______ _____ _____    ______ ____
ROOT
ATOM      1  C   UNL     1       4.122   4.706  18.232  0.00  0.00    +0.000 C 
ATOM      2  C   UNL     1       5.312   4.735  19.227  0.00  0.00    +0.000 C 
ATOM      3  C   UNL     1       6.609   5.215  18.586  0.00  0.00    +0.000 C 
ATOM      4  C   UNL     1       6.926   4.554  17.266  0.00  0.00    +0.000 C 
ATOM      5  O   UNL     1       8.065   4.534  16.808  0.00  0.00    +0.000 OA
ATOM      6  N   UNL     1       5.880   4.069  16.538  0.00  0.00    +0.000 N 
ATOM      7  C   UNL     1       4.551   3.789  17.056  0.00  0.00    +0.000 C 
ATOM      8  H   UNL     1       6.151   3.653  15.653  0.00  0.00    +0.000 HD
ENDROOT
BRANCH   1   9
ATOM      9  C   UNL     1       2.877   4.104  18.927  0.00  0.00    +0.000 A 
ATOM     10  C   UNL     1       1.887   3.389  18.235  0.00  0.00    +0.000 A 
ATOM     11  C   UNL     1       0.749   2.905  18.895  0.00  0.00    +0.000 A 
ATOM     12  C   UNL     1       0.580   3.113  20.261  0.00  0.00    +0.000 A 
ATOM     13  C   UNL     1       1.561   3.787  20.977  0.00  0.00    +0.000 A 
ATOM     14  C   UNL     1       2.694   4.271  20.319  0.00  0.00    +0.000 A 
ENDBRANCH   1   9
BRANCH   1  16
ATOM     15  N   UNL     1       3.065   6.982  18.357  0.00  0.00    +0.000 N 
ATOM     16  C   UNL     1       3.870   6.122  17.630  0.00  0.00    +0.000 C 
ATOM     17  O   UNL     1       4.344   6.476  16.549  0.00  0.00    +0.000 OA
ATOM     18  H   UNL     1       2.376   6.594  18.989  0.00  0.00    +0.000 HD
BRANCH  15  19
ATOM     19  C   UNL     1       2.891   8.341  17.894  0.00  0.00    +0.000 C 
BRANCH  19  25
ATOM     20  C   UNL     1       1.833   7.870  20.798  0.00  0.00    +0.000 C 
ATOM     21  N   UNL     1       1.253   8.726  19.792  0.00  0.00    +0.000 N 
ATOM     22  N   UNL     1       0.166   9.454  20.117  0.00  0.00    +0.000 NA
ATOM     23  C   UNL     1      -0.103  10.150  19.014  0.00  0.00    +0.000 A 
ATOM     24  C   UNL     1       0.789   9.857  17.972  0.00  0.00    +0.000 A 
ATOM     25  C   UNL     1       1.674   8.935  18.499  0.00  0.00    +0.000 A 
ENDBRANCH  19  25
ENDBRANCH  15  19
ENDBRANCH   1  16
TORSDOF 4
ENDMDL
MODEL 8
REMARK VINA RESULT:      -7.5      2.357      4.319
REMARK  Name = 
REMARK  5 active torsions:
REMARK  status: ('A' for Active; 'I' for Inactive)
REMARK    1  A    between atoms: C_1  and  N_2
REMARK    2  A    between atoms: C_6  and  C_7
REMARK    3  A    between atoms: C_7  and  N_8
REMARK    4  A    between atoms: C_9  and  C_11
REMARK    5  A    between atoms: C_11  and  C_12
REMARK                            x       y       z     vdW  Elec       q    Type
REMARK                         _______ _______ _______ _____ _____    ______ ____
ROOT
ATOM      1  C   UNL     1       3.897   5.253  18.260  0.00  0.00    +0.000 C 
ATOM      2  C   UNL     1       5.247   5.285  19.024  0.00  0.00    +0.000 C 
ATOM      3  C   UNL     1       6.335   6.042  18.271  0.00  0.00    +0.000 C 
ATOM      4  C   UNL     1       6.459   5.660  16.816  0.00  0.00    +0.000 C 
ATOM      5  O   UNL     1       7.482   5.877  16.173  0.00  0.00    +0.000 OA
ATOM      6  N   UNL     1       5.351   5.160  16.201  0.00  0.00    +0.000 N 
ATOM      7  C   UNL     1       4.185   4.614  16.876  0.00  0.00    +0.000 C 
ATOM      8  H   UNL     1       5.487   4.939  15.220  0.00  0.00    +0.000 HD
ENDROOT
BRANCH   1   9
ATOM      9  C   UNL     1       2.883   4.375  19.032  0.00  0.00    +0.000 A 
ATOM     10  C   UNL     1       2.891   4.249  20.430  0.00  0.00    +0.000 A 
ATOM     11  C   UNL     1       1.986   3.403  21.086  0.00  0.00    +0.000 A 
ATOM     12  C   UNL     1       1.047   2.674  20.364  0.00  0.00    +0.000 A 
ATOM     13  C   UNL     1       0.992   2.807  18.982  0.00  0.00    +0.000 A 
ATOM     14  C   UNL     1       1.895   3.649  18.328  0.00  0.00    +0.000 A 
ENDBRANCH   1   9
BRANCH   1  16
ATOM     15  N   UNL     1       2.456   7.217  18.880  0.00  0.00    +0.000 N 
ATOM     16  C   UNL     1       3.381   6.700  17.989  0.00  0.00    +0.000 C 
ATOM     17  O   UNL     1       3.755   7.365  17.022  0.00  0.00    +0.000 OA
ATOM     18  H   UNL     1       1.864   6.580  19.399  0.00  0.00    +0.000 HD
BRANCH  15  19
ATOM     19  C   UNL     1       2.031   8.591  18.732  0.00  0.00    +0.000 C 
BRANCH  19  25
ATOM     20  C   UNL     1      -0.011  10.957  18.814  0.00  0.00    +0.000 C 
ATOM     21  N   UNL     1       0.282  10.026  19.877  0.00  0.00    +0.000 N 
ATOM     22  N   UNL     1      -0.415  10.125  21.027  0.00  0.00    +0.000 NA
ATOM     23  C   UNL     1       0.051   9.128  21.778  0.00  0.00    +0.000 A 
ATOM     24  C   UNL     1       1.060   8.403  21.129  0.00  0.00    +0.000 A 
ATOM     25  C   UNL     1       1.191   8.993  19.886  0.00  0.00    +0.000 A 
ENDBRANCH  19  25
ENDBRANCH  15  19
ENDBRANCH   1  16
TORSDOF 4
ENDMDL
MODEL 9
REMARK VINA RESULT:      -7.5      2.497      4.429
REMARK  Name = 
REMARK  5 active torsions:
REMARK  status: ('A' for Active; 'I' for Inactive)
REMARK    1  A    between atoms: C_1  and  N_2
REMARK    2  A    between atoms: C_6  and  C_7
REMARK    3  A    between atoms: C_7  and  N_8
REMARK    4  A    between atoms: C_9  and  C_11
REMARK    5  A    between atoms: C_11  and  C_12
REMARK                            x       y       z     vdW  Elec       q    Type
REMARK                         _______ _______ _______ _____ _____    ______ ____
ROOT
ATOM      1  C   UNL     1       4.103   4.709  18.228  0.00  0.00    +0.000 C 
ATOM      2  C   UNL     1       5.297   4.731  19.217  0.00  0.00    +0.000 C 
ATOM      3  C   UNL     1       6.590   5.219  18.572  0.00  0.00    +0.000 C 
ATOM      4  C   UNL     1       6.900   4.570  17.244  0.00  0.00    +0.000 C 
ATOM      5  O   UNL     1       8.037   4.557  16.779  0.00  0.00    +0.000 OA
ATOM      6  N   UNL     1       5.852   4.091  16.518  0.00  0.00    +0.000 N 
ATOM      7  C   UNL     1       4.526   3.804  17.041  0.00  0.00    +0.000 C 
ATOM      8  H   UNL     1       6.118   3.684  15.628  0.00  0.00    +0.000 HD
ENDROOT
BRANCH   1   9
ATOM      9  C   UNL     1       2.863   4.099  18.924  0.00  0.00    +0.000 A 
ATOM     10  C   UNL     1       2.587   4.279  20.289  0.00  0.00    +0.000 A 
ATOM     11  C   UNL     1       1.479   3.666  20.891  0.00  0.00    +0.000 A 
ATOM     12  C   UNL     1       0.617   2.871  20.144  0.00  0.00    +0.000 A 
ATOM     13  C   UNL     1       0.844   2.704  18.784  0.00  0.00    +0.000 A 
ATOM     14  C   UNL     1       1.949   3.313  18.184  0.00  0.00    +0.000 A 
ENDBRANCH   1   9
BRANCH   1  16
ATOM     15  N   UNL     1       2.936   6.933  18.309  0.00  0.00    +0.000 N 
ATOM     16  C   UNL     1       3.845   6.130  17.641  0.00  0.00    +0.000 C 
ATOM     17  O   UNL     1       4.402   6.536  16.620  0.00  0.00    +0.000 OA
ATOM     18  H   UNL     1       2.208   6.497  18.862  0.00  0.00    +0.000 HD
BRANCH  15  19
ATOM     19  C   UNL     1       2.745   8.296  17.866  0.00  0.00    +0.000 C 
BRANCH  19  25
ATOM     20  C   UNL     1       2.199  11.374  17.881  0.00  0.00    +0.000 C 
ATOM     21  N   UNL     1       1.683  10.397  18.809  0.00  0.00    +0.000 N 
ATOM     22  N   UNL     1       0.832  10.811  19.771  0.00  0.00    +0.000 NA
ATOM     23  C   UNL     1       0.515   9.696  20.427  0.00  0.00    +0.000 A 
ATOM     24  C   UNL     1       1.175   8.571  19.912  0.00  0.00    +0.000 A 
ATOM     25  C   UNL     1       1.923   9.043  18.850  0.00  0.00    +0.000 A 
ENDBRANCH  19  25
ENDBRANCH  15  19
ENDBRANCH   1  16
TORSDOF 4
ENDMDL
