MODEL 1
REMARK VINA RESULT:      -7.2      0.000      0.000
REMARK  Name = 
REMARK  10 active torsions:
REMARK  status: ('A' for Active; 'I' for Inactive)
REMARK    1  A    between atoms: C_1  and  N_2
REMARK    2  A    between atoms: N_2  and  C_3
REMARK    3  A    between atoms: N_2  and  C_13
REMARK    4  A    between atoms: C_3  and  C_4
REMARK    5  A    between atoms: C_4  and  O_5
REMARK    6  A    between atoms: O_5  and  C_6
REMARK    7  A    between atoms: C_13  and  C_14
REMARK    8  A    between atoms: N_16  and  C_17
REMARK    9  A    between atoms: C_20  and  O_21
REMARK   10  A    between atoms: O_21  and  C_22
REMARK                            x       y       z     vdW  Elec       q    Type
REMARK                         _______ _______ _______ _____ _____    ______ ____
ROOT
ATOM      1  C   UNL     1       4.057   2.823  19.187  0.00  0.00    +0.000 C 
ATOM      2  O   UNL     1       3.873   1.880  18.416  0.00  0.00    +0.000 OA
ATOM      3  N   UNL     1       4.882   3.914  18.960  0.00  0.00    +0.000 N 
ATOM      4  H   UNL     1       5.028   4.525  19.758  0.00  0.00    +0.000 HD
ENDROOT
BRANCH   3   5
ATOM      5  C   UNL     1       5.512   4.234  17.740  0.00  0.00    +0.000 A 
ATOM      6  C   UNL     1       4.800   4.372  16.552  0.00  0.00    +0.000 A 
ATOM      7  C   UNL     1       5.451   4.680  15.356  0.00  0.00    +0.000 A 
ATOM      8  C   UNL     1       6.826   4.869  15.331  0.00  0.00    +0.000 A 
ATOM      9  C   UNL     1       7.556   4.732  16.512  0.00  0.00    +0.000 A 
ATOM     10  C   UNL     1       6.899   4.431  17.718  0.00  0.00    +0.000 A 
BRANCH   8  11
ATOM     11  O   UNL     1       7.336   5.142  14.095  0.00  0.00    +0.000 OA
BRANCH  11  12
ATOM     12  C   UNL     1       6.654   4.546  13.009  0.00  0.00    +0.000 C 
ATOM     13  F   UNL     1       7.365   4.767  11.877  0.00  0.00    +0.000 F 
ATOM     14  F   UNL     1       6.662   3.205  13.221  0.00  0.00    +0.000 F 
ENDBRANCH  11  12
ENDBRANCH   8  11
ENDBRANCH   3   5
BRANCH   1  15
ATOM     15  C   UNL     1       3.425   2.784  20.575  0.00  0.00    +0.000 C 
BRANCH  15  17
ATOM     16  C   UNL     1       1.316   2.409  21.719  0.00  0.00    +0.000 C 
ATOM     17  N   UNL     1       1.968   3.076  20.576  0.00  0.00    +0.000 NA
BRANCH  17  18
ATOM     18  C   UNL     1       1.748   4.544  20.708  0.00  0.00    +0.000 C 
BRANCH  18  19
ATOM     19  C   UNL     1       1.783   5.288  19.365  0.00  0.00    +0.000 C 
BRANCH  19  20
ATOM     20  O   UNL     1       2.757   6.338  19.389  0.00  0.00    +0.000 OA
BRANCH  20  21
ATOM     21  C   UNL     1       2.219   7.588  19.198  0.00  0.00    +0.000 A 
ATOM     22  C   UNL     1       2.249   8.282  17.983  0.00  0.00    +0.000 A 
ATOM     23  C   UNL     1       1.674   9.549  17.879  0.00  0.00    +0.000 A 
ATOM     24  C   UNL     1       1.061  10.124  18.987  0.00  0.00    +0.000 A 
ATOM     25 CL   UNL     1       0.359  11.689  18.853  0.00  0.00    +0.000 Cl
ATOM     26  C   UNL     1       1.011   9.436  20.198  0.00  0.00    +0.000 A 
ATOM     27  C   UNL     1       1.584   8.165  20.299  0.00  0.00    +0.000 A 
ENDBRANCH  20  21
ENDBRANCH  19  20
ENDBRANCH  18  19
ENDBRANCH  17  18
ENDBRANCH  15  17
ENDBRANCH   1  15
TORSDOF 9
ENDMDL
MODEL 2
REMARK VINA RESULT:      -7.2      4.279      6.810
REMARK  Name = 
REMARK  10 active torsions:
REMARK  status: ('A' for Active; 'I' for Inactive)
REMARK    1  A    between atoms: C_1  and  N_2
REMARK    2  A    between atoms: N_2  and  C_3
REMARK    3  A    between atoms: N_2  and  C_13
REMARK    4  A    between atoms: C_3  and  C_4
REMARK    5  A    between atoms: C_4  and  O_5
REMARK    6  A    between atoms: O_5  and  C_6
REMARK    7  A    between atoms: C_13  and  C_14
REMARK    8  A    between atoms: N_16  and  C_17
REMARK    9  A    between atoms: C_20  and  O_21
REMARK   10  A    between atoms: O_21  and  C_22
REMARK                            x       y       z     vdW  Elec       q    Type
REMARK                         _______ _______ _______ _____ _____    ______ ____
ROOT
ATOM      1  C   UNL     1       1.869   4.581  20.323  0.00  0.00    +0.000 C 
ATOM      2  O   UNL     1       0.646   4.604  20.462  0.00  0.00    +0.000 OA
ATOM      3  N   UNL     1       2.654   5.606  19.816  0.00  0.00    +0.000 N 
ATOM      4  H   UNL     1       3.624   5.365  19.637  0.00  0.00    +0.000 HD
ENDROOT
BRANCH   3   5
ATOM      5  C   UNL     1       2.221   6.919  19.544  0.00  0.00    +0.000 A 
ATOM      6  C   UNL     1       2.373   7.505  18.290  0.00  0.00    +0.000 A 
ATOM      7  C   UNL     1       1.944   8.811  18.050  0.00  0.00    +0.000 A 
ATOM      8  C   UNL     1       1.341   9.550  19.060  0.00  0.00    +0.000 A 
ATOM      9  C   UNL     1       1.183   8.980  20.323  0.00  0.00    +0.000 A 
ATOM     10  C   UNL     1       1.607   7.661  20.561  0.00  0.00    +0.000 A 
BRANCH   8  11
ATOM     11  O   UNL     1       0.990  10.818  18.697  0.00  0.00    +0.000 OA
BRANCH  11  12
ATOM     12  C   UNL     1       0.908  11.755  19.754  0.00  0.00    +0.000 C 
ATOM     13  F   UNL     1       1.689  12.820  19.451  0.00  0.00    +0.000 F 
ATOM     14  F   UNL     1      -0.373  12.205  19.790  0.00  0.00    +0.000 F 
ENDBRANCH  11  12
ENDBRANCH   8  11
ENDBRANCH   3   5
BRANCH   1  15
ATOM     15  C   UNL     1       2.627   3.290  20.622  0.00  0.00    +0.000 C 
BRANCH  15  17
ATOM     16  C   UNL     1       4.740   2.123  20.358  0.00  0.00    +0.000 C 
ATOM     17  N   UNL     1       3.792   3.060  19.728  0.00  0.00    +0.000 NA
BRANCH  17  18
ATOM     18  C   UNL     1       3.332   2.462  18.443  0.00  0.00    +0.000 C 
BRANCH  18  19
ATOM     19  C   UNL     1       3.573   3.370  17.228  0.00  0.00    +0.000 C 
BRANCH  19  20
ATOM     20  O   UNL     1       4.953   3.355  16.846  0.00  0.00    +0.000 OA
BRANCH  20  21
ATOM     21  C   UNL     1       5.581   4.565  17.017  0.00  0.00    +0.000 A 
ATOM     22  C   UNL     1       5.095   5.783  16.529  0.00  0.00    +0.000 A 
ATOM     23  C   UNL     1       5.800   6.966  16.753  0.00  0.00    +0.000 A 
ATOM     24  C   UNL     1       6.991   6.937  17.471  0.00  0.00    +0.000 A 
ATOM     25 CL   UNL     1       7.857   8.399  17.738  0.00  0.00    +0.000 Cl
ATOM     26  C   UNL     1       7.477   5.733  17.976  0.00  0.00    +0.000 A 
ATOM     27  C   UNL     1       6.767   4.548  17.754  0.00  0.00    +0.000 A 
ENDBRANCH  20  21
ENDBRANCH  19  20
ENDBRANCH  18  19
ENDBRANCH  17  18
ENDBRANCH  15  17
ENDBRANCH   1  15
TORSDOF 9
ENDMDL
MODEL 3
REMARK VINA RESULT:      -7.2      4.192      6.714
REMARK  Name = 
REMARK  10 active torsions:
REMARK  status: ('A' for Active; 'I' for Inactive)
REMARK    1  A    between atoms: C_1  and  N_2
REMARK    2  A    between atoms: N_2  and  C_3
REMARK    3  A    between atoms: N_2  and  C_13
REMARK    4  A    between atoms: C_3  and  C_4
REMARK    5  A    between atoms: C_4  and  O_5
REMARK    6  A    between atoms: O_5  and  C_6
REMARK    7  A    between atoms: C_13  and  C_14
REMARK    8  A    between atoms: N_16  and  C_17
REMARK    9  A    between atoms: C_20  and  O_21
REMARK   10  A    between atoms: O_21  and  C_22
REMARK                            x       y       z     vdW  Elec       q    Type
REMARK                         _______ _______ _______ _____ _____    ______ ____
ROOT
ATOM      1  C   UNL     1       1.941   4.722  20.526  0.00  0.00    +0.000 C 
ATOM      2  O   UNL     1       0.713   4.645  20.476  0.00  0.00    +0.000 OA
ATOM      3  N   UNL     1       2.711   5.792  20.095  0.00  0.00    +0.000 N 
ATOM      4  H   UNL     1       3.713   5.629  20.078  0.00  0.00    +0.000 HD
ENDROOT
BRANCH   3   5
ATOM      5  C   UNL     1       2.223   7.052  19.694  0.00  0.00    +0.000 A 
ATOM      6  C   UNL     1       1.585   7.916  20.580  0.00  0.00    +0.000 A 
ATOM      7  C   UNL     1       1.102   9.154  20.154  0.00  0.00    +0.000 A 
ATOM      8  C   UNL     1       1.262   9.556  18.834  0.00  0.00    +0.000 A 
ATOM      9  C   UNL     1       1.897   8.703  17.932  0.00  0.00    +0.000 A 
ATOM     10  C   UNL     1       2.391   7.459  18.364  0.00  0.00    +0.000 A 
BRANCH   8  11
ATOM     11  O   UNL     1       0.726  10.778  18.548  0.00  0.00    +0.000 OA
BRANCH  11  12
ATOM     12  C   UNL     1       1.416  11.889  19.087  0.00  0.00    +0.000 C 
ATOM     13  F   UNL     1       1.581  12.812  18.110  0.00  0.00    +0.000 F 
ATOM     14  F   UNL     1       0.604  12.448  20.021  0.00  0.00    +0.000 F 
ENDBRANCH  11  12
ENDBRANCH   8  11
ENDBRANCH   3   5
BRANCH   1  15
ATOM     15  C   UNL     1       2.744   3.514  21.001  0.00  0.00    +0.000 C 
BRANCH  15  17
ATOM     16  C   UNL     1       1.708   2.450  19.079  0.00  0.00    +0.000 C 
ATOM     17  N   UNL     1       2.878   2.446  19.976  0.00  0.00    +0.000 NA
BRANCH  17  18
ATOM     18  C   UNL     1       4.096   2.688  19.152  0.00  0.00    +0.000 C 
BRANCH  18  19
ATOM     19  C   UNL     1       3.789   3.301  17.777  0.00  0.00    +0.000 C 
BRANCH  19  20
ATOM     20  O   UNL     1       4.979   3.407  16.989  0.00  0.00    +0.000 OA
BRANCH  20  21
ATOM     21  C   UNL     1       5.625   4.612  17.131  0.00  0.00    +0.000 A 
ATOM     22  C   UNL     1       5.108   5.840  16.704  0.00  0.00    +0.000 A 
ATOM     23  C   UNL     1       5.834   7.016  16.893  0.00  0.00    +0.000 A 
ATOM     24  C   UNL     1       7.076   6.970  17.516  0.00  0.00    +0.000 A 
ATOM     25 CL   UNL     1       7.967   8.425  17.741  0.00  0.00    +0.000 Cl
ATOM     26  C   UNL     1       7.595   5.756  17.960  0.00  0.00    +0.000 A 
ATOM     27  C   UNL     1       6.864   4.578  17.773  0.00  0.00    +0.000 A 
ENDBRANCH  20  21
ENDBRANCH  19  20
ENDBRANCH  18  19
ENDBRANCH  17  18
ENDBRANCH  15  17
ENDBRANCH   1  15
TORSDOF 9
ENDMDL
MODEL 4
REMARK VINA RESULT:      -7.1      4.269      6.896
REMARK  Name = 
REMARK  10 active torsions:
REMARK  status: ('A' for Active; 'I' for Inactive)
REMARK    1  A    between atoms: C_1  and  N_2
REMARK    2  A    between atoms: N_2  and  C_3
REMARK    3  A    between atoms: N_2  and  C_13
REMARK    4  A    between atoms: C_3  and  C_4
REMARK    5  A    between atoms: C_4  and  O_5
REMARK    6  A    between atoms: O_5  and  C_6
REMARK    7  A    between atoms: C_13  and  C_14
REMARK    8  A    between atoms: N_16  and  C_17
REMARK    9  A    between atoms: C_20  and  O_21
REMARK   10  A    between atoms: O_21  and  C_22
REMARK                            x       y       z     vdW  Elec       q    Type
REMARK                         _______ _______ _______ _____ _____    ______ ____
ROOT
ATOM      1  C   UNL     1       2.117   4.708  20.381  0.00  0.00    +0.000 C 
ATOM      2  O   UNL     1       0.913   4.631  20.630  0.00  0.00    +0.000 OA
ATOM      3  N   UNL     1       2.773   5.810  19.852  0.00  0.00    +0.000 N 
ATOM      4  H   UNL     1       3.737   5.652  19.577  0.00  0.00    +0.000 HD
ENDROOT
BRANCH   3   5
ATOM      5  C   UNL     1       2.220   7.094  19.677  0.00  0.00    +0.000 A 
ATOM      6  C   UNL     1       1.612   7.789  20.720  0.00  0.00    +0.000 A 
ATOM      7  C   UNL     1       1.064   9.056  20.516  0.00  0.00    +0.000 A 
ATOM      8  C   UNL     1       1.127   9.657  19.265  0.00  0.00    +0.000 A 
ATOM      9  C   UNL     1       1.731   8.975  18.209  0.00  0.00    +0.000 A 
ATOM     10  C   UNL     1       2.291   7.702  18.417  0.00  0.00    +0.000 A 
BRANCH   8  11
ATOM     11  O   UNL     1       0.535  10.885  19.200  0.00  0.00    +0.000 OA
BRANCH  11  12
ATOM     12  C   UNL     1      -0.628  10.959  18.398  0.00  0.00    +0.000 C 
ATOM     13  F   UNL     1      -1.615  10.252  19.000  0.00  0.00    +0.000 F 
ATOM     14  F   UNL     1      -1.025  12.257  18.390  0.00  0.00    +0.000 F 
ENDBRANCH  11  12
ENDBRANCH   8  11
ENDBRANCH   3   5
BRANCH   1  15
ATOM     15  C   UNL     1       2.993   3.471  20.555  0.00  0.00    +0.000 C 
BRANCH  15  17
ATOM     16  C   UNL     1       1.457   2.686  18.845  0.00  0.00    +0.000 C 
ATOM     17  N   UNL     1       2.707   2.393  19.572  0.00  0.00    +0.000 NA
BRANCH  17  18
ATOM     18  C   UNL     1       3.814   2.310  18.578  0.00  0.00    +0.000 C 
BRANCH  18  19
ATOM     19  C   UNL     1       3.684   3.327  17.434  0.00  0.00    +0.000 C 
BRANCH  19  20
ATOM     20  O   UNL     1       4.904   3.414  16.690  0.00  0.00    +0.000 OA
BRANCH  20  21
ATOM     21  C   UNL     1       5.636   4.544  16.968  0.00  0.00    +0.000 A 
ATOM     22  C   UNL     1       6.885   4.539  17.599  0.00  0.00    +0.000 A 
ATOM     23  C   UNL     1       7.559   5.737  17.840  0.00  0.00    +0.000 A 
ATOM     24  C   UNL     1       6.990   6.943  17.445  0.00  0.00    +0.000 A 
ATOM     25 CL   UNL     1       7.825   8.416  17.750  0.00  0.00    +0.000 Cl
ATOM     26  C   UNL     1       5.754   6.959  16.802  0.00  0.00    +0.000 A 
ATOM     27  C   UNL     1       5.081   5.757  16.558  0.00  0.00    +0.000 A 
ENDBRANCH  20  21
ENDBRANCH  19  20
ENDBRANCH  18  19
ENDBRANCH  17  18
ENDBRANCH  15  17
ENDBRANCH   1  15
TORSDOF 9
ENDMDL
MODEL 5
REMARK VINA RESULT:      -7.0      1.244      1.645
REMARK  Name = 
REMARK  10 active torsions:
REMARK  status: ('A' for Active; 'I' for Inactive)
REMARK    1  A    between atoms: C_1  and  N_2
REMARK    2  A    between atoms: N_2  and  C_3
REMARK    3  A    between atoms: N_2  and  C_13
REMARK    4  A    between atoms: C_3  and  C_4
REMARK    5  A    between atoms: C_4  and  O_5
REMARK    6  A    between atoms: O_5  and  C_6
REMARK    7  A    between atoms: C_13  and  C_14
REMARK    8  A    between atoms: N_16  and  C_17
REMARK    9  A    between atoms: C_20  and  O_21
REMARK   10  A    between atoms: O_21  and  C_22
REMARK                            x       y       z     vdW  Elec       q    Type
REMARK                         _______ _______ _______ _____ _____    ______ ____
ROOT
ATOM      1  C   UNL     1       2.099   2.942  18.433  0.00  0.00    +0.000 C 
ATOM      2  O   UNL     1       1.513   3.397  17.450  0.00  0.00    +0.000 OA
ATOM      3  N   UNL     1       3.471   2.935  18.636  0.00  0.00    +0.000 N 
ATOM      4  H   UNL     1       3.792   2.393  19.433  0.00  0.00    +0.000 HD
ENDROOT
BRANCH   3   5
ATOM      5  C   UNL     1       4.425   3.608  17.847  0.00  0.00    +0.000 A 
ATOM      6  C   UNL     1       4.320   3.685  16.461  0.00  0.00    +0.000 A 
ATOM      7  C   UNL     1       5.285   4.350  15.703  0.00  0.00    +0.000 A 
ATOM      8  C   UNL     1       6.367   4.963  16.321  0.00  0.00    +0.000 A 
ATOM      9  C   UNL     1       6.490   4.895  17.709  0.00  0.00    +0.000 A 
ATOM     10  C   UNL     1       5.512   4.232  18.473  0.00  0.00    +0.000 A 
BRANCH   8  11
ATOM     11  O   UNL     1       7.245   5.558  15.463  0.00  0.00    +0.000 OA
BRANCH  11  12
ATOM     12  C   UNL     1       7.131   5.169  14.108  0.00  0.00    +0.000 C 
ATOM     13  F   UNL     1       8.209   5.634  13.431  0.00  0.00    +0.000 F 
ATOM     14  F   UNL     1       7.204   3.813  14.075  0.00  0.00    +0.000 F 
ENDBRANCH  11  12
ENDBRANCH   8  11
ENDBRANCH   3   5
BRANCH   1  15
ATOM     15  C   UNL     1       1.296   2.213  19.507  0.00  0.00    +0.000 C 
BRANCH  15  17
ATOM     16  C   UNL     1       2.310   2.848  21.620  0.00  0.00    +0.000 C 
ATOM     17  N   UNL     1       1.123   2.996  20.758  0.00  0.00    +0.000 NA
BRANCH  17  18
ATOM     18  C   UNL     1       0.963   4.441  20.431  0.00  0.00    +0.000 C 
BRANCH  18  19
ATOM     19  C   UNL     1       2.132   5.309  20.922  0.00  0.00    +0.000 C 
BRANCH  19  20
ATOM     20  O   UNL     1       2.755   5.991  19.828  0.00  0.00    +0.000 OA
BRANCH  20  21
ATOM     21  C   UNL     1       2.225   7.236  19.585  0.00  0.00    +0.000 A 
ATOM     22  C   UNL     1       1.546   8.004  20.537  0.00  0.00    +0.000 A 
ATOM     23  C   UNL     1       1.043   9.262  20.202  0.00  0.00    +0.000 A 
ATOM     24  C   UNL     1       1.224   9.759  18.916  0.00  0.00    +0.000 A 
ATOM     25 CL   UNL     1       0.596  11.309  18.509  0.00  0.00    +0.000 Cl
ATOM     26  C   UNL     1       1.912   9.011  17.964  0.00  0.00    +0.000 A 
ATOM     27  C   UNL     1       2.419   7.752  18.302  0.00  0.00    +0.000 A 
ENDBRANCH  20  21
ENDBRANCH  19  20
ENDBRANCH  18  19
ENDBRANCH  17  18
ENDBRANCH  15  17
ENDBRANCH   1  15
TORSDOF 9
ENDMDL
MODEL 6
REMARK VINA RESULT:      -7.0      2.634      3.060
REMARK  Name = 
REMARK  10 active torsions:
REMARK  status: ('A' for Active; 'I' for Inactive)
REMARK    1  A    between atoms: C_1  and  N_2
REMARK    2  A    between atoms: N_2  and  C_3
REMARK    3  A    between atoms: N_2  and  C_13
REMARK    4  A    between atoms: C_3  and  C_4
REMARK    5  A    between atoms: C_4  and  O_5
REMARK    6  A    between atoms: O_5  and  C_6
REMARK    7  A    between atoms: C_13  and  C_14
REMARK    8  A    between atoms: N_16  and  C_17
REMARK    9  A    between atoms: C_20  and  O_21
REMARK   10  A    between atoms: O_21  and  C_22
REMARK                            x       y       z     vdW  Elec       q    Type
REMARK                         _______ _______ _______ _____ _____    ______ ____
ROOT
ATOM      1  C   UNL     1       2.789   3.359  18.068  0.00  0.00    +0.000 C 
ATOM      2  O   UNL     1       2.212   4.086  17.258  0.00  0.00    +0.000 OA
ATOM      3  N   UNL     1       4.128   3.431  18.421  0.00  0.00    +0.000 N 
ATOM      4  H   UNL     1       4.469   2.665  18.994  0.00  0.00    +0.000 HD
ENDROOT
BRANCH   3   5
ATOM      5  C   UNL     1       5.023   4.458  18.061  0.00  0.00    +0.000 A 
ATOM      6  C   UNL     1       5.057   4.995  16.777  0.00  0.00    +0.000 A 
ATOM      7  C   UNL     1       5.961   6.005  16.444  0.00  0.00    +0.000 A 
ATOM      8  C   UNL     1       6.838   6.507  17.397  0.00  0.00    +0.000 A 
ATOM      9  C   UNL     1       6.819   5.980  18.689  0.00  0.00    +0.000 A 
ATOM     10  C   UNL     1       5.902   4.968  19.025  0.00  0.00    +0.000 A 
BRANCH   8  11
ATOM     11  O   UNL     1       7.680   7.475  16.934  0.00  0.00    +0.000 OA
BRANCH  11  12
ATOM     12  C   UNL     1       7.930   8.544  17.826  0.00  0.00    +0.000 C 
ATOM     13  F   UNL     1       9.139   9.081  17.531  0.00  0.00    +0.000 F 
ATOM     14  F   UNL     1       7.003   9.503  17.570  0.00  0.00    +0.000 F 
ENDBRANCH  11  12
ENDBRANCH   8  11
ENDBRANCH   3   5
BRANCH   1  15
ATOM     15  C   UNL     1       2.031   2.189  18.688  0.00  0.00    +0.000 C 
BRANCH  15  17
ATOM     16  C   UNL     1       2.394   2.322  21.086  0.00  0.00    +0.000 C 
ATOM     17  N   UNL     1       1.412   2.507  20.001  0.00  0.00    +0.000 NA
BRANCH  17  18
ATOM     18  C   UNL     1       0.964   3.928  20.017  0.00  0.00    +0.000 C 
BRANCH  18  19
ATOM     19  C   UNL     1       1.780   4.813  20.971  0.00  0.00    +0.000 C 
BRANCH  19  20
ATOM     20  O   UNL     1       2.721   5.612  20.245  0.00  0.00    +0.000 OA
BRANCH  20  21
ATOM     21  C   UNL     1       2.234   6.847  19.892  0.00  0.00    +0.000 A 
ATOM     22  C   UNL     1       1.533   7.696  20.755  0.00  0.00    +0.000 A 
ATOM     23  C   UNL     1       1.076   8.937  20.310  0.00  0.00    +0.000 A 
ATOM     24  C   UNL     1       1.324   9.337  19.001  0.00  0.00    +0.000 A 
ATOM     25 CL   UNL     1       0.753  10.866  18.457  0.00  0.00    +0.000 Cl
ATOM     26  C   UNL     1       2.035   8.507  18.136  0.00  0.00    +0.000 A 
ATOM     27  C   UNL     1       2.495   7.265  18.585  0.00  0.00    +0.000 A 
ENDBRANCH  20  21
ENDBRANCH  19  20
ENDBRANCH  18  19
ENDBRANCH  17  18
ENDBRANCH  15  17
ENDBRANCH   1  15
TORSDOF 9
ENDMDL
MODEL 7
REMARK VINA RESULT:      -7.0      0.958      1.791
REMARK  Name = 
REMARK  10 active torsions:
REMARK  status: ('A' for Active; 'I' for Inactive)
REMARK    1  A    between atoms: C_1  and  N_2
REMARK    2  A    between atoms: N_2  and  C_3
REMARK    3  A    between atoms: N_2  and  C_13
REMARK    4  A    between atoms: C_3  and  C_4
REMARK    5  A    between atoms: C_4  and  O_5
REMARK    6  A    between atoms: O_5  and  C_6
REMARK    7  A    between atoms: C_13  and  C_14
REMARK    8  A    between atoms: N_16  and  C_17
REMARK    9  A    between atoms: C_20  and  O_21
REMARK   10  A    between atoms: O_21  and  C_22
REMARK                            x       y       z     vdW  Elec       q    Type
REMARK                         _______ _______ _______ _____ _____    ______ ____
ROOT
ATOM      1  C   UNL     1       3.452   2.791  18.192  0.00  0.00    +0.000 C 
ATOM      2  O   UNL     1       3.981   1.715  17.912  0.00  0.00    +0.000 OA
ATOM      3  N   UNL     1       3.905   4.047  17.818  0.00  0.00    +0.000 N 
ATOM      4  H   UNL     1       3.430   4.831  18.254  0.00  0.00    +0.000 HD
ENDROOT
BRANCH   3   5
ATOM      5  C   UNL     1       4.942   4.310  16.900  0.00  0.00    +0.000 A 
ATOM      6  C   UNL     1       6.240   4.601  17.310  0.00  0.00    +0.000 A 
ATOM      7  C   UNL     1       7.245   4.868  16.380  0.00  0.00    +0.000 A 
ATOM      8  C   UNL     1       6.972   4.834  15.019  0.00  0.00    +0.000 A 
ATOM      9  C   UNL     1       5.676   4.546  14.589  0.00  0.00    +0.000 A 
ATOM     10  C   UNL     1       4.666   4.269  15.527  0.00  0.00    +0.000 A 
BRANCH   8  11
ATOM     11  O   UNL     1       8.038   5.134  14.222  0.00  0.00    +0.000 OA
BRANCH  11  12
ATOM     12  C   UNL     1       7.719   5.581  12.918  0.00  0.00    +0.000 C 
ATOM     13  F   UNL     1       8.757   6.310  12.443  0.00  0.00    +0.000 F 
ATOM     14  F   UNL     1       7.621   4.478  12.131  0.00  0.00    +0.000 F 
ENDBRANCH  11  12
ENDBRANCH   8  11
ENDBRANCH   3   5
BRANCH   1  15
ATOM     15  C   UNL     1       2.243   2.805  19.123  0.00  0.00    +0.000 C 
BRANCH  15  17
ATOM     16  C   UNL     1       4.034   2.340  20.695  0.00  0.00    +0.000 C 
ATOM     17  N   UNL     1       2.580   2.536  20.545  0.00  0.00    +0.000 NA
BRANCH  17  18
ATOM     18  C   UNL     1       2.179   3.699  21.387  0.00  0.00    +0.000 C 
BRANCH  18  19
ATOM     19  C   UNL     1       1.573   4.856  20.580  0.00  0.00    +0.000 C 
BRANCH  19  20
ATOM     20  O   UNL     1       2.596   5.742  20.112  0.00  0.00    +0.000 OA
BRANCH  20  21
ATOM     21  C   UNL     1       2.139   7.008  19.832  0.00  0.00    +0.000 A 
ATOM     22  C   UNL     1       1.433   7.810  20.734  0.00  0.00    +0.000 A 
ATOM     23  C   UNL     1       1.008   9.086  20.364  0.00  0.00    +0.000 A 
ATOM     24  C   UNL     1       1.295   9.568  19.091  0.00  0.00    +0.000 A 
ATOM     25 CL   UNL     1       0.764  11.141  18.639  0.00  0.00    +0.000 Cl
ATOM     26  C   UNL     1       2.011   8.785  18.188  0.00  0.00    +0.000 A 
ATOM     27  C   UNL     1       2.439   7.507  18.563  0.00  0.00    +0.000 A 
ENDBRANCH  20  21
ENDBRANCH  19  20
ENDBRANCH  18  19
ENDBRANCH  17  18
ENDBRANCH  15  17
ENDBRANCH   1  15
TORSDOF 9
ENDMDL
MODEL 8
REMARK VINA RESULT:      -7.0      4.168      6.964
REMARK  Name = 
REMARK  10 active torsions:
REMARK  status: ('A' for Active; 'I' for Inactive)
REMARK    1  A    between atoms: C_1  and  N_2
REMARK    2  A    between atoms: N_2  and  C_3
REMARK    3  A    between atoms: N_2  and  C_13
REMARK    4  A    between atoms: C_3  and  C_4
REMARK    5  A    between atoms: C_4  and  O_5
REMARK    6  A    between atoms: O_5  and  C_6
REMARK    7  A    between atoms: C_13  and  C_14
REMARK    8  A    between atoms: N_16  and  C_17
REMARK    9  A    between atoms: C_20  and  O_21
REMARK   10  A    between atoms: O_21  and  C_22
REMARK                            x       y       z     vdW  Elec       q    Type
REMARK                         _______ _______ _______ _____ _____    ______ ____
ROOT
ATOM      1  C   UNL     1       1.712   4.767  20.687  0.00  0.00    +0.000 C 
ATOM      2  O   UNL     1       0.548   4.585  20.329  0.00  0.00    +0.000 OA
ATOM      3  N   UNL     1       2.384   5.980  20.696  0.00  0.00    +0.000 N 
ATOM      4  H   UNL     1       3.380   5.926  20.885  0.00  0.00    +0.000 HD
ENDROOT
BRANCH   3   5
ATOM      5  C   UNL     1       1.805   7.246  20.476  0.00  0.00    +0.000 A 
ATOM      6  C   UNL     1       1.023   7.882  21.436  0.00  0.00    +0.000 A 
ATOM      7  C   UNL     1       0.453   9.132  21.187  0.00  0.00    +0.000 A 
ATOM      8  C   UNL     1       0.669   9.775  19.975  0.00  0.00    +0.000 A 
ATOM      9  C   UNL     1       1.448   9.152  19.000  0.00  0.00    +0.000 A 
ATOM     10  C   UNL     1       2.029   7.896  19.255  0.00  0.00    +0.000 A 
BRANCH   8  11
ATOM     11  O   UNL     1       0.037  10.978  19.855  0.00  0.00    +0.000 OA
BRANCH  11  12
ATOM     12  C   UNL     1      -1.101  10.989  19.015  0.00  0.00    +0.000 C 
ATOM     13  F   UNL     1      -0.694  11.169  17.736  0.00  0.00    +0.000 F 
ATOM     14  F   UNL     1      -1.657   9.752  19.080  0.00  0.00    +0.000 F 
ENDBRANCH  11  12
ENDBRANCH   8  11
ENDBRANCH   3   5
BRANCH   1  15
ATOM     15  C   UNL     1       2.571   3.563  21.064  0.00  0.00    +0.000 C 
BRANCH  15  17
ATOM     16  C   UNL     1       4.476   2.188  20.450  0.00  0.00    +0.000 C 
ATOM     17  N   UNL     1       3.376   3.027  19.937  0.00  0.00    +0.000 NA
BRANCH  17  18
ATOM     18  C   UNL     1       2.517   2.180  19.061  0.00  0.00    +0.000 C 
BRANCH  18  19
ATOM     19  C   UNL     1       2.940   2.206  17.585  0.00  0.00    +0.000 C 
BRANCH  19  20
ATOM     20  O   UNL     1       2.776   3.516  17.030  0.00  0.00    +0.000 OA
BRANCH  20  21
ATOM     21  C   UNL     1       3.930   4.262  17.040  0.00  0.00    +0.000 A 
ATOM     22  C   UNL     1       5.190   3.772  16.680  0.00  0.00    +0.000 A 
ATOM     23  C   UNL     1       6.310   4.605  16.717  0.00  0.00    +0.000 A 
ATOM     24  C   UNL     1       6.172   5.932  17.107  0.00  0.00    +0.000 A 
ATOM     25 CL   UNL     1       7.557   6.952  17.155  0.00  0.00    +0.000 Cl
ATOM     26  C   UNL     1       4.920   6.436  17.453  0.00  0.00    +0.000 A 
ATOM     27  C   UNL     1       3.798   5.601  17.411  0.00  0.00    +0.000 A 
ENDBRANCH  20  21
ENDBRANCH  19  20
ENDBRANCH  18  19
ENDBRANCH  17  18
ENDBRANCH  15  17
ENDBRANCH   1  15
TORSDOF 9
ENDMDL
MODEL 9
REMARK VINA RESULT:      -6.9      4.205      6.831
REMARK  Name = 
REMARK  10 active torsions:
REMARK  status: ('A' for Active; 'I' for Inactive)
REMARK    1  A    between atoms: C_1  and  N_2
REMARK    2  A    between atoms: N_2  and  C_3
REMARK    3  A    between atoms: N_2  and  C_13
REMARK    4  A    between atoms: C_3  and  C_4
REMARK    5  A    between atoms: C_4  and  O_5
REMARK    6  A    between atoms: O_5  and  C_6
REMARK    7  A    between atoms: C_13  and  C_14
REMARK    8  A    between atoms: N_16  and  C_17
REMARK    9  A    between atoms: C_20  and  O_21
REMARK   10  A    between atoms: O_21  and  C_22
REMARK                            x       y       z     vdW  Elec       q    Type
REMARK                         _______ _______ _______ _____ _____    ______ ____
ROOT
ATOM      1  C   UNL     1       3.286   5.255  19.870  0.00  0.00    +0.000 C 
ATOM      2  O   UNL     1       4.402   5.759  19.744  0.00  0.00    +0.000 OA
ATOM      3  N   UNL     1       2.076   5.933  19.852  0.00  0.00    +0.000 N 
ATOM      4  H   UNL     1       1.264   5.383  20.112  0.00  0.00    +0.000 HD
ENDROOT
BRANCH   3   5
ATOM      5  C   UNL     1       1.894   7.287  19.504  0.00  0.00    +0.000 A 
ATOM      6  C   UNL     1       1.395   8.223  20.406  0.00  0.00    +0.000 A 
ATOM      7  C   UNL     1       1.215   9.556  20.032  0.00  0.00    +0.000 A 
ATOM      8  C   UNL     1       1.547   9.979  18.751  0.00  0.00    +0.000 A 
ATOM      9  C   UNL     1       2.047   9.054  17.834  0.00  0.00    +0.000 A 
ATOM     10  C   UNL     1       2.236   7.713  18.214  0.00  0.00    +0.000 A 
BRANCH   8  11
ATOM     11  O   UNL     1       1.302  11.300  18.513  0.00  0.00    +0.000 OA
BRANCH  11  12
ATOM     12  C   UNL     1      -0.013  11.737  18.796  0.00  0.00    +0.000 C 
ATOM     13  F   UNL     1      -0.119  13.044  18.453  0.00  0.00    +0.000 F 
ATOM     14  F   UNL     1      -0.848  11.048  17.976  0.00  0.00    +0.000 F 
ENDBRANCH  11  12
ENDBRANCH   8  11
ENDBRANCH   3   5
BRANCH   1  15
ATOM     15  C   UNL     1       3.173   3.765  20.181  0.00  0.00    +0.000 C 
BRANCH  15  17
ATOM     16  C   UNL     1       4.597   1.809  20.394  0.00  0.00    +0.000 C 
ATOM     17  N   UNL     1       4.216   2.937  19.522  0.00  0.00    +0.000 NA
BRANCH  17  18
ATOM     18  C   UNL     1       3.687   2.378  18.246  0.00  0.00    +0.000 C 
BRANCH  18  19
ATOM     19  C   UNL     1       3.493   3.439  17.151  0.00  0.00    +0.000 C 
BRANCH  19  20
ATOM     20  O   UNL     1       4.670   3.560  16.346  0.00  0.00    +0.000 OA
BRANCH  20  21
ATOM     21  C   UNL     1       5.465   4.626  16.695  0.00  0.00    +0.000 A 
ATOM     22  C   UNL     1       6.709   4.509  17.324  0.00  0.00    +0.000 A 
ATOM     23  C   UNL     1       7.451   5.649  17.640  0.00  0.00    +0.000 A 
ATOM     24  C   UNL     1       6.954   6.908  17.321  0.00  0.00    +0.000 A 
ATOM     25 CL   UNL     1       7.872   8.308  17.717  0.00  0.00    +0.000 Cl
ATOM     26  C   UNL     1       5.724   7.036  16.679  0.00  0.00    +0.000 A 
ATOM     27  C   UNL     1       4.984   5.893  16.361  0.00  0.00    +0.000 A 
ENDBRANCH  20  21
ENDBRANCH  19  20
ENDBRANCH  18  19
ENDBRANCH  17  18
ENDBRANCH  15  17
ENDBRANCH   1  15
TORSDOF 9
ENDMDL
