MODEL 1
REMARK VINA RESULT:      -5.9      0.000      0.000
REMARK  Name = 
REMARK  8 active torsions:
REMARK  status: ('A' for Active; 'I' for Inactive)
REMARK    1  A    between atoms: C_1  and  C_2
REMARK    2  A    between atoms: C_3  and  C_4
REMARK    3  A    between atoms: N_10  and  C_11
REMARK    4  A    between atoms: C_12  and  C_13
REMARK    5  A    between atoms: C_19  and  C_20
REMARK    6  A    between atoms: C_21  and  O_22
REMARK    7  A    between atoms: C_21  and  C_23
REMARK    8  A    between atoms: C_24  and  C_25
REMARK                            x       y       z     vdW  Elec       q    Type
REMARK                         _______ _______ _______ _____ _____    ______ ____
ROOT
ATOM      1  C   UNL     1       4.435  14.853  22.492  0.00  0.00    +0.000 C 
ATOM      2  C   UNL     1       5.593  14.494  21.536  0.00  0.00    +0.000 C 
ATOM      3  C   UNL     1       5.859  15.625  20.483  0.00  0.00    +0.000 C 
ATOM      4  N   UNL     1       6.578  16.804  21.031  0.00  0.00    +0.000 NA
ATOM      5  C   UNL     1       6.774  17.915  20.086  0.00  0.00    +0.000 C 
ATOM      6  C   UNL     1       7.855  16.469  21.726  0.00  0.00    +0.000 C 
ATOM      7  C   UNL     1       7.554  15.428  22.867  0.00  0.00    +0.000 C 
ATOM      8  C   UNL     1       8.757  15.165  23.790  0.00  0.00    +0.000 C 
ATOM      9  C   UNL     1       6.888  14.124  22.324  0.00  0.00    +0.000 C 
ENDROOT
BRANCH   3  10
ATOM     10  C   UNL     1       4.605  16.003  19.675  0.00  0.00    +0.000 A 
ATOM     11  C   UNL     1       3.609  16.857  20.183  0.00  0.00    +0.000 A 
ATOM     12  C   UNL     1       2.525  17.249  19.392  0.00  0.00    +0.000 A 
ATOM     13  C   UNL     1       2.412  16.782  18.085  0.00  0.00    +0.000 A 
ATOM     14  C   UNL     1       3.383  15.930  17.567  0.00  0.00    +0.000 A 
ATOM     15  C   UNL     1       4.469  15.542  18.355  0.00  0.00    +0.000 A 
ENDBRANCH   3  10
BRANCH   6  16
ATOM     16  C   UNL     1       9.102  16.275  20.822  0.00  0.00    +0.000 A 
ATOM     17  C   UNL     1       8.927  16.067  19.444  0.00  0.00    +0.000 A 
ATOM     18  C   UNL     1      10.021  15.792  18.597  0.00  0.00    +0.000 A 
ATOM     19  C   UNL     1      11.309  15.700  19.114  0.00  0.00    +0.000 A 
ATOM     20  C   UNL     1      11.512  15.902  20.463  0.00  0.00    +0.000 A 
ATOM     21  C   UNL     1      10.430  16.202  21.295  0.00  0.00    +0.000 A 
ENDBRANCH   6  16
BRANCH   9  22
ATOM     22  O   UNL     1       6.587  13.218  23.386  0.00  0.00    +0.000 OA
ATOM     23  H   UNL     1       7.380  12.688  23.562  0.00  0.00    +0.000 HD
ENDBRANCH   9  22
BRANCH   9  24
ATOM     24  C   UNL     1       7.967  13.454  21.489  0.00  0.00    +0.000 C 
ATOM     25  C   UNL     1       8.893  12.879  20.774  0.00  0.00    +0.000 C 
BRANCH  25  26
ATOM     26  C   UNL     1       9.951  12.383  19.943  0.00  0.00    +0.000 A 
ATOM     27  C   UNL     1      11.230  12.216  20.481  0.00  0.00    +0.000 A 
ATOM     28  C   UNL     1      12.284  11.783  19.672  0.00  0.00    +0.000 A 
ATOM     29  C   UNL     1      12.062  11.516  18.321  0.00  0.00    +0.000 A 
ATOM     30  C   UNL     1      10.779  11.647  17.789  0.00  0.00    +0.000 A 
ATOM     31  C   UNL     1       9.724  12.065  18.604  0.00  0.00    +0.000 A 
ENDBRANCH  25  26
ENDBRANCH   9  24
TORSDOF 5
ENDMDL
MODEL 2
REMARK VINA RESULT:      -5.7      8.253     10.828
REMARK  Name = 
REMARK  8 active torsions:
REMARK  status: ('A' for Active; 'I' for Inactive)
REMARK    1  A    between atoms: C_1  and  C_2
REMARK    2  A    between atoms: C_3  and  C_4
REMARK    3  A    between atoms: N_10  and  C_11
REMARK    4  A    between atoms: C_12  and  C_13
REMARK    5  A    between atoms: C_19  and  C_20
REMARK    6  A    between atoms: C_21  and  O_22
REMARK    7  A    between atoms: C_21  and  C_23
REMARK    8  A    between atoms: C_24  and  C_25
REMARK                            x       y       z     vdW  Elec       q    Type
REMARK                         _______ _______ _______ _____ _____    ______ ____
ROOT
ATOM      1  C   UNL     1      -3.019  15.658  24.679  0.00  0.00    +0.000 C 
ATOM      2  C   UNL     1      -2.726  14.366  23.886  0.00  0.00    +0.000 C 
ATOM      3  C   UNL     1      -3.804  14.096  22.780  0.00  0.00    +0.000 C 
ATOM      4  N   UNL     1      -3.661  14.955  21.576  0.00  0.00    +0.000 NA
ATOM      5  C   UNL     1      -4.705  14.781  20.553  0.00  0.00    +0.000 C 
ATOM      6  C   UNL     1      -2.303  14.917  20.960  0.00  0.00    +0.000 C 
ATOM      7  C   UNL     1      -1.239  15.315  22.049  0.00  0.00    +0.000 C 
ATOM      8  C   UNL     1       0.176  15.516  21.479  0.00  0.00    +0.000 C 
ATOM      9  C   UNL     1      -1.282  14.374  23.295  0.00  0.00    +0.000 C 
ENDROOT
BRANCH   3  10
ATOM     10  C   UNL     1      -5.240  14.064  23.333  0.00  0.00    +0.000 A 
ATOM     11  C   UNL     1      -6.052  15.212  23.394  0.00  0.00    +0.000 A 
ATOM     12  C   UNL     1      -7.380  15.132  23.822  0.00  0.00    +0.000 A 
ATOM     13  C   UNL     1      -7.915  13.906  24.208  0.00  0.00    +0.000 A 
ATOM     14  C   UNL     1      -7.126  12.760  24.162  0.00  0.00    +0.000 A 
ATOM     15  C   UNL     1      -5.799  12.839  23.731  0.00  0.00    +0.000 A 
ENDBRANCH   3  10
BRANCH   6  16
ATOM     16  C   UNL     1      -2.013  13.729  20.003  0.00  0.00    +0.000 A 
ATOM     17  C   UNL     1      -0.946  13.823  19.094  0.00  0.00    +0.000 A 
ATOM     18  C   UNL     1      -0.701  12.812  18.141  0.00  0.00    +0.000 A 
ATOM     19  C   UNL     1      -1.530  11.697  18.064  0.00  0.00    +0.000 A 
ATOM     20  C   UNL     1      -2.584  11.577  18.945  0.00  0.00    +0.000 A 
ATOM     21  C   UNL     1      -2.808  12.566  19.906  0.00  0.00    +0.000 A 
ENDBRANCH   6  16
BRANCH   9  22
ATOM     22  O   UNL     1      -0.338  14.785  24.284  0.00  0.00    +0.000 OA
ATOM     23  H   UNL     1       0.316  14.076  24.388  0.00  0.00    +0.000 HD
ENDBRANCH   9  22
BRANCH   9  24
ATOM     24  C   UNL     1      -0.800  13.027  22.783  0.00  0.00    +0.000 C 
ATOM     25  C   UNL     1      -0.386  11.871  22.345  0.00  0.00    +0.000 C 
BRANCH  25  26
ATOM     26  C   UNL     1       0.114  10.671  21.740  0.00  0.00    +0.000 A 
ATOM     27  C   UNL     1       0.791  10.744  20.518  0.00  0.00    +0.000 A 
ATOM     28  C   UNL     1       1.239   9.579  19.890  0.00  0.00    +0.000 A 
ATOM     29  C   UNL     1       1.013   8.336  20.482  0.00  0.00    +0.000 A 
ATOM     30  C   UNL     1       0.371   8.263  21.718  0.00  0.00    +0.000 A 
ATOM     31  C   UNL     1      -0.063   9.430  22.351  0.00  0.00    +0.000 A 
ENDBRANCH  25  26
ENDBRANCH   9  24
TORSDOF 5
ENDMDL
MODEL 3
REMARK VINA RESULT:      -5.7      7.466     11.124
REMARK  Name = 
REMARK  8 active torsions:
REMARK  status: ('A' for Active; 'I' for Inactive)
REMARK    1  A    between atoms: C_1  and  C_2
REMARK    2  A    between atoms: C_3  and  C_4
REMARK    3  A    between atoms: N_10  and  C_11
REMARK    4  A    between atoms: C_12  and  C_13
REMARK    5  A    between atoms: C_19  and  C_20
REMARK    6  A    between atoms: C_21  and  O_22
REMARK    7  A    between atoms: C_21  and  C_23
REMARK    8  A    between atoms: C_24  and  C_25
REMARK                            x       y       z     vdW  Elec       q    Type
REMARK                         _______ _______ _______ _____ _____    ______ ____
ROOT
ATOM      1  C   UNL     1       0.017  16.427  21.577  0.00  0.00    +0.000 C 
ATOM      2  C   UNL     1      -0.944  15.586  20.710  0.00  0.00    +0.000 C 
ATOM      3  C   UNL     1      -0.298  15.179  19.341  0.00  0.00    +0.000 C 
ATOM      4  N   UNL     1       0.691  14.074  19.446  0.00  0.00    +0.000 NA
ATOM      5  C   UNL     1       1.372  13.720  18.189  0.00  0.00    +0.000 C 
ATOM      6  C   UNL     1       0.170  12.854  20.127  0.00  0.00    +0.000 C 
ATOM      7  C   UNL     1      -0.359  13.255  21.554  0.00  0.00    +0.000 C 
ATOM      8  C   UNL     1      -0.727  12.048  22.434  0.00  0.00    +0.000 C 
ATOM      9  C   UNL     1      -1.477  14.344  21.490  0.00  0.00    +0.000 C 
ENDROOT
BRANCH   3  10
ATOM     10  C   UNL     1       0.223  16.383  18.537  0.00  0.00    +0.000 A 
ATOM     11  C   UNL     1       1.594  16.674  18.416  0.00  0.00    +0.000 A 
ATOM     12  C   UNL     1       2.038  17.725  17.609  0.00  0.00    +0.000 A 
ATOM     13  C   UNL     1       1.118  18.510  16.920  0.00  0.00    +0.000 A 
ATOM     14  C   UNL     1      -0.244  18.244  17.033  0.00  0.00    +0.000 A 
ATOM     15  C   UNL     1      -0.688  17.191  17.836  0.00  0.00    +0.000 A 
ENDBRANCH   3  10
BRANCH   6  16
ATOM     16  C   UNL     1      -0.656  11.874  19.251  0.00  0.00    +0.000 A 
ATOM     17  C   UNL     1      -1.205  12.329  18.041  0.00  0.00    +0.000 A 
ATOM     18  C   UNL     1      -2.041  11.506  17.257  0.00  0.00    +0.000 A 
ATOM     19  C   UNL     1      -2.362  10.219  17.679  0.00  0.00    +0.000 A 
ATOM     20  C   UNL     1      -1.836   9.745  18.862  0.00  0.00    +0.000 A 
ATOM     21  C   UNL     1      -0.986  10.552  19.622  0.00  0.00    +0.000 A 
ENDBRANCH   6  16
BRANCH   9  22
ATOM     22  O   UNL     1      -1.906  14.720  22.799  0.00  0.00    +0.000 OA
ATOM     23  H   UNL     1      -2.088  15.673  22.792  0.00  0.00    +0.000 HD
ENDBRANCH   9  22
BRANCH   9  24
ATOM     24  C   UNL     1      -2.662  13.649  20.840  0.00  0.00    +0.000 C 
ATOM     25  C   UNL     1      -3.677  13.052  20.281  0.00  0.00    +0.000 C 
BRANCH  25  26
ATOM     26  C   UNL     1      -4.862  12.403  19.800  0.00  0.00    +0.000 A 
ATOM     27  C   UNL     1      -5.864  12.037  20.703  0.00  0.00    +0.000 A 
ATOM     28  C   UNL     1      -7.001  11.358  20.257  0.00  0.00    +0.000 A 
ATOM     29  C   UNL     1      -7.139  11.041  18.906  0.00  0.00    +0.000 A 
ATOM     30  C   UNL     1      -6.159  11.438  17.996  0.00  0.00    +0.000 A 
ATOM     31  C   UNL     1      -5.030  12.130  18.442  0.00  0.00    +0.000 A 
ENDBRANCH  25  26
ENDBRANCH   9  24
TORSDOF 5
ENDMDL
MODEL 4
REMARK VINA RESULT:      -5.7      0.196      1.259
REMARK  Name = 
REMARK  8 active torsions:
REMARK  status: ('A' for Active; 'I' for Inactive)
REMARK    1  A    between atoms: C_1  and  C_2
REMARK    2  A    between atoms: C_3  and  C_4
REMARK    3  A    between atoms: N_10  and  C_11
REMARK    4  A    between atoms: C_12  and  C_13
REMARK    5  A    between atoms: C_19  and  C_20
REMARK    6  A    between atoms: C_21  and  O_22
REMARK    7  A    between atoms: C_21  and  C_23
REMARK    8  A    between atoms: C_24  and  C_25
REMARK                            x       y       z     vdW  Elec       q    Type
REMARK                         _______ _______ _______ _____ _____    ______ ____
ROOT
ATOM      1  C   UNL     1       4.308  14.797  22.290  0.00  0.00    +0.000 C 
ATOM      2  C   UNL     1       5.534  14.506  21.399  0.00  0.00    +0.000 C 
ATOM      3  C   UNL     1       5.841  15.688  20.415  0.00  0.00    +0.000 C 
ATOM      4  N   UNL     1       6.496  16.856  21.061  0.00  0.00    +0.000 NA
ATOM      5  C   UNL     1       6.726  18.013  20.180  0.00  0.00    +0.000 C 
ATOM      6  C   UNL     1       7.732  16.516  21.823  0.00  0.00    +0.000 C 
ATOM      7  C   UNL     1       7.382  15.419  22.896  0.00  0.00    +0.000 C 
ATOM      8  C   UNL     1       8.528  15.139  23.884  0.00  0.00    +0.000 C 
ATOM      9  C   UNL     1       6.783  14.127  22.253  0.00  0.00    +0.000 C 
ENDROOT
BRANCH   3  10
ATOM     10  C   UNL     1       4.634  16.077  19.544  0.00  0.00    +0.000 A 
ATOM     11  C   UNL     1       4.483  15.629  18.218  0.00  0.00    +0.000 A 
ATOM     12  C   UNL     1       3.333  15.930  17.483  0.00  0.00    +0.000 A 
ATOM     13  C   UNL     1       2.321  16.696  18.056  0.00  0.00    +0.000 A 
ATOM     14  C   UNL     1       2.455  17.155  19.363  0.00  0.00    +0.000 A 
ATOM     15  C   UNL     1       3.602  16.851  20.100  0.00  0.00    +0.000 A 
ENDBRANCH   3  10
BRANCH   6  16
ATOM     16  C   UNL     1       9.039  16.389  20.996  0.00  0.00    +0.000 A 
ATOM     17  C   UNL     1       8.960  16.267  19.598  0.00  0.00    +0.000 A 
ATOM     18  C   UNL     1      10.112  16.055  18.812  0.00  0.00    +0.000 A 
ATOM     19  C   UNL     1      11.363  15.939  19.409  0.00  0.00    +0.000 A 
ATOM     20  C   UNL     1      11.472  16.057  20.779  0.00  0.00    +0.000 A 
ATOM     21  C   UNL     1      10.333  16.295  21.552  0.00  0.00    +0.000 A 
ENDBRANCH   6  16
BRANCH   9  22
ATOM     22  O   UNL     1       6.435  13.169  23.252  0.00  0.00    +0.000 OA
ATOM     23  H   UNL     1       7.169  13.113  23.884  0.00  0.00    +0.000 HD
ENDBRANCH   9  22
BRANCH   9  24
ATOM     24  C   UNL     1       7.930  13.518  21.463  0.00  0.00    +0.000 C 
ATOM     25  C   UNL     1       8.913  12.995  20.786  0.00  0.00    +0.000 C 
BRANCH  25  26
ATOM     26  C   UNL     1       9.969  12.524  19.937  0.00  0.00    +0.000 A 
ATOM     27  C   UNL     1       9.724  12.328  18.575  0.00  0.00    +0.000 A 
ATOM     28  C   UNL     1      10.726  11.821  17.744  0.00  0.00    +0.000 A 
ATOM     29  C   UNL     1      11.978  11.506  18.273  0.00  0.00    +0.000 A 
ATOM     30  C   UNL     1      12.237  11.735  19.625  0.00  0.00    +0.000 A 
ATOM     31  C   UNL     1      11.238  12.257  20.450  0.00  0.00    +0.000 A 
ENDBRANCH  25  26
ENDBRANCH   9  24
TORSDOF 5
ENDMDL
MODEL 5
REMARK VINA RESULT:      -5.7      0.795      1.176
REMARK  Name = 
REMARK  8 active torsions:
REMARK  status: ('A' for Active; 'I' for Inactive)
REMARK    1  A    between atoms: C_1  and  C_2
REMARK    2  A    between atoms: C_3  and  C_4
REMARK    3  A    between atoms: N_10  and  C_11
REMARK    4  A    between atoms: C_12  and  C_13
REMARK    5  A    between atoms: C_19  and  C_20
REMARK    6  A    between atoms: C_21  and  O_22
REMARK    7  A    between atoms: C_21  and  C_23
REMARK    8  A    between atoms: C_24  and  C_25
REMARK                            x       y       z     vdW  Elec       q    Type
REMARK                         _______ _______ _______ _____ _____    ______ ____
ROOT
ATOM      1  C   UNL     1       4.727  14.760  23.113  0.00  0.00    +0.000 C 
ATOM      2  C   UNL     1       5.717  14.341  22.006  0.00  0.00    +0.000 C 
ATOM      3  C   UNL     1       5.619  15.270  20.746  0.00  0.00    +0.000 C 
ATOM      4  N   UNL     1       6.264  16.597  20.923  0.00  0.00    +0.000 NA
ATOM      5  C   UNL     1       6.121  17.521  19.786  0.00  0.00    +0.000 C 
ATOM      6  C   UNL     1       7.684  16.528  21.374  0.00  0.00    +0.000 C 
ATOM      7  C   UNL     1       7.753  15.700  22.711  0.00  0.00    +0.000 C 
ATOM      8  C   UNL     1       9.135  15.738  23.386  0.00  0.00    +0.000 C 
ATOM      9  C   UNL     1       7.177  14.257  22.549  0.00  0.00    +0.000 C 
ENDROOT
BRANCH   3  10
ATOM     10  C   UNL     1       4.193  15.362  20.174  0.00  0.00    +0.000 A 
ATOM     11  C   UNL     1       3.220  16.228  20.706  0.00  0.00    +0.000 A 
ATOM     12  C   UNL     1       1.962  16.350  20.110  0.00  0.00    +0.000 A 
ATOM     13  C   UNL     1       1.651  15.598  18.980  0.00  0.00    +0.000 A 
ATOM     14  C   UNL     1       2.597  14.729  18.443  0.00  0.00    +0.000 A 
ATOM     15  C   UNL     1       3.856  14.610  19.036  0.00  0.00    +0.000 A 
ENDBRANCH   3  10
BRANCH   6  16
ATOM     16  C   UNL     1       8.748  16.289  20.269  0.00  0.00    +0.000 A 
ATOM     17  C   UNL     1      10.097  16.571  20.541  0.00  0.00    +0.000 A 
ATOM     18  C   UNL     1      11.087  16.461  19.542  0.00  0.00    +0.000 A 
ATOM     19  C   UNL     1      10.745  16.086  18.247  0.00  0.00    +0.000 A 
ATOM     20  C   UNL     1       9.429  15.800  17.951  0.00  0.00    +0.000 A 
ATOM     21  C   UNL     1       8.455  15.883  18.949  0.00  0.00    +0.000 A 
ENDBRANCH   6  16
BRANCH   9  22
ATOM     22  O   UNL     1       7.212  13.546  23.786  0.00  0.00    +0.000 OA
ATOM     23  H   UNL     1       6.298  13.339  24.038  0.00  0.00    +0.000 HD
ENDBRANCH   9  22
BRANCH   9  24
ATOM     24  C   UNL     1       8.156  13.549  21.626  0.00  0.00    +0.000 C 
ATOM     25  C   UNL     1       8.995  12.942  20.835  0.00  0.00    +0.000 C 
BRANCH  25  26
ATOM     26  C   UNL     1       9.982  12.406  19.943  0.00  0.00    +0.000 A 
ATOM     27  C   UNL     1      11.279  12.170  20.411  0.00  0.00    +0.000 A 
ATOM     28  C   UNL     1      12.266  11.697  19.542  0.00  0.00    +0.000 A 
ATOM     29  C   UNL     1      11.960  11.459  18.202  0.00  0.00    +0.000 A 
ATOM     30  C   UNL     1      10.659  11.658  17.741  0.00  0.00    +0.000 A 
ATOM     31  C   UNL     1       9.670  12.116  18.615  0.00  0.00    +0.000 A 
ENDBRANCH  25  26
ENDBRANCH   9  24
TORSDOF 5
ENDMDL
MODEL 6
REMARK VINA RESULT:      -5.6      9.511     12.612
REMARK  Name = 
REMARK  8 active torsions:
REMARK  status: ('A' for Active; 'I' for Inactive)
REMARK    1  A    between atoms: C_1  and  C_2
REMARK    2  A    between atoms: C_3  and  C_4
REMARK    3  A    between atoms: N_10  and  C_11
REMARK    4  A    between atoms: C_12  and  C_13
REMARK    5  A    between atoms: C_19  and  C_20
REMARK    6  A    between atoms: C_21  and  O_22
REMARK    7  A    between atoms: C_21  and  C_23
REMARK    8  A    between atoms: C_24  and  C_25
REMARK                            x       y       z     vdW  Elec       q    Type
REMARK                         _______ _______ _______ _____ _____    ______ ____
ROOT
ATOM      1  C   UNL     1       7.801   5.509  14.950  0.00  0.00    +0.000 C 
ATOM      2  C   UNL     1       6.362   5.784  15.433  0.00  0.00    +0.000 C 
ATOM      3  C   UNL     1       5.434   4.532  15.264  0.00  0.00    +0.000 C 
ATOM      4  N   UNL     1       5.654   3.476  16.286  0.00  0.00    +0.000 NA
ATOM      5  C   UNL     1       4.852   2.253  16.108  0.00  0.00    +0.000 C 
ATOM      6  C   UNL     1       5.570   3.963  17.693  0.00  0.00    +0.000 C 
ATOM      7  C   UNL     1       6.599   5.138  17.886  0.00  0.00    +0.000 C 
ATOM      8  C   UNL     1       6.755   5.583  19.350  0.00  0.00    +0.000 C 
ATOM      9  C   UNL     1       6.345   6.321  16.898  0.00  0.00    +0.000 C 
ENDROOT
BRANCH   3  10
ATOM     10  C   UNL     1       5.414   3.986  13.825  0.00  0.00    +0.000 A 
ATOM     11  C   UNL     1       6.565   3.481  13.193  0.00  0.00    +0.000 A 
ATOM     12  C   UNL     1       6.495   2.914  11.917  0.00  0.00    +0.000 A 
ATOM     13  C   UNL     1       5.275   2.856  11.247  0.00  0.00    +0.000 A 
ATOM     14  C   UNL     1       4.127   3.358  11.852  0.00  0.00    +0.000 A 
ATOM     15  C   UNL     1       4.195   3.920  13.129  0.00  0.00    +0.000 A 
ENDBRANCH   3  10
BRANCH   6  16
ATOM     16  C   UNL     1       4.145   4.087  18.297  0.00  0.00    +0.000 A 
ATOM     17  C   UNL     1       3.988   4.105  19.693  0.00  0.00    +0.000 A 
ATOM     18  C   UNL     1       2.710   4.120  20.289  0.00  0.00    +0.000 A 
ATOM     19  C   UNL     1       1.563   4.097  19.503  0.00  0.00    +0.000 A 
ATOM     20  C   UNL     1       1.686   4.081  18.129  0.00  0.00    +0.000 A 
ATOM     21  C   UNL     1       2.952   4.094  17.541  0.00  0.00    +0.000 A 
ENDBRANCH   6  16
BRANCH   9  22
ATOM     22  O   UNL     1       7.319   7.351  17.066  0.00  0.00    +0.000 OA
ATOM     23  H   UNL     1       7.978   7.258  16.359  0.00  0.00    +0.000 HD
ENDBRANCH   9  22
BRANCH   9  24
ATOM     24  C   UNL     1       5.018   6.918  17.339  0.00  0.00    +0.000 C 
ATOM     25  C   UNL     1       3.880   7.429  17.716  0.00  0.00    +0.000 C 
BRANCH  25  26
ATOM     26  C   UNL     1       2.703   8.058  18.240  0.00  0.00    +0.000 A 
ATOM     27  C   UNL     1       2.046   9.033  17.484  0.00  0.00    +0.000 A 
ATOM     28  C   UNL     1       0.928   9.693  18.002  0.00  0.00    +0.000 A 
ATOM     29  C   UNL     1       0.463   9.380  19.280  0.00  0.00    +0.000 A 
ATOM     30  C   UNL     1       1.094   8.381  20.022  0.00  0.00    +0.000 A 
ATOM     31  C   UNL     1       2.202   7.713  19.496  0.00  0.00    +0.000 A 
ENDBRANCH  25  26
ENDBRANCH   9  24
TORSDOF 5
ENDMDL
MODEL 7
REMARK VINA RESULT:      -5.6      7.167     11.173
REMARK  Name = 
REMARK  8 active torsions:
REMARK  status: ('A' for Active; 'I' for Inactive)
REMARK    1  A    between atoms: C_1  and  C_2
REMARK    2  A    between atoms: C_3  and  C_4
REMARK    3  A    between atoms: N_10  and  C_11
REMARK    4  A    between atoms: C_12  and  C_13
REMARK    5  A    between atoms: C_19  and  C_20
REMARK    6  A    between atoms: C_21  and  O_22
REMARK    7  A    between atoms: C_21  and  C_23
REMARK    8  A    between atoms: C_24  and  C_25
REMARK                            x       y       z     vdW  Elec       q    Type
REMARK                         _______ _______ _______ _____ _____    ______ ____
ROOT
ATOM      1  C   UNL     1       0.742  15.589  21.852  0.00  0.00    +0.000 C 
ATOM      2  C   UNL     1      -0.428  15.008  21.031  0.00  0.00    +0.000 C 
ATOM      3  C   UNL     1      -0.025  14.736  19.541  0.00  0.00    +0.000 C 
ATOM      4  N   UNL     1       0.807  13.519  19.353  0.00  0.00    +0.000 NA
ATOM      5  C   UNL     1       1.267  13.280  17.975  0.00  0.00    +0.000 C 
ATOM      6  C   UNL     1       0.214  12.281  19.936  0.00  0.00    +0.000 C 
ATOM      7  C   UNL     1      -0.069  12.524  21.465  0.00  0.00    +0.000 C 
ATOM      8  C   UNL     1      -0.484  11.251  22.222  0.00  0.00    +0.000 C 
ATOM      9  C   UNL     1      -1.024  13.735  21.709  0.00  0.00    +0.000 C 
ENDROOT
BRANCH   3  10
ATOM     10  C   UNL     1       0.551  15.977  18.836  0.00  0.00    +0.000 A 
ATOM     11  C   UNL     1       1.933  16.177  18.670  0.00  0.00    +0.000 A 
ATOM     12  C   UNL     1       2.420  17.272  17.950  0.00  0.00    +0.000 A 
ATOM     13  C   UNL     1       1.533  18.192  17.397  0.00  0.00    +0.000 A 
ATOM     14  C   UNL     1       0.162  18.016  17.557  0.00  0.00    +0.000 A 
ATOM     15  C   UNL     1      -0.325  16.919  18.272  0.00  0.00    +0.000 A 
ENDBRANCH   3  10
BRANCH   6  16
ATOM     16  C   UNL     1      -0.845  11.548  19.068  0.00  0.00    +0.000 A 
ATOM     17  C   UNL     1      -1.125  10.195  19.322  0.00  0.00    +0.000 A 
ATOM     18  C   UNL     1      -2.008   9.461  18.502  0.00  0.00    +0.000 A 
ATOM     19  C   UNL     1      -2.611  10.059  17.401  0.00  0.00    +0.000 A 
ATOM     20  C   UNL     1      -2.357  11.387  17.128  0.00  0.00    +0.000 A 
ATOM     21  C   UNL     1      -1.504  12.119  17.958  0.00  0.00    +0.000 A 
ENDBRANCH   6  16
BRANCH   9  22
ATOM     22  O   UNL     1      -1.226  13.959  23.105  0.00  0.00    +0.000 OA
ATOM     23  H   UNL     1      -0.767  14.779  23.347  0.00  0.00    +0.000 HD
ENDBRANCH   9  22
BRANCH   9  24
ATOM     24  C   UNL     1      -2.367  13.290  21.153  0.00  0.00    +0.000 C 
ATOM     25  C   UNL     1      -3.518  12.910  20.674  0.00  0.00    +0.000 C 
BRANCH  25  26
ATOM     26  C   UNL     1      -4.829  12.476  20.289  0.00  0.00    +0.000 A 
ATOM     27  C   UNL     1      -5.832  12.366  21.257  0.00  0.00    +0.000 A 
ATOM     28  C   UNL     1      -7.100  11.896  20.908  0.00  0.00    +0.000 A 
ATOM     29  C   UNL     1      -7.371  11.533  19.589  0.00  0.00    +0.000 A 
ATOM     30  C   UNL     1      -6.385  11.677  18.613  0.00  0.00    +0.000 A 
ATOM     31  C   UNL     1      -5.122  12.162  18.962  0.00  0.00    +0.000 A 
ENDBRANCH  25  26
ENDBRANCH   9  24
TORSDOF 5
ENDMDL
MODEL 8
REMARK VINA RESULT:      -5.6      6.641      9.719
REMARK  Name = 
REMARK  8 active torsions:
REMARK  status: ('A' for Active; 'I' for Inactive)
REMARK    1  A    between atoms: C_1  and  C_2
REMARK    2  A    between atoms: C_3  and  C_4
REMARK    3  A    between atoms: N_10  and  C_11
REMARK    4  A    between atoms: C_12  and  C_13
REMARK    5  A    between atoms: C_19  and  C_20
REMARK    6  A    between atoms: C_21  and  O_22
REMARK    7  A    between atoms: C_21  and  C_23
REMARK    8  A    between atoms: C_24  and  C_25
REMARK                            x       y       z     vdW  Elec       q    Type
REMARK                         _______ _______ _______ _____ _____    ______ ____
ROOT
ATOM      1  C   UNL     1      -1.305  15.548  22.701  0.00  0.00    +0.000 C 
ATOM      2  C   UNL     1      -1.234  14.714  21.405  0.00  0.00    +0.000 C 
ATOM      3  C   UNL     1       0.208  14.702  20.789  0.00  0.00    +0.000 C 
ATOM      4  N   UNL     1       1.160  13.811  21.502  0.00  0.00    +0.000 NA
ATOM      5  C   UNL     1       2.543  13.838  20.996  0.00  0.00    +0.000 C 
ATOM      6  C   UNL     1       0.681  12.408  21.658  0.00  0.00    +0.000 C 
ATOM      7  C   UNL     1      -0.711  12.425  22.393  0.00  0.00    +0.000 C 
ATOM      8  C   UNL     1      -1.208  11.027  22.799  0.00  0.00    +0.000 C 
ATOM      9  C   UNL     1      -1.779  13.268  21.627  0.00  0.00    +0.000 C 
ENDROOT
BRANCH   3  10
ATOM     10  C   UNL     1       0.769  16.113  20.541  0.00  0.00    +0.000 A 
ATOM     11  C   UNL     1       1.455  16.838  21.533  0.00  0.00    +0.000 A 
ATOM     12  C   UNL     1       2.027  18.082  21.250  0.00  0.00    +0.000 A 
ATOM     13  C   UNL     1       1.910  18.627  19.974  0.00  0.00    +0.000 A 
ATOM     14  C   UNL     1       1.228  17.929  18.981  0.00  0.00    +0.000 A 
ATOM     15  C   UNL     1       0.661  16.684  19.262  0.00  0.00    +0.000 A 
ENDBRANCH   3  10
BRANCH   6  16
ATOM     16  C   UNL     1       0.893  11.467  20.441  0.00  0.00    +0.000 A 
ATOM     17  C   UNL     1       0.721  10.082  20.605  0.00  0.00    +0.000 A 
ATOM     18  C   UNL     1       0.993   9.178  19.556  0.00  0.00    +0.000 A 
ATOM     19  C   UNL     1       1.463   9.639  18.330  0.00  0.00    +0.000 A 
ATOM     20  C   UNL     1       1.639  10.994  18.140  0.00  0.00    +0.000 A 
ATOM     21  C   UNL     1       1.342  11.888  19.171  0.00  0.00    +0.000 A 
ENDBRANCH   6  16
BRANCH   9  22
ATOM     22  O   UNL     1      -3.016  13.303  22.339  0.00  0.00    +0.000 OA
ATOM     23  H   UNL     1      -3.664  13.775  21.792  0.00  0.00    +0.000 HD
ENDBRANCH   9  22
BRANCH   9  24
ATOM     24  C   UNL     1      -2.047  12.489  20.349  0.00  0.00    +0.000 C 
ATOM     25  C   UNL     1      -2.276  11.821  19.254  0.00  0.00    +0.000 C 
BRANCH  25  26
ATOM     26  C   UNL     1      -2.593  11.209  17.996  0.00  0.00    +0.000 A 
ATOM     27  C   UNL     1      -3.764  11.575  17.327  0.00  0.00    +0.000 A 
ATOM     28  C   UNL     1      -4.114  10.951  16.126  0.00  0.00    +0.000 A 
ATOM     29  C   UNL     1      -3.293   9.958  15.591  0.00  0.00    +0.000 A 
ATOM     30  C   UNL     1      -2.104   9.618  16.237  0.00  0.00    +0.000 A 
ATOM     31  C   UNL     1      -1.749  10.254  17.429  0.00  0.00    +0.000 A 
ENDBRANCH  25  26
ENDBRANCH   9  24
TORSDOF 5
ENDMDL
MODEL 9
REMARK VINA RESULT:      -5.6      0.797      1.196
REMARK  Name = 
REMARK  8 active torsions:
REMARK  status: ('A' for Active; 'I' for Inactive)
REMARK    1  A    between atoms: C_1  and  C_2
REMARK    2  A    between atoms: C_3  and  C_4
REMARK    3  A    between atoms: N_10  and  C_11
REMARK    4  A    between atoms: C_12  and  C_13
REMARK    5  A    between atoms: C_19  and  C_20
REMARK    6  A    between atoms: C_21  and  O_22
REMARK    7  A    between atoms: C_21  and  C_23
REMARK    8  A    between atoms: C_24  and  C_25
REMARK                            x       y       z     vdW  Elec       q    Type
REMARK                         _______ _______ _______ _____ _____    ______ ____
ROOT
ATOM      1  C   UNL     1       4.808  14.847  23.319  0.00  0.00    +0.000 C 
ATOM      2  C   UNL     1       5.773  14.434  22.187  0.00  0.00    +0.000 C 
ATOM      3  C   UNL     1       5.668  15.388  20.947  0.00  0.00    +0.000 C 
ATOM      4  N   UNL     1       6.337  16.701  21.138  0.00  0.00    +0.000 NA
ATOM      5  C   UNL     1       6.189  17.648  20.020  0.00  0.00    +0.000 C 
ATOM      6  C   UNL     1       7.762  16.602  21.563  0.00  0.00    +0.000 C 
ATOM      7  C   UNL     1       7.841  15.748  22.883  0.00  0.00    +0.000 C 
ATOM      8  C   UNL     1       9.234  15.753  23.535  0.00  0.00    +0.000 C 
ATOM      9  C   UNL     1       7.241  14.318  22.703  0.00  0.00    +0.000 C 
ENDROOT
BRANCH   3  10
ATOM     10  C   UNL     1       4.234  15.512  20.401  0.00  0.00    +0.000 A 
ATOM     11  C   UNL     1       3.300  16.419  20.932  0.00  0.00    +0.000 A 
ATOM     12  C   UNL     1       2.034  16.568  20.358  0.00  0.00    +0.000 A 
ATOM     13  C   UNL     1       1.678  15.802  19.252  0.00  0.00    +0.000 A 
ATOM     14  C   UNL     1       2.585  14.892  18.716  0.00  0.00    +0.000 A 
ATOM     15  C   UNL     1       3.852  14.747  19.286  0.00  0.00    +0.000 A 
ENDBRANCH   3  10
BRANCH   6  16
ATOM     16  C   UNL     1       8.804  16.368  20.436  0.00  0.00    +0.000 A 
ATOM     17  C   UNL     1       8.364  15.958  19.167  0.00  0.00    +0.000 A 
ATOM     18  C   UNL     1       9.277  15.641  18.138  0.00  0.00    +0.000 A 
ATOM     19  C   UNL     1      10.647  15.707  18.366  0.00  0.00    +0.000 A 
ATOM     20  C   UNL     1      11.109  16.108  19.602  0.00  0.00    +0.000 A 
ATOM     21  C   UNL     1      10.203  16.448  20.609  0.00  0.00    +0.000 A 
ENDBRANCH   6  16
BRANCH   9  22
ATOM     22  O   UNL     1       7.285  13.583  23.927  0.00  0.00    +0.000 OA
ATOM     23  H   UNL     1       6.742  12.786  23.818  0.00  0.00    +0.000 HD
ENDBRANCH   9  22
BRANCH   9  24
ATOM     24  C   UNL     1       8.193  13.613  21.751  0.00  0.00    +0.000 C 
ATOM     25  C   UNL     1       9.009  13.007  20.935  0.00  0.00    +0.000 C 
BRANCH  25  26
ATOM     26  C   UNL     1       9.963  12.476  20.006  0.00  0.00    +0.000 A 
ATOM     27  C   UNL     1       9.538  12.064  18.739  0.00  0.00    +0.000 A 
ATOM     28  C   UNL     1      10.445  11.496  17.841  0.00  0.00    +0.000 A 
ATOM     29  C   UNL     1      11.782  11.338  18.207  0.00  0.00    +0.000 A 
ATOM     30  C   UNL     1      12.218  11.782  19.455  0.00  0.00    +0.000 A 
ATOM     31  C   UNL     1      11.311  12.364  20.346  0.00  0.00    +0.000 A 
ENDBRANCH  25  26
ENDBRANCH   9  24
TORSDOF 5
ENDMDL
