MODEL 1
REMARK VINA RESULT:      -7.2      0.000      0.000
REMARK  Name = 
REMARK  8 active torsions:
REMARK  status: ('A' for Active; 'I' for Inactive)
REMARK    1  A    between atoms: C_1  and  O_2
REMARK    2  A    between atoms: O_2  and  C_3
REMARK    3  A    between atoms: C_5  and  C_6
REMARK    4  A    between atoms: C_10  and  C_11
REMARK    5  A    between atoms: C_19  and  O_20
REMARK    6  A    between atoms: O_20  and  C_21
REMARK    7  A    between atoms: C_22  and  O_23
REMARK    8  A    between atoms: O_23  and  C_24
REMARK                            x       y       z     vdW  Elec       q    Type
REMARK                         _______ _______ _______ _____ _____    ______ ____
ROOT
ATOM      1  C   UNL     1       5.991   5.300  16.435  0.00  0.00    +0.000 A 
ATOM      2  C   UNL     1       4.950   4.397  16.730  0.00  0.00    +0.000 A 
ATOM      3  C   UNL     1       4.660   4.030  18.043  0.00  0.00    +0.000 A 
ATOM      4  C   UNL     1       5.558   4.411  19.035  0.00  0.00    +0.000 A 
ATOM      5  C   UNL     1       6.603   5.308  18.772  0.00  0.00    +0.000 A 
ATOM      6  C   UNL     1       6.849   5.757  17.457  0.00  0.00    +0.000 A 
ENDROOT
BRANCH   3   7
ATOM      7  C   UNL     1       3.365   3.391  18.359  0.00  0.00    +0.000 A 
ATOM      8  C   UNL     1       3.003   2.047  17.977  0.00  0.00    +0.000 A 
ATOM      9  C   UNL     1       1.726   1.704  18.345  0.00  0.00    +0.000 A 
ATOM     10  S   UNL     1       0.923   2.991  19.105  0.00  0.00    +0.000 S 
ATOM     11  C   UNL     1       2.276   4.061  18.947  0.00  0.00    +0.000 A 
BRANCH  11  12
ATOM     12  C   UNL     1       2.095   5.470  19.417  0.00  0.00    +0.000 A 
ATOM     13  C   UNL     1       1.761   5.753  20.744  0.00  0.00    +0.000 A 
ATOM     14  C   UNL     1       1.431   7.058  21.155  0.00  0.00    +0.000 A 
ATOM     15  C   UNL     1       1.568   8.113  20.257  0.00  0.00    +0.000 A 
ATOM     16  C   UNL     1       1.988   7.868  18.966  0.00  0.00    +0.000 A 
ATOM     17 BR   UNL     1       2.232   9.304  17.767  0.00  0.00    +0.000 Br
ATOM     18  C   UNL     1       2.226   6.551  18.528  0.00  0.00    +0.000 A 
ENDBRANCH  11  12
ENDBRANCH   3   7
BRANCH   1  20
ATOM     19  C   UNL     1       6.878   4.899  14.268  0.00  0.00    +0.000 C 
ATOM     20  O   UNL     1       6.147   5.761  15.148  0.00  0.00    +0.000 OA
ENDBRANCH   1  20
BRANCH   5  21
ATOM     21  O   UNL     1       7.209   5.703  19.944  0.00  0.00    +0.000 OA
ATOM     22  C   UNL     1       8.513   5.247  20.262  0.00  0.00    +0.000 C 
ENDBRANCH   5  21
BRANCH   6  23
ATOM     23  O   UNL     1       7.890   6.628  17.323  0.00  0.00    +0.000 OA
ATOM     24  C   UNL     1       7.740   8.019  17.502  0.00  0.00    +0.000 C 
ENDBRANCH   6  23
TORSDOF 5
ENDMDL
MODEL 2
REMARK VINA RESULT:      -7.0      1.045      1.447
REMARK  Name = 
REMARK  8 active torsions:
REMARK  status: ('A' for Active; 'I' for Inactive)
REMARK    1  A    between atoms: C_1  and  O_2
REMARK    2  A    between atoms: O_2  and  C_3
REMARK    3  A    between atoms: C_5  and  C_6
REMARK    4  A    between atoms: C_10  and  C_11
REMARK    5  A    between atoms: C_19  and  O_20
REMARK    6  A    between atoms: O_20  and  C_21
REMARK    7  A    between atoms: C_22  and  O_23
REMARK    8  A    between atoms: O_23  and  C_24
REMARK                            x       y       z     vdW  Elec       q    Type
REMARK                         _______ _______ _______ _____ _____    ______ ____
ROOT
ATOM      1  C   UNL     1       5.912   5.372  16.550  0.00  0.00    +0.000 A 
ATOM      2  C   UNL     1       4.864   4.533  16.982  0.00  0.00    +0.000 A 
ATOM      3  C   UNL     1       4.665   4.262  18.335  0.00  0.00    +0.000 A 
ATOM      4  C   UNL     1       5.652   4.667  19.229  0.00  0.00    +0.000 A 
ATOM      5  C   UNL     1       6.705   5.501  18.829  0.00  0.00    +0.000 A 
ATOM      6  C   UNL     1       6.864   5.856  17.471  0.00  0.00    +0.000 A 
ENDROOT
BRANCH   3   7
ATOM      7  C   UNL     1       3.377   3.700  18.789  0.00  0.00    +0.000 A 
ATOM      8  C   UNL     1       3.061   2.291  18.805  0.00  0.00    +0.000 A 
ATOM      9  C   UNL     1       1.781   2.026  19.224  0.00  0.00    +0.000 A 
ATOM     10  S   UNL     1       0.921   3.450  19.558  0.00  0.00    +0.000 S 
ATOM     11  C   UNL     1       2.252   4.474  19.130  0.00  0.00    +0.000 A 
BRANCH  11  12
ATOM     12  C   UNL     1       2.020   5.952  19.166  0.00  0.00    +0.000 A 
ATOM     13  C   UNL     1       2.135   6.731  18.012  0.00  0.00    +0.000 A 
ATOM     14  C   UNL     1       2.078   8.136  18.067  0.00  0.00    +0.000 A 
ATOM     15  C   UNL     1       1.768   8.762  19.272  0.00  0.00    +0.000 A 
ATOM     16  C   UNL     1       1.557   8.004  20.406  0.00  0.00    +0.000 A 
ATOM     17 BR   UNL     1       1.078   8.847  22.024  0.00  0.00    +0.000 Br
ATOM     18  C   UNL     1       1.708   6.604  20.371  0.00  0.00    +0.000 A 
ENDBRANCH  11  12
ENDBRANCH   3   7
BRANCH   1  20
ATOM     19  C   UNL     1       6.693   4.843  14.370  0.00  0.00    +0.000 C 
ATOM     20  O   UNL     1       5.984   5.744  15.227  0.00  0.00    +0.000 OA
ENDBRANCH   1  20
BRANCH   5  21
ATOM     21  O   UNL     1       7.416   5.943  19.922  0.00  0.00    +0.000 OA
ATOM     22  C   UNL     1       8.562   5.236  20.362  0.00  0.00    +0.000 C 
ENDBRANCH   5  21
BRANCH   6  23
ATOM     23  O   UNL     1       7.922   6.672  17.202  0.00  0.00    +0.000 OA
ATOM     24  C   UNL     1       7.901   8.055  17.482  0.00  0.00    +0.000 C 
ENDBRANCH   6  23
TORSDOF 5
ENDMDL
MODEL 3
REMARK VINA RESULT:      -6.8      3.060      5.778
REMARK  Name = 
REMARK  8 active torsions:
REMARK  status: ('A' for Active; 'I' for Inactive)
REMARK    1  A    between atoms: C_1  and  O_2
REMARK    2  A    between atoms: O_2  and  C_3
REMARK    3  A    between atoms: C_5  and  C_6
REMARK    4  A    between atoms: C_10  and  C_11
REMARK    5  A    between atoms: C_19  and  O_20
REMARK    6  A    between atoms: O_20  and  C_21
REMARK    7  A    between atoms: C_22  and  O_23
REMARK    8  A    between atoms: O_23  and  C_24
REMARK                            x       y       z     vdW  Elec       q    Type
REMARK                         _______ _______ _______ _____ _____    ______ ____
ROOT
ATOM      1  C   UNL     1       2.765   3.425  18.207  0.00  0.00    +0.000 A 
ATOM      2  C   UNL     1       3.514   3.458  17.014  0.00  0.00    +0.000 A 
ATOM      3  C   UNL     1       4.106   4.637  16.563  0.00  0.00    +0.000 A 
ATOM      4  C   UNL     1       3.760   5.822  17.205  0.00  0.00    +0.000 A 
ATOM      5  C   UNL     1       3.016   5.821  18.393  0.00  0.00    +0.000 A 
ATOM      6  C   UNL     1       2.488   4.617  18.908  0.00  0.00    +0.000 A 
ENDROOT
BRANCH   3   7
ATOM      7  C   UNL     1       5.169   4.580  15.538  0.00  0.00    +0.000 A 
ATOM      8  C   UNL     1       5.036   3.926  14.258  0.00  0.00    +0.000 A 
ATOM      9  C   UNL     1       6.182   3.970  13.504  0.00  0.00    +0.000 A 
ATOM     10  S   UNL     1       7.447   4.746  14.327  0.00  0.00    +0.000 S 
ATOM     11  C   UNL     1       6.486   5.035  15.739  0.00  0.00    +0.000 A 
BRANCH  11  12
ATOM     12  C   UNL     1       7.162   5.674  16.911  0.00  0.00    +0.000 A 
ATOM     13  C   UNL     1       7.543   4.924  18.026  0.00  0.00    +0.000 A 
ATOM     14  C   UNL     1       8.030   5.540  19.194  0.00  0.00    +0.000 A 
ATOM     15  C   UNL     1       8.267   6.912  19.196  0.00  0.00    +0.000 A 
ATOM     16  C   UNL     1       7.987   7.660  18.069  0.00  0.00    +0.000 A 
ATOM     17 BR   UNL     1       8.363   9.508  18.050  0.00  0.00    +0.000 Br
ATOM     18  C   UNL     1       7.410   7.058  16.935  0.00  0.00    +0.000 A 
ENDBRANCH  11  12
ENDBRANCH   3   7
BRANCH   1  20
ATOM     19  C   UNL     1       0.910   2.035  18.725  0.00  0.00    +0.000 C 
ATOM     20  O   UNL     1       2.330   2.218  18.704  0.00  0.00    +0.000 OA
ENDBRANCH   1  20
BRANCH   5  21
ATOM     21  O   UNL     1       2.995   7.079  18.953  0.00  0.00    +0.000 OA
ATOM     22  C   UNL     1       2.353   8.148  18.282  0.00  0.00    +0.000 C 
ENDBRANCH   5  21
BRANCH   6  23
ATOM     23  O   UNL     1       1.783   4.739  20.069  0.00  0.00    +0.000 OA
ATOM     24  C   UNL     1       2.346   4.448  21.330  0.00  0.00    +0.000 C 
ENDBRANCH   6  23
TORSDOF 5
ENDMDL
MODEL 4
REMARK VINA RESULT:      -6.7      3.079      5.776
REMARK  Name = 
REMARK  8 active torsions:
REMARK  status: ('A' for Active; 'I' for Inactive)
REMARK    1  A    between atoms: C_1  and  O_2
REMARK    2  A    between atoms: O_2  and  C_3
REMARK    3  A    between atoms: C_5  and  C_6
REMARK    4  A    between atoms: C_10  and  C_11
REMARK    5  A    between atoms: C_19  and  O_20
REMARK    6  A    between atoms: O_20  and  C_21
REMARK    7  A    between atoms: C_22  and  O_23
REMARK    8  A    between atoms: O_23  and  C_24
REMARK                            x       y       z     vdW  Elec       q    Type
REMARK                         _______ _______ _______ _____ _____    ______ ____
ROOT
ATOM      1  C   UNL     1       1.533   7.933  20.591  0.00  0.00    +0.000 A 
ATOM      2  C   UNL     1       1.691   6.544  20.769  0.00  0.00    +0.000 A 
ATOM      3  C   UNL     1       2.277   5.750  19.784  0.00  0.00    +0.000 A 
ATOM      4  C   UNL     1       2.505   6.327  18.538  0.00  0.00    +0.000 A 
ATOM      5  C   UNL     1       2.357   7.705  18.331  0.00  0.00    +0.000 A 
ATOM      6  C   UNL     1       1.848   8.534  19.355  0.00  0.00    +0.000 A 
ENDROOT
BRANCH   3   7
ATOM      7  C   UNL     1       2.762   4.396  20.124  0.00  0.00    +0.000 A 
ATOM      8  C   UNL     1       2.127   3.515  21.075  0.00  0.00    +0.000 A 
ATOM      9  C   UNL     1       2.799   2.332  21.251  0.00  0.00    +0.000 A 
ATOM     10  S   UNL     1       4.221   2.272  20.327  0.00  0.00    +0.000 S 
ATOM     11  C   UNL     1       3.979   3.856  19.669  0.00  0.00    +0.000 A 
BRANCH  11  12
ATOM     12  C   UNL     1       5.050   4.397  18.774  0.00  0.00    +0.000 A 
ATOM     13  C   UNL     1       6.013   5.287  19.253  0.00  0.00    +0.000 A 
ATOM     14  C   UNL     1       6.921   5.924  18.387  0.00  0.00    +0.000 A 
ATOM     15  C   UNL     1       6.951   5.562  17.042  0.00  0.00    +0.000 A 
ATOM     16  C   UNL     1       6.070   4.613  16.565  0.00  0.00    +0.000 A 
ATOM     17 BR   UNL     1       6.151   4.078  14.758  0.00  0.00    +0.000 Br
ATOM     18  C   UNL     1       5.099   4.046  17.414  0.00  0.00    +0.000 A 
ENDBRANCH  11  12
ENDBRANCH   3   7
BRANCH   1  20
ATOM     19  C   UNL     1      -0.322   8.774  21.813  0.00  0.00    +0.000 C 
ATOM     20  O   UNL     1       1.098   8.708  21.641  0.00  0.00    +0.000 OA
ENDBRANCH   1  20
BRANCH   5  21
ATOM     21  O   UNL     1       2.851   8.066  17.098  0.00  0.00    +0.000 OA
ATOM     22  C   UNL     1       4.098   7.561  16.653  0.00  0.00    +0.000 C 
ENDBRANCH   5  21
BRANCH   6  23
ATOM     23  O   UNL     1       1.750   9.857  19.038  0.00  0.00    +0.000 OA
ATOM     24  C   UNL     1       0.553  10.434  18.565  0.00  0.00    +0.000 C 
ENDBRANCH   6  23
TORSDOF 5
ENDMDL
MODEL 5
REMARK VINA RESULT:      -6.6      3.239      5.861
REMARK  Name = 
REMARK  8 active torsions:
REMARK  status: ('A' for Active; 'I' for Inactive)
REMARK    1  A    between atoms: C_1  and  O_2
REMARK    2  A    between atoms: O_2  and  C_3
REMARK    3  A    between atoms: C_5  and  C_6
REMARK    4  A    between atoms: C_10  and  C_11
REMARK    5  A    between atoms: C_19  and  O_20
REMARK    6  A    between atoms: O_20  and  C_21
REMARK    7  A    between atoms: C_22  and  O_23
REMARK    8  A    between atoms: O_23  and  C_24
REMARK                            x       y       z     vdW  Elec       q    Type
REMARK                         _______ _______ _______ _____ _____    ______ ____
ROOT
ATOM      1  C   UNL     1       2.544   5.461  18.199  0.00  0.00    +0.000 A 
ATOM      2  C   UNL     1       3.688   5.581  17.385  0.00  0.00    +0.000 A 
ATOM      3  C   UNL     1       4.358   4.456  16.907  0.00  0.00    +0.000 A 
ATOM      4  C   UNL     1       3.996   3.217  17.428  0.00  0.00    +0.000 A 
ATOM      5  C   UNL     1       2.864   3.066  18.240  0.00  0.00    +0.000 A 
ATOM      6  C   UNL     1       2.124   4.195  18.657  0.00  0.00    +0.000 A 
ENDROOT
BRANCH   3   7
ATOM      7  C   UNL     1       5.306   4.588  15.782  0.00  0.00    +0.000 A 
ATOM      8  C   UNL     1       5.131   3.970  14.488  0.00  0.00    +0.000 A 
ATOM      9  C   UNL     1       6.175   4.203  13.629  0.00  0.00    +0.000 A 
ATOM     10  S   UNL     1       7.402   5.117  14.363  0.00  0.00    +0.000 S 
ATOM     11  C   UNL     1       6.563   5.214  15.876  0.00  0.00    +0.000 A 
BRANCH  11  12
ATOM     12  C   UNL     1       7.265   5.897  17.007  0.00  0.00    +0.000 A 
ATOM     13  C   UNL     1       7.680   5.188  18.137  0.00  0.00    +0.000 A 
ATOM     14  C   UNL     1       8.193   5.846  19.270  0.00  0.00    +0.000 A 
ATOM     15  C   UNL     1       8.419   7.219  19.219  0.00  0.00    +0.000 A 
ATOM     16  C   UNL     1       8.104   7.927  18.076  0.00  0.00    +0.000 A 
ATOM     17 BR   UNL     1       8.466   9.776  17.985  0.00  0.00    +0.000 Br
ATOM     18  C   UNL     1       7.502   7.282  16.978  0.00  0.00    +0.000 A 
ENDBRANCH  11  12
ENDBRANCH   3   7
BRANCH   1  20
ATOM     19  C   UNL     1       2.430   7.833  18.184  0.00  0.00    +0.000 C 
ATOM     20  O   UNL     1       1.817   6.584  18.521  0.00  0.00    +0.000 OA
ENDBRANCH   1  20
BRANCH   5  21
ATOM     21  O   UNL     1       2.586   1.733  18.443  0.00  0.00    +0.000 OA
ATOM     22  C   UNL     1       3.596   0.857  18.911  0.00  0.00    +0.000 C 
ENDBRANCH   5  21
BRANCH   6  23
ATOM     23  O   UNL     1       1.043   3.925  19.443  0.00  0.00    +0.000 OA
ATOM     24  C   UNL     1       1.161   3.645  20.821  0.00  0.00    +0.000 C 
ENDBRANCH   6  23
TORSDOF 5
ENDMDL
MODEL 6
REMARK VINA RESULT:      -6.5      3.028      5.845
REMARK  Name = 
REMARK  8 active torsions:
REMARK  status: ('A' for Active; 'I' for Inactive)
REMARK    1  A    between atoms: C_1  and  O_2
REMARK    2  A    between atoms: O_2  and  C_3
REMARK    3  A    between atoms: C_5  and  C_6
REMARK    4  A    between atoms: C_10  and  C_11
REMARK    5  A    between atoms: C_19  and  O_20
REMARK    6  A    between atoms: O_20  and  C_21
REMARK    7  A    between atoms: C_22  and  O_23
REMARK    8  A    between atoms: O_23  and  C_24
REMARK                            x       y       z     vdW  Elec       q    Type
REMARK                         _______ _______ _______ _____ _____    ______ ____
ROOT
ATOM      1  C   UNL     1       1.443   8.176  20.624  0.00  0.00    +0.000 A 
ATOM      2  C   UNL     1       1.541   6.784  20.827  0.00  0.00    +0.000 A 
ATOM      3  C   UNL     1       2.111   5.950  19.867  0.00  0.00    +0.000 A 
ATOM      4  C   UNL     1       2.385   6.495  18.616  0.00  0.00    +0.000 A 
ATOM      5  C   UNL     1       2.297   7.875  18.383  0.00  0.00    +0.000 A 
ATOM      6  C   UNL     1       1.804   8.741  19.383  0.00  0.00    +0.000 A 
ENDROOT
BRANCH   3   7
ATOM      7  C   UNL     1       2.535   4.584  20.238  0.00  0.00    +0.000 A 
ATOM      8  C   UNL     1       1.941   3.804  21.299  0.00  0.00    +0.000 A 
ATOM      9  C   UNL     1       2.544   2.585  21.479  0.00  0.00    +0.000 A 
ATOM     10  S   UNL     1       3.857   2.370  20.425  0.00  0.00    +0.000 S 
ATOM     11  C   UNL     1       3.658   3.931  19.699  0.00  0.00    +0.000 A 
BRANCH  11  12
ATOM     12  C   UNL     1       4.666   4.342  18.672  0.00  0.00    +0.000 A 
ATOM     13  C   UNL     1       4.632   3.822  17.375  0.00  0.00    +0.000 A 
ATOM     14  C   UNL     1       5.665   4.078  16.455  0.00  0.00    +0.000 A 
ATOM     15  C   UNL     1       6.676   4.974  16.792  0.00  0.00    +0.000 A 
ATOM     16  C   UNL     1       6.677   5.573  18.036  0.00  0.00    +0.000 A 
ATOM     17 BR   UNL     1       8.012   6.833  18.472  0.00  0.00    +0.000 Br
ATOM     18  C   UNL     1       5.695   5.244  18.990  0.00  0.00    +0.000 A 
ENDBRANCH  11  12
ENDBRANCH   3   7
BRANCH   1  20
ATOM     19  C   UNL     1      -0.353   8.842  22.028  0.00  0.00    +0.000 C 
ATOM     20  O   UNL     1       1.021   8.986  21.652  0.00  0.00    +0.000 OA
ENDBRANCH   1  20
BRANCH   5  21
ATOM     21  O   UNL     1       2.828   8.194  17.153  0.00  0.00    +0.000 OA
ATOM     22  C   UNL     1       3.960   7.498  16.663  0.00  0.00    +0.000 C 
ENDBRANCH   5  21
BRANCH   6  23
ATOM     23  O   UNL     1       1.766  10.061  19.043  0.00  0.00    +0.000 OA
ATOM     24  C   UNL     1       0.559  10.734  18.758  0.00  0.00    +0.000 C 
ENDBRANCH   6  23
TORSDOF 5
ENDMDL
MODEL 7
REMARK VINA RESULT:      -6.4      1.692      3.144
REMARK  Name = 
REMARK  8 active torsions:
REMARK  status: ('A' for Active; 'I' for Inactive)
REMARK    1  A    between atoms: C_1  and  O_2
REMARK    2  A    between atoms: O_2  and  C_3
REMARK    3  A    between atoms: C_5  and  C_6
REMARK    4  A    between atoms: C_10  and  C_11
REMARK    5  A    between atoms: C_19  and  O_20
REMARK    6  A    between atoms: O_20  and  C_21
REMARK    7  A    between atoms: C_22  and  O_23
REMARK    8  A    between atoms: O_23  and  C_24
REMARK                            x       y       z     vdW  Elec       q    Type
REMARK                         _______ _______ _______ _____ _____    ______ ____
ROOT
ATOM      1  C   UNL     1       6.853   5.697  17.598  0.00  0.00    +0.000 A 
ATOM      2  C   UNL     1       5.770   5.522  18.484  0.00  0.00    +0.000 A 
ATOM      3  C   UNL     1       4.776   4.577  18.235  0.00  0.00    +0.000 A 
ATOM      4  C   UNL     1       4.766   3.961  16.986  0.00  0.00    +0.000 A 
ATOM      5  C   UNL     1       5.828   4.117  16.084  0.00  0.00    +0.000 A 
ATOM      6  C   UNL     1       6.887   5.006  16.369  0.00  0.00    +0.000 A 
ENDROOT
BRANCH   3   7
ATOM      7  C   UNL     1       3.873   4.155  19.325  0.00  0.00    +0.000 A 
ATOM      8  C   UNL     1       3.853   2.832  19.904  0.00  0.00    +0.000 A 
ATOM      9  C   UNL     1       2.889   2.676  20.868  0.00  0.00    +0.000 A 
ATOM     10  S   UNL     1       1.963   4.084  21.066  0.00  0.00    +0.000 S 
ATOM     11  C   UNL     1       2.829   4.947  19.838  0.00  0.00    +0.000 A 
BRANCH  11  12
ATOM     12  C   UNL     1       2.356   6.328  19.507  0.00  0.00    +0.000 A 
ATOM     13  C   UNL     1       2.440   6.829  18.206  0.00  0.00    +0.000 A 
ATOM     14  C   UNL     1       2.150   8.175  17.918  0.00  0.00    +0.000 A 
ATOM     15  C   UNL     1       1.640   8.995  18.921  0.00  0.00    +0.000 A 
ATOM     16  C   UNL     1       1.460   8.493  20.194  0.00  0.00    +0.000 A 
ATOM     17 BR   UNL     1       0.713   9.585  21.539  0.00  0.00    +0.000 Br
ATOM     18  C   UNL     1       1.840   7.173  20.504  0.00  0.00    +0.000 A 
ENDBRANCH  11  12
ENDBRANCH   3   7
BRANCH   1  20
ATOM     19  C   UNL     1       7.736   7.902  17.595  0.00  0.00    +0.000 C 
ATOM     20  O   UNL     1       7.894   6.524  17.952  0.00  0.00    +0.000 OA
ENDBRANCH   1  20
BRANCH   5  21
ATOM     21  O   UNL     1       5.698   3.243  15.028  0.00  0.00    +0.000 OA
ATOM     22  C   UNL     1       5.200   3.699  13.782  0.00  0.00    +0.000 C 
ENDBRANCH   5  21
BRANCH   6  23
ATOM     23  O   UNL     1       7.863   5.072  15.419  0.00  0.00    +0.000 OA
ATOM     24  C   UNL     1       7.642   5.637  14.146  0.00  0.00    +0.000 C 
ENDBRANCH   6  23
TORSDOF 5
ENDMDL
MODEL 8
REMARK VINA RESULT:      -6.3      3.221      5.555
REMARK  Name = 
REMARK  8 active torsions:
REMARK  status: ('A' for Active; 'I' for Inactive)
REMARK    1  A    between atoms: C_1  and  O_2
REMARK    2  A    between atoms: O_2  and  C_3
REMARK    3  A    between atoms: C_5  and  C_6
REMARK    4  A    between atoms: C_10  and  C_11
REMARK    5  A    between atoms: C_19  and  O_20
REMARK    6  A    between atoms: O_20  and  C_21
REMARK    7  A    between atoms: C_22  and  O_23
REMARK    8  A    between atoms: O_23  and  C_24
REMARK                            x       y       z     vdW  Elec       q    Type
REMARK                         _______ _______ _______ _____ _____    ______ ____
ROOT
ATOM      1  C   UNL     1       2.309   8.069  18.567  0.00  0.00    +0.000 A 
ATOM      2  C   UNL     1       2.790   6.801  18.953  0.00  0.00    +0.000 A 
ATOM      3  C   UNL     1       2.326   6.170  20.106  0.00  0.00    +0.000 A 
ATOM      4  C   UNL     1       1.537   6.915  20.978  0.00  0.00    +0.000 A 
ATOM      5  C   UNL     1       1.043   8.178  20.623  0.00  0.00    +0.000 A 
ATOM      6  C   UNL     1       1.437   8.787  19.412  0.00  0.00    +0.000 A 
ENDROOT
BRANCH   3   7
ATOM      7  C   UNL     1       2.555   4.723  20.295  0.00  0.00    +0.000 A 
ATOM      8  C   UNL     1       1.783   3.882  21.180  0.00  0.00    +0.000 A 
ATOM      9  C   UNL     1       2.223   2.583  21.215  0.00  0.00    +0.000 A 
ATOM     10  S   UNL     1       3.591   2.355  20.237  0.00  0.00    +0.000 S 
ATOM     11  C   UNL     1       3.639   4.016  19.744  0.00  0.00    +0.000 A 
BRANCH  11  12
ATOM     12  C   UNL     1       4.775   4.437  18.866  0.00  0.00    +0.000 A 
ATOM     13  C   UNL     1       5.878   5.119  19.385  0.00  0.00    +0.000 A 
ATOM     14  C   UNL     1       6.869   5.660  18.546  0.00  0.00    +0.000 A 
ATOM     15  C   UNL     1       6.825   5.398  17.179  0.00  0.00    +0.000 A 
ATOM     16  C   UNL     1       5.794   4.644  16.655  0.00  0.00    +0.000 A 
ATOM     17 BR   UNL     1       5.766   4.237  14.814  0.00  0.00    +0.000 Br
ATOM     18  C   UNL     1       4.751   4.184  17.483  0.00  0.00    +0.000 A 
ENDBRANCH  11  12
ENDBRANCH   3   7
BRANCH   1  20
ATOM     19  C   UNL     1       3.746   7.921  16.682  0.00  0.00    +0.000 C 
ATOM     20  O   UNL     1       2.669   8.591  17.346  0.00  0.00    +0.000 OA
ENDBRANCH   1  20
BRANCH   5  21
ATOM     21  O   UNL     1       0.115   8.612  21.543  0.00  0.00    +0.000 OA
ATOM     22  C   UNL     1       0.521   9.390  22.654  0.00  0.00    +0.000 C 
ENDBRANCH   5  21
BRANCH   6  23
ATOM     23  O   UNL     1       0.892  10.014  19.173  0.00  0.00    +0.000 OA
ATOM     24  C   UNL     1      -0.284  10.184  18.412  0.00  0.00    +0.000 C 
ENDBRANCH   6  23
TORSDOF 5
ENDMDL
MODEL 9
REMARK VINA RESULT:      -6.3      3.136      5.620
REMARK  Name = 
REMARK  8 active torsions:
REMARK  status: ('A' for Active; 'I' for Inactive)
REMARK    1  A    between atoms: C_1  and  O_2
REMARK    2  A    between atoms: O_2  and  C_3
REMARK    3  A    between atoms: C_5  and  C_6
REMARK    4  A    between atoms: C_10  and  C_11
REMARK    5  A    between atoms: C_19  and  O_20
REMARK    6  A    between atoms: O_20  and  C_21
REMARK    7  A    between atoms: C_22  and  O_23
REMARK    8  A    between atoms: O_23  and  C_24
REMARK                            x       y       z     vdW  Elec       q    Type
REMARK                         _______ _______ _______ _____ _____    ______ ____
ROOT
ATOM      1  C   UNL     1       2.002   8.339  18.488  0.00  0.00    +0.000 A 
ATOM      2  C   UNL     1       2.415   6.992  18.437  0.00  0.00    +0.000 A 
ATOM      3  C   UNL     1       2.171   6.118  19.496  0.00  0.00    +0.000 A 
ATOM      4  C   UNL     1       1.703   6.662  20.688  0.00  0.00    +0.000 A 
ATOM      5  C   UNL     1       1.285   7.998  20.771  0.00  0.00    +0.000 A 
ATOM      6  C   UNL     1       1.445   8.868  19.671  0.00  0.00    +0.000 A 
ENDROOT
BRANCH   3   7
ATOM      7  C   UNL     1       2.273   4.660  19.283  0.00  0.00    +0.000 A 
ATOM      8  C   UNL     1       1.271   3.703  19.692  0.00  0.00    +0.000 A 
ATOM      9  C   UNL     1       1.622   2.403  19.427  0.00  0.00    +0.000 A 
ATOM     10  S   UNL     1       3.167   2.298  18.733  0.00  0.00    +0.000 S 
ATOM     11  C   UNL     1       3.417   4.011  18.784  0.00  0.00    +0.000 A 
BRANCH  11  12
ATOM     12  C   UNL     1       4.748   4.523  18.331  0.00  0.00    +0.000 A 
ATOM     13  C   UNL     1       5.639   5.118  19.228  0.00  0.00    +0.000 A 
ATOM     14  C   UNL     1       6.818   5.746  18.784  0.00  0.00    +0.000 A 
ATOM     15  C   UNL     1       7.175   5.659  17.441  0.00  0.00    +0.000 A 
ATOM     16  C   UNL     1       6.355   4.993  16.553  0.00  0.00    +0.000 A 
ATOM     17 BR   UNL     1       6.868   4.822  14.746  0.00  0.00    +0.000 Br
ATOM     18  C   UNL     1       5.129   4.447  16.980  0.00  0.00    +0.000 A 
ENDBRANCH  11  12
ENDBRANCH   3   7
BRANCH   1  20
ATOM     19  C   UNL     1       2.642  10.443  17.590  0.00  0.00    +0.000 C 
ATOM     20  O   UNL     1       2.117   9.129  17.368  0.00  0.00    +0.000 OA
ENDBRANCH   1  20
BRANCH   5  21
ATOM     21  O   UNL     1       0.659   8.236  21.974  0.00  0.00    +0.000 OA
ATOM     22  C   UNL     1       1.116   9.275  22.822  0.00  0.00    +0.000 C 
ENDBRANCH   5  21
BRANCH   6  23
ATOM     23  O   UNL     1       1.001  10.143  19.868  0.00  0.00    +0.000 OA
ATOM     24  C   UNL     1      -0.329  10.529  19.601  0.00  0.00    +0.000 C 
ENDBRANCH   6  23
TORSDOF 5
ENDMDL
