MODEL 1
REMARK VINA RESULT:      -7.5      0.000      0.000
REMARK  Name = 
REMARK  7 active torsions:
REMARK  status: ('A' for Active; 'I' for Inactive)
REMARK    1  A    between atoms: C_1  and  O_2
REMARK    2  A    between atoms: O_2  and  C_3
REMARK    3  A    between atoms: C_6  and  N_7
REMARK    4  A    between atoms: N_10  and  C_11
REMARK    5  A    between atoms: C_11  and  C_12
REMARK    6  A    between atoms: C_14  and  O_15
REMARK    7  A    between atoms: C_17  and  C_18
REMARK                            x       y       z     vdW  Elec       q    Type
REMARK                         _______ _______ _______ _____ _____    ______ ____
ROOT
ATOM      1  C   UNL     1       1.759   7.329  20.244  0.00  0.00    +0.000 A 
ATOM      2  N   UNL     1       2.461   7.813  19.206  0.00  0.00    +0.000 NA
ATOM      3  C   UNL     1       3.273   6.976  18.560  0.00  0.00    +0.000 A 
ATOM      4  C   UNL     1       3.419   5.637  18.919  0.00  0.00    +0.000 A 
ATOM      5  C   UNL     1       4.124   4.490  18.392  0.00  0.00    +0.000 A 
ATOM      6  C   UNL     1       3.819   3.337  19.093  0.00  0.00    +0.000 A 
ATOM      7  S   UNL     1       2.772   3.625  20.411  0.00  0.00    +0.000 S 
ATOM      8  C   UNL     1       2.640   5.273  20.008  0.00  0.00    +0.000 A 
ATOM      9  N   UNL     1       1.811   6.067  20.708  0.00  0.00    +0.000 NA
ENDROOT
BRANCH   5  10
ATOM     10  C   UNL     1       5.036   4.463  17.194  0.00  0.00    +0.000 A 
ATOM     11  C   UNL     1       4.661   4.102  15.916  0.00  0.00    +0.000 A 
ATOM     12  C   UNL     1       5.764   4.037  15.017  0.00  0.00    +0.000 A 
ATOM     13  C   UNL     1       6.941   4.407  15.626  0.00  0.00    +0.000 A 
ATOM     14  S   UNL     1       6.697   4.885  17.249  0.00  0.00    +0.000 S 
ENDBRANCH   5  10
BRANCH   3  15
ATOM     15  O   UNL     1       3.859   7.555  17.475  0.00  0.00    +0.000 OA
ATOM     16  H   UNL     1       4.797   7.384  17.674  0.00  0.00    +0.000 HD
ENDBRANCH   3  15
BRANCH   1  17
ATOM     17  C   UNL     1       0.750   8.269  20.888  0.00  0.00    +0.000 C 
BRANCH  17  21
ATOM     18  N   UNL     1      -1.087  10.979  22.308  0.00  0.00    +0.000 N 
ATOM     19  C   UNL     1      -0.485  11.071  20.971  0.00  0.00    +0.000 C 
ATOM     20  C   UNL     1       1.012  10.680  20.996  0.00  0.00    +0.000 C 
ATOM     21  N   UNL     1       1.314   9.393  21.675  0.00  0.00    +0.000 NA
ATOM     22  C   UNL     1       0.735   9.464  23.038  0.00  0.00    +0.000 C 
ATOM     23  C   UNL     1      -0.781   9.768  23.091  0.00  0.00    +0.000 C 
BRANCH  18  27
ATOM     24  C   UNL     1      -2.934  14.239  24.245  0.00  0.00    +0.000 A 
ATOM     25  C   UNL     1      -3.595  13.023  24.115  0.00  0.00    +0.000 A 
ATOM     26  C   UNL     1      -2.974  11.947  23.474  0.00  0.00    +0.000 A 
ATOM     27  C   UNL     1      -1.686  12.057  22.929  0.00  0.00    +0.000 A 
ATOM     28  C   UNL     1      -1.054  13.301  23.043  0.00  0.00    +0.000 A 
ATOM     29  C   UNL     1      -1.665  14.381  23.691  0.00  0.00    +0.000 A 
BRANCH  24  31
ATOM     30  C   UNL     1      -4.659  15.838  24.135  0.00  0.00    +0.000 C 
ATOM     31  O   UNL     1      -3.627  15.220  24.894  0.00  0.00    +0.000 OA
ENDBRANCH  24  31
ENDBRANCH  18  27
ENDBRANCH  17  21
ENDBRANCH   1  17
TORSDOF 6
ENDMDL
MODEL 2
REMARK VINA RESULT:      -7.0      0.830      1.312
REMARK  Name = 
REMARK  7 active torsions:
REMARK  status: ('A' for Active; 'I' for Inactive)
REMARK    1  A    between atoms: C_1  and  O_2
REMARK    2  A    between atoms: O_2  and  C_3
REMARK    3  A    between atoms: C_6  and  N_7
REMARK    4  A    between atoms: N_10  and  C_11
REMARK    5  A    between atoms: C_11  and  C_12
REMARK    6  A    between atoms: C_14  and  O_15
REMARK    7  A    between atoms: C_17  and  C_18
REMARK                            x       y       z     vdW  Elec       q    Type
REMARK                         _______ _______ _______ _____ _____    ______ ____
ROOT
ATOM      1  C   UNL     1       1.572   7.782  20.284  0.00  0.00    +0.000 A 
ATOM      2  N   UNL     1       2.345   8.075  19.226  0.00  0.00    +0.000 NA
ATOM      3  C   UNL     1       3.133   7.113  18.745  0.00  0.00    +0.000 A 
ATOM      4  C   UNL     1       3.182   5.833  19.294  0.00  0.00    +0.000 A 
ATOM      5  C   UNL     1       3.839   4.586  18.968  0.00  0.00    +0.000 A 
ATOM      6  C   UNL     1       3.437   3.563  19.806  0.00  0.00    +0.000 A 
ATOM      7  S   UNL     1       2.353   4.091  21.016  0.00  0.00    +0.000 S 
ATOM      8  C   UNL     1       2.337   5.670  20.382  0.00  0.00    +0.000 A 
ATOM      9  N   UNL     1       1.528   6.598  20.921  0.00  0.00    +0.000 NA
ENDROOT
BRANCH   5  10
ATOM     10  C   UNL     1       4.799   4.341  17.833  0.00  0.00    +0.000 A 
ATOM     11  C   UNL     1       6.151   4.611  17.863  0.00  0.00    +0.000 A 
ATOM     12  C   UNL     1       6.780   4.407  16.601  0.00  0.00    +0.000 A 
ATOM     13  C   UNL     1       5.895   3.932  15.660  0.00  0.00    +0.000 A 
ATOM     14  S   UNL     1       4.338   3.680  16.319  0.00  0.00    +0.000 S 
ENDBRANCH   5  10
BRANCH   3  15
ATOM     15  O   UNL     1       3.798   7.501  17.621  0.00  0.00    +0.000 OA
ATOM     16  H   UNL     1       3.238   7.089  16.938  0.00  0.00    +0.000 HD
ENDBRANCH   3  15
BRANCH   1  17
ATOM     17  C   UNL     1       0.594   8.856  20.739  0.00  0.00    +0.000 C 
BRANCH  17  21
ATOM     18  N   UNL     1      -1.288  11.403  22.385  0.00  0.00    +0.000 N 
ATOM     19  C   UNL     1      -0.611  11.649  21.105  0.00  0.00    +0.000 C 
ATOM     20  C   UNL     1       0.878  11.230  21.161  0.00  0.00    +0.000 C 
ATOM     21  N   UNL     1       1.127   9.863  21.689  0.00  0.00    +0.000 NA
ATOM     22  C   UNL     1       0.474   9.775  23.018  0.00  0.00    +0.000 C 
ATOM     23  C   UNL     1      -1.039  10.099  23.026  0.00  0.00    +0.000 C 
BRANCH  18  27
ATOM     24  C   UNL     1      -3.163  14.503  24.543  0.00  0.00    +0.000 A 
ATOM     25  C   UNL     1      -1.864  14.651  24.072  0.00  0.00    +0.000 A 
ATOM     26  C   UNL     1      -1.251  13.620  23.354  0.00  0.00    +0.000 A 
ATOM     27  C   UNL     1      -1.908  12.406  23.103  0.00  0.00    +0.000 A 
ATOM     28  C   UNL     1      -3.203  12.269  23.616  0.00  0.00    +0.000 A 
ATOM     29  C   UNL     1      -3.828  13.300  24.327  0.00  0.00    +0.000 A 
BRANCH  24  31
ATOM     30  C   UNL     1      -3.541  16.828  24.562  0.00  0.00    +0.000 C 
ATOM     31  O   UNL     1      -3.669  15.574  25.223  0.00  0.00    +0.000 OA
ENDBRANCH  24  31
ENDBRANCH  18  27
ENDBRANCH  17  21
ENDBRANCH   1  17
TORSDOF 6
ENDMDL
MODEL 3
REMARK VINA RESULT:      -6.9      3.341     11.111
REMARK  Name = 
REMARK  7 active torsions:
REMARK  status: ('A' for Active; 'I' for Inactive)
REMARK    1  A    between atoms: C_1  and  O_2
REMARK    2  A    between atoms: O_2  and  C_3
REMARK    3  A    between atoms: C_6  and  N_7
REMARK    4  A    between atoms: N_10  and  C_11
REMARK    5  A    between atoms: C_11  and  C_12
REMARK    6  A    between atoms: C_14  and  O_15
REMARK    7  A    between atoms: C_17  and  C_18
REMARK                            x       y       z     vdW  Elec       q    Type
REMARK                         _______ _______ _______ _____ _____    ______ ____
ROOT
ATOM      1  C   UNL     1       1.244   8.934  20.871  0.00  0.00    +0.000 A 
ATOM      2  N   UNL     1       0.932   9.129  22.163  0.00  0.00    +0.000 NA
ATOM      3  C   UNL     1       0.108  10.135  22.459  0.00  0.00    +0.000 A 
ATOM      4  C   UNL     1      -0.432  10.979  21.490  0.00  0.00    +0.000 A 
ATOM      5  C   UNL     1      -1.386  12.065  21.473  0.00  0.00    +0.000 A 
ATOM      6  C   UNL     1      -1.656  12.487  20.184  0.00  0.00    +0.000 A 
ATOM      7  S   UNL     1      -0.728  11.659  19.013  0.00  0.00    +0.000 S 
ATOM      8  C   UNL     1      -0.024  10.666  20.201  0.00  0.00    +0.000 A 
ATOM      9  N   UNL     1       0.809   9.676  19.837  0.00  0.00    +0.000 NA
ENDROOT
BRANCH   5  10
ATOM     10  C   UNL     1      -2.090  12.668  22.660  0.00  0.00    +0.000 A 
ATOM     11  C   UNL     1      -3.223  12.156  23.256  0.00  0.00    +0.000 A 
ATOM     12  C   UNL     1      -3.745  13.011  24.270  0.00  0.00    +0.000 A 
ATOM     13  C   UNL     1      -2.957  14.124  24.453  0.00  0.00    +0.000 A 
ATOM     14  S   UNL     1      -1.573  14.099  23.452  0.00  0.00    +0.000 S 
ENDBRANCH   5  10
BRANCH   3  15
ATOM     15  O   UNL     1      -0.204  10.176  23.784  0.00  0.00    +0.000 OA
ATOM     16  H   UNL     1      -0.825   9.428  23.839  0.00  0.00    +0.000 HD
ENDBRANCH   3  15
BRANCH   1  17
ATOM     17  C   UNL     1       2.086   7.709  20.546  0.00  0.00    +0.000 C 
BRANCH  17  21
ATOM     18  N   UNL     1       4.071   6.213  17.985  0.00  0.00    +0.000 N 
ATOM     19  C   UNL     1       3.433   7.524  17.801  0.00  0.00    +0.000 C 
ATOM     20  C   UNL     1       1.923   7.472  18.135  0.00  0.00    +0.000 C 
ATOM     21  N   UNL     1       1.590   6.849  19.443  0.00  0.00    +0.000 NA
ATOM     22  C   UNL     1       2.211   5.503  19.465  0.00  0.00    +0.000 C 
ATOM     23  C   UNL     1       3.739   5.482  19.222  0.00  0.00    +0.000 C 
BRANCH  18  27
ATOM     24  C   UNL     1       6.118   4.250  14.863  0.00  0.00    +0.000 A 
ATOM     25  C   UNL     1       5.834   5.609  14.782  0.00  0.00    +0.000 A 
ATOM     26  C   UNL     1       5.158   6.252  15.823  0.00  0.00    +0.000 A 
ATOM     27  C   UNL     1       4.730   5.557  16.964  0.00  0.00    +0.000 A 
ATOM     28  C   UNL     1       4.998   4.184  17.007  0.00  0.00    +0.000 A 
ATOM     29  C   UNL     1       5.683   3.533  15.973  0.00  0.00    +0.000 A 
BRANCH  24  31
ATOM     30  C   UNL     1       5.999   3.495  12.635  0.00  0.00    +0.000 C 
ATOM     31  O   UNL     1       6.790   3.724  13.796  0.00  0.00    +0.000 OA
ENDBRANCH  24  31
ENDBRANCH  18  27
ENDBRANCH  17  21
ENDBRANCH   1  17
TORSDOF 6
ENDMDL
MODEL 4
REMARK VINA RESULT:      -6.9      3.949     11.247
REMARK  Name = 
REMARK  7 active torsions:
REMARK  status: ('A' for Active; 'I' for Inactive)
REMARK    1  A    between atoms: C_1  and  O_2
REMARK    2  A    between atoms: O_2  and  C_3
REMARK    3  A    between atoms: C_6  and  N_7
REMARK    4  A    between atoms: N_10  and  C_11
REMARK    5  A    between atoms: C_11  and  C_12
REMARK    6  A    between atoms: C_14  and  O_15
REMARK    7  A    between atoms: C_17  and  C_18
REMARK                            x       y       z     vdW  Elec       q    Type
REMARK                         _______ _______ _______ _____ _____    ______ ____
ROOT
ATOM      1  C   UNL     1      -0.293  12.426  21.545  0.00  0.00    +0.000 A 
ATOM      2  N   UNL     1       0.345  13.561  21.876  0.00  0.00    +0.000 NA
ATOM      3  C   UNL     1      -0.245  14.374  22.752  0.00  0.00    +0.000 A 
ATOM      4  C   UNL     1      -1.483  14.093  23.327  0.00  0.00    +0.000 A 
ATOM      5  C   UNL     1      -2.323  14.701  24.336  0.00  0.00    +0.000 A 
ATOM      6  C   UNL     1      -3.429  13.920  24.617  0.00  0.00    +0.000 A 
ATOM      7  S   UNL     1      -3.513  12.521  23.641  0.00  0.00    +0.000 S 
ATOM      8  C   UNL     1      -2.030  12.893  22.895  0.00  0.00    +0.000 A 
ATOM      9  N   UNL     1      -1.493  12.035  22.010  0.00  0.00    +0.000 NA
ENDROOT
BRANCH   5  10
ATOM     10  C   UNL     1      -2.058  15.984  25.078  0.00  0.00    +0.000 A 
ATOM     11  C   UNL     1      -2.724  17.174  24.872  0.00  0.00    +0.000 A 
ATOM     12  C   UNL     1      -2.167  18.252  25.619  0.00  0.00    +0.000 A 
ATOM     13  C   UNL     1      -1.127  17.836  26.418  0.00  0.00    +0.000 A 
ATOM     14  S   UNL     1      -0.873  16.149  26.306  0.00  0.00    +0.000 S 
ENDBRANCH   5  10
BRANCH   3  15
ATOM     15  O   UNL     1       0.535  15.442  23.076  0.00  0.00    +0.000 OA
ATOM     16  H   UNL     1      -0.105  16.166  22.956  0.00  0.00    +0.000 HD
ENDBRANCH   3  15
BRANCH   1  17
ATOM     17  C   UNL     1       0.454  11.457  20.639  0.00  0.00    +0.000 C 
BRANCH  17  21
ATOM     18  N   UNL     1       1.857   8.315  19.694  0.00  0.00    +0.000 N 
ATOM     19  C   UNL     1       1.568   9.361  18.703  0.00  0.00    +0.000 C 
ATOM     20  C   UNL     1       0.114   9.875  18.829  0.00  0.00    +0.000 C 
ATOM     21  N   UNL     1      -0.301  10.256  20.204  0.00  0.00    +0.000 NA
ATOM     22  C   UNL     1      -0.045   9.090  21.084  0.00  0.00    +0.000 C 
ATOM     23  C   UNL     1       1.413   8.571  21.076  0.00  0.00    +0.000 C 
BRANCH  18  27
ATOM     24  C   UNL     1       3.084   4.425  18.621  0.00  0.00    +0.000 A 
ATOM     25  C   UNL     1       2.444   4.659  19.832  0.00  0.00    +0.000 A 
ATOM     26  C   UNL     1       2.037   5.951  20.178  0.00  0.00    +0.000 A 
ATOM     27  C   UNL     1       2.274   7.048  19.337  0.00  0.00    +0.000 A 
ATOM     28  C   UNL     1       2.950   6.793  18.138  0.00  0.00    +0.000 A 
ATOM     29  C   UNL     1       3.352   5.500  17.779  0.00  0.00    +0.000 A 
BRANCH  24  31
ATOM     30  C   UNL     1       2.339   2.237  18.172  0.00  0.00    +0.000 C 
ATOM     31  O   UNL     1       3.430   3.126  18.378  0.00  0.00    +0.000 OA
ENDBRANCH  24  31
ENDBRANCH  18  27
ENDBRANCH  17  21
ENDBRANCH   1  17
TORSDOF 6
ENDMDL
MODEL 5
REMARK VINA RESULT:      -6.8      4.121     11.348
REMARK  Name = 
REMARK  7 active torsions:
REMARK  status: ('A' for Active; 'I' for Inactive)
REMARK    1  A    between atoms: C_1  and  O_2
REMARK    2  A    between atoms: O_2  and  C_3
REMARK    3  A    between atoms: C_6  and  N_7
REMARK    4  A    between atoms: N_10  and  C_11
REMARK    5  A    between atoms: C_11  and  C_12
REMARK    6  A    between atoms: C_14  and  O_15
REMARK    7  A    between atoms: C_17  and  C_18
REMARK                            x       y       z     vdW  Elec       q    Type
REMARK                         _______ _______ _______ _____ _____    ______ ____
ROOT
ATOM      1  C   UNL     1      -0.248  12.343  21.706  0.00  0.00    +0.000 A 
ATOM      2  N   UNL     1       0.372  13.510  21.947  0.00  0.00    +0.000 NA
ATOM      3  C   UNL     1      -0.240  14.387  22.744  0.00  0.00    +0.000 A 
ATOM      4  C   UNL     1      -1.482  14.140  23.325  0.00  0.00    +0.000 A 
ATOM      5  C   UNL     1      -2.342  14.820  24.268  0.00  0.00    +0.000 A 
ATOM      6  C   UNL     1      -3.443  14.052  24.601  0.00  0.00    +0.000 A 
ATOM      7  S   UNL     1      -3.497  12.574  23.746  0.00  0.00    +0.000 S 
ATOM      8  C   UNL     1      -2.008  12.901  22.990  0.00  0.00    +0.000 A 
ATOM      9  N   UNL     1      -1.450  11.978  22.187  0.00  0.00    +0.000 NA
ENDROOT
BRANCH   5  10
ATOM     10  C   UNL     1      -2.102  16.165  24.902  0.00  0.00    +0.000 A 
ATOM     11  C   UNL     1      -1.191  16.420  25.906  0.00  0.00    +0.000 A 
ATOM     12  C   UNL     1      -1.281  17.751  26.404  0.00  0.00    +0.000 A 
ATOM     13  C   UNL     1      -2.222  18.489  25.724  0.00  0.00    +0.000 A 
ATOM     14  S   UNL     1      -2.940  17.594  24.458  0.00  0.00    +0.000 S 
ENDBRANCH   5  10
BRANCH   3  15
ATOM     15  O   UNL     1       0.524  15.489  22.986  0.00  0.00    +0.000 OA
ATOM     16  H   UNL     1       0.424  15.560  23.952  0.00  0.00    +0.000 HD
ENDBRANCH   3  15
BRANCH   1  17
ATOM     17  C   UNL     1       0.522  11.311  20.895  0.00  0.00    +0.000 C 
BRANCH  17  21
ATOM     18  N   UNL     1       1.839   8.157  19.870  0.00  0.00    +0.000 N 
ATOM     19  C   UNL     1       1.614   9.248  18.911  0.00  0.00    +0.000 C 
ATOM     20  C   UNL     1       0.176   9.809  19.019  0.00  0.00    +0.000 C 
ATOM     21  N   UNL     1      -0.262  10.155  20.397  0.00  0.00    +0.000 NA
ATOM     22  C   UNL     1      -0.071   8.949  21.239  0.00  0.00    +0.000 C 
ATOM     23  C   UNL     1       1.366   8.378  21.248  0.00  0.00    +0.000 C 
BRANCH  18  27
ATOM     24  C   UNL     1       3.050   4.305  18.651  0.00  0.00    +0.000 A 
ATOM     25  C   UNL     1       3.228   5.402  17.816  0.00  0.00    +0.000 A 
ATOM     26  C   UNL     1       2.827   6.676  18.230  0.00  0.00    +0.000 A 
ATOM     27  C   UNL     1       2.221   6.890  19.477  0.00  0.00    +0.000 A 
ATOM     28  C   UNL     1       2.022   5.764  20.285  0.00  0.00    +0.000 A 
ATOM     29  C   UNL     1       2.429   4.486  19.883  0.00  0.00    +0.000 A 
BRANCH  24  31
ATOM     30  C   UNL     1       2.458   2.179  17.828  0.00  0.00    +0.000 C 
ATOM     31  O   UNL     1       3.484   3.110  18.153  0.00  0.00    +0.000 OA
ENDBRANCH  24  31
ENDBRANCH  18  27
ENDBRANCH  17  21
ENDBRANCH   1  17
TORSDOF 6
ENDMDL
MODEL 6
REMARK VINA RESULT:      -6.8      1.196      1.321
REMARK  Name = 
REMARK  7 active torsions:
REMARK  status: ('A' for Active; 'I' for Inactive)
REMARK    1  A    between atoms: C_1  and  O_2
REMARK    2  A    between atoms: O_2  and  C_3
REMARK    3  A    between atoms: C_6  and  N_7
REMARK    4  A    between atoms: N_10  and  C_11
REMARK    5  A    between atoms: C_11  and  C_12
REMARK    6  A    between atoms: C_14  and  O_15
REMARK    7  A    between atoms: C_17  and  C_18
REMARK                            x       y       z     vdW  Elec       q    Type
REMARK                         _______ _______ _______ _____ _____    ______ ____
ROOT
ATOM      1  C   UNL     1       2.091   6.689  19.936  0.00  0.00    +0.000 A 
ATOM      2  N   UNL     1       2.792   7.322  18.980  0.00  0.00    +0.000 NA
ATOM      3  C   UNL     1       3.562   6.584  18.182  0.00  0.00    +0.000 A 
ATOM      4  C   UNL     1       3.667   5.199  18.302  0.00  0.00    +0.000 A 
ATOM      5  C   UNL     1       4.321   4.138  17.569  0.00  0.00    +0.000 A 
ATOM      6  C   UNL     1       3.989   2.892  18.068  0.00  0.00    +0.000 A 
ATOM      7  S   UNL     1       2.975   2.982  19.440  0.00  0.00    +0.000 S 
ATOM      8  C   UNL     1       2.894   4.678  19.330  0.00  0.00    +0.000 A 
ATOM      9  N   UNL     1       2.106   5.365  20.174  0.00  0.00    +0.000 NA
ENDROOT
BRANCH   5  10
ATOM     10  C   UNL     1       5.211   4.290  16.363  0.00  0.00    +0.000 A 
ATOM     11  C   UNL     1       4.811   4.124  15.054  0.00  0.00    +0.000 A 
ATOM     12  C   UNL     1       5.898   4.193  14.134  0.00  0.00    +0.000 A 
ATOM     13  C   UNL     1       7.087   4.468  14.769  0.00  0.00    +0.000 A 
ATOM     14  S   UNL     1       6.875   4.698  16.450  0.00  0.00    +0.000 S 
ENDBRANCH   5  10
BRANCH   3  15
ATOM     15  O   UNL     1       4.149   7.323  17.200  0.00  0.00    +0.000 OA
ATOM     16  H   UNL     1       3.603   8.128  17.240  0.00  0.00    +0.000 HD
ENDBRANCH   3  15
BRANCH   1  17
ATOM     17  C   UNL     1       1.127   7.535  20.755  0.00  0.00    +0.000 C 
BRANCH  17  21
ATOM     18  N   UNL     1      -0.874  10.409  21.444  0.00  0.00    +0.000 N 
ATOM     19  C   UNL     1      -0.308  10.164  20.110  0.00  0.00    +0.000 C 
ATOM     20  C   UNL     1       1.214   9.892  20.181  0.00  0.00    +0.000 C 
ATOM     21  N   UNL     1       1.624   8.868  21.176  0.00  0.00    +0.000 NA
ATOM     22  C   UNL     1       1.071   9.278  22.490  0.00  0.00    +0.000 C 
ATOM     23  C   UNL     1      -0.462   9.487  22.518  0.00  0.00    +0.000 C 
BRANCH  18  27
ATOM     24  C   UNL     1      -2.937  13.962  22.397  0.00  0.00    +0.000 A 
ATOM     25  C   UNL     1      -2.804  13.551  21.076  0.00  0.00    +0.000 A 
ATOM     26  C   UNL     1      -2.122  12.370  20.769  0.00  0.00    +0.000 A 
ATOM     27  C   UNL     1      -1.536  11.576  21.767  0.00  0.00    +0.000 A 
ATOM     28  C   UNL     1      -1.655  12.029  23.086  0.00  0.00    +0.000 A 
ATOM     29  C   UNL     1      -2.345  13.206  23.403  0.00  0.00    +0.000 A 
BRANCH  24  31
ATOM     30  C   UNL     1      -4.961  14.967  23.059  0.00  0.00    +0.000 C 
ATOM     31  O   UNL     1      -3.629  15.125  22.585  0.00  0.00    +0.000 OA
ENDBRANCH  24  31
ENDBRANCH  18  27
ENDBRANCH  17  21
ENDBRANCH   1  17
TORSDOF 6
ENDMDL
MODEL 7
REMARK VINA RESULT:      -6.8      1.205      1.626
REMARK  Name = 
REMARK  7 active torsions:
REMARK  status: ('A' for Active; 'I' for Inactive)
REMARK    1  A    between atoms: C_1  and  O_2
REMARK    2  A    between atoms: O_2  and  C_3
REMARK    3  A    between atoms: C_6  and  N_7
REMARK    4  A    between atoms: N_10  and  C_11
REMARK    5  A    between atoms: C_11  and  C_12
REMARK    6  A    between atoms: C_14  and  O_15
REMARK    7  A    between atoms: C_17  and  C_18
REMARK                            x       y       z     vdW  Elec       q    Type
REMARK                         _______ _______ _______ _____ _____    ______ ____
ROOT
ATOM      1  C   UNL     1       1.542   8.586  19.060  0.00  0.00    +0.000 A 
ATOM      2  N   UNL     1       2.339   8.697  17.985  0.00  0.00    +0.000 NA
ATOM      3  C   UNL     1       3.193   7.702  17.738  0.00  0.00    +0.000 A 
ATOM      4  C   UNL     1       3.286   6.570  18.545  0.00  0.00    +0.000 A 
ATOM      5  C   UNL     1       4.018   5.323  18.506  0.00  0.00    +0.000 A 
ATOM      6  C   UNL     1       3.637   4.476  19.530  0.00  0.00    +0.000 A 
ATOM      7  S   UNL     1       2.482   5.181  20.573  0.00  0.00    +0.000 S 
ATOM      8  C   UNL     1       2.410   6.589  19.620  0.00  0.00    +0.000 A 
ATOM      9  N   UNL     1       1.534   7.560  19.931  0.00  0.00    +0.000 NA
ENDROOT
BRANCH   5  10
ATOM     10  C   UNL     1       5.032   4.903  17.475  0.00  0.00    +0.000 A 
ATOM     11  C   UNL     1       4.752   4.180  16.334  0.00  0.00    +0.000 A 
ATOM     12  C   UNL     1       5.926   3.809  15.617  0.00  0.00    +0.000 A 
ATOM     13  C   UNL     1       7.063   4.312  16.205  0.00  0.00    +0.000 A 
ATOM     14  S   UNL     1       6.704   5.271  17.573  0.00  0.00    +0.000 S 
ENDBRANCH   5  10
BRANCH   3  15
ATOM     15  O   UNL     1       3.879   7.885  16.576  0.00  0.00    +0.000 OA
ATOM     16  H   UNL     1       3.727   8.836  16.433  0.00  0.00    +0.000 HD
ENDBRANCH   3  15
BRANCH   1  17
ATOM     17  C   UNL     1       0.494   9.673  19.253  0.00  0.00    +0.000 C 
BRANCH  17  21
ATOM     18  N   UNL     1      -1.196  11.725  21.634  0.00  0.00    +0.000 N 
ATOM     19  C   UNL     1      -1.354  11.930  20.188  0.00  0.00    +0.000 C 
ATOM     20  C   UNL     1       0.016  12.043  19.478  0.00  0.00    +0.000 C 
ATOM     21  N   UNL     1       0.983  10.961  19.802  0.00  0.00    +0.000 NA
ATOM     22  C   UNL     1       1.123  10.919  21.278  0.00  0.00    +0.000 C 
ATOM     23  C   UNL     1      -0.200  10.723  22.056  0.00  0.00    +0.000 C 
BRANCH  18  27
ATOM     24  C   UNL     1      -2.816  14.398  24.465  0.00  0.00    +0.000 A 
ATOM     25  C   UNL     1      -1.551  14.611  23.931  0.00  0.00    +0.000 A 
ATOM     26  C   UNL     1      -1.023  13.722  22.990  0.00  0.00    +0.000 A 
ATOM     27  C   UNL     1      -1.732  12.586  22.570  0.00  0.00    +0.000 A 
ATOM     28  C   UNL     1      -2.990  12.376  23.147  0.00  0.00    +0.000 A 
ATOM     29  C   UNL     1      -3.530  13.267  24.083  0.00  0.00    +0.000 A 
BRANCH  24  31
ATOM     30  C   UNL     1      -2.249  16.265  25.784  0.00  0.00    +0.000 C 
ATOM     31  O   UNL     1      -3.239  15.332  25.368  0.00  0.00    +0.000 OA
ENDBRANCH  24  31
ENDBRANCH  18  27
ENDBRANCH  17  21
ENDBRANCH   1  17
TORSDOF 6
ENDMDL
MODEL 8
REMARK VINA RESULT:      -6.7      5.105     10.623
REMARK  Name = 
REMARK  7 active torsions:
REMARK  status: ('A' for Active; 'I' for Inactive)
REMARK    1  A    between atoms: C_1  and  O_2
REMARK    2  A    between atoms: O_2  and  C_3
REMARK    3  A    between atoms: C_6  and  N_7
REMARK    4  A    between atoms: N_10  and  C_11
REMARK    5  A    between atoms: C_11  and  C_12
REMARK    6  A    between atoms: C_14  and  O_15
REMARK    7  A    between atoms: C_17  and  C_18
REMARK                            x       y       z     vdW  Elec       q    Type
REMARK                         _______ _______ _______ _____ _____    ______ ____
ROOT
ATOM      1  C   UNL     1       1.304  12.276  20.394  0.00  0.00    +0.000 A 
ATOM      2  N   UNL     1       0.397  12.623  19.466  0.00  0.00    +0.000 NA
ATOM      3  C   UNL     1       0.225  13.922  19.219  0.00  0.00    +0.000 A 
ATOM      4  C   UNL     1       0.941  14.918  19.881  0.00  0.00    +0.000 A 
ATOM      5  C   UNL     1       1.049  16.357  19.789  0.00  0.00    +0.000 A 
ATOM      6  C   UNL     1       2.028  16.850  20.633  0.00  0.00    +0.000 A 
ATOM      7  S   UNL     1       2.756  15.630  21.581  0.00  0.00    +0.000 S 
ATOM      8  C   UNL     1       1.839  14.419  20.814  0.00  0.00    +0.000 A 
ATOM      9  N   UNL     1       2.054  13.127  21.117  0.00  0.00    +0.000 NA
ENDROOT
BRANCH   5  10
ATOM     10  C   UNL     1       0.276  17.263  18.868  0.00  0.00    +0.000 A 
ATOM     11  C   UNL     1      -1.054  17.597  19.012  0.00  0.00    +0.000 A 
ATOM     12  C   UNL     1      -1.552  18.359  17.916  0.00  0.00    +0.000 A 
ATOM     13  C   UNL     1      -0.567  18.631  16.995  0.00  0.00    +0.000 A 
ATOM     14  S   UNL     1       0.952  18.022  17.486  0.00  0.00    +0.000 S 
ENDBRANCH   5  10
BRANCH   3  15
ATOM     15  O   UNL     1      -0.650  14.145  18.200  0.00  0.00    +0.000 OA
ATOM     16  H   UNL     1      -1.406  13.609  18.500  0.00  0.00    +0.000 HD
ENDBRANCH   3  15
BRANCH   1  17
ATOM     17  C   UNL     1       1.570  10.788  20.571  0.00  0.00    +0.000 C 
BRANCH  17  21
ATOM     18  N   UNL     1       2.002   7.305  19.923  0.00  0.00    +0.000 N 
ATOM     19  C   UNL     1       2.264   8.320  18.894  0.00  0.00    +0.000 C 
ATOM     20  C   UNL     1       1.066   9.285  18.732  0.00  0.00    +0.000 C 
ATOM     21  N   UNL     1       0.554   9.871  19.999  0.00  0.00    +0.000 NA
ATOM     22  C   UNL     1       0.242   8.745  20.913  0.00  0.00    +0.000 C 
ATOM     23  C   UNL     1       1.420   7.782  21.191  0.00  0.00    +0.000 C 
BRANCH  18  27
ATOM     24  C   UNL     1       2.146   3.174  19.084  0.00  0.00    +0.000 A 
ATOM     25  C   UNL     1       2.451   4.110  18.102  0.00  0.00    +0.000 A 
ATOM     26  C   UNL     1       2.405   5.477  18.390  0.00  0.00    +0.000 A 
ATOM     27  C   UNL     1       2.034   5.951  19.657  0.00  0.00    +0.000 A 
ATOM     28  C   UNL     1       1.699   4.991  20.619  0.00  0.00    +0.000 A 
ATOM     29  C   UNL     1       1.752   3.619  20.342  0.00  0.00    +0.000 A 
BRANCH  24  31
ATOM     30  C   UNL     1       3.532   1.429  18.323  0.00  0.00    +0.000 C 
ATOM     31  O   UNL     1       2.231   1.867  18.699  0.00  0.00    +0.000 OA
ENDBRANCH  24  31
ENDBRANCH  18  27
ENDBRANCH  17  21
ENDBRANCH   1  17
TORSDOF 6
ENDMDL
MODEL 9
REMARK VINA RESULT:      -6.5      4.233     11.295
REMARK  Name = 
REMARK  7 active torsions:
REMARK  status: ('A' for Active; 'I' for Inactive)
REMARK    1  A    between atoms: C_1  and  O_2
REMARK    2  A    between atoms: O_2  and  C_3
REMARK    3  A    between atoms: C_6  and  N_7
REMARK    4  A    between atoms: N_10  and  C_11
REMARK    5  A    between atoms: C_11  and  C_12
REMARK    6  A    between atoms: C_14  and  O_15
REMARK    7  A    between atoms: C_17  and  C_18
REMARK                            x       y       z     vdW  Elec       q    Type
REMARK                         _______ _______ _______ _____ _____    ______ ____
ROOT
ATOM      1  C   UNL     1       0.473  12.645  20.722  0.00  0.00    +0.000 A 
ATOM      2  N   UNL     1       0.008  12.580  21.980  0.00  0.00    +0.000 NA
ATOM      3  C   UNL     1      -0.646  13.640  22.457  0.00  0.00    +0.000 A 
ATOM      4  C   UNL     1      -0.858  14.796  21.708  0.00  0.00    +0.000 A 
ATOM      5  C   UNL     1      -1.574  16.038  21.894  0.00  0.00    +0.000 A 
ATOM      6  C   UNL     1      -1.555  16.815  20.750  0.00  0.00    +0.000 A 
ATOM      7  S   UNL     1      -0.631  16.115  19.495  0.00  0.00    +0.000 S 
ATOM      8  C   UNL     1      -0.322  14.728  20.430  0.00  0.00    +0.000 A 
ATOM      9  N   UNL     1       0.354  13.697  19.892  0.00  0.00    +0.000 NA
ENDROOT
BRANCH   5  10
ATOM     10  C   UNL     1      -2.326  16.471  23.125  0.00  0.00    +0.000 A 
ATOM     11  C   UNL     1      -1.773  17.124  24.206  0.00  0.00    +0.000 A 
ATOM     12  C   UNL     1      -2.694  17.284  25.282  0.00  0.00    +0.000 A 
ATOM     13  C   UNL     1      -3.941  16.797  24.963  0.00  0.00    +0.000 A 
ATOM     14  S   UNL     1      -4.005  16.212  23.358  0.00  0.00    +0.000 S 
ENDBRANCH   5  10
BRANCH   3  15
ATOM     15  O   UNL     1      -1.147  13.422  23.704  0.00  0.00    +0.000 OA
ATOM     16  H   UNL     1      -2.072  13.696  23.569  0.00  0.00    +0.000 HD
ENDBRANCH   3  15
BRANCH   1  17
ATOM     17  C   UNL     1       1.108  11.381  20.158  0.00  0.00    +0.000 C 
BRANCH  17  21
ATOM     18  N   UNL     1       1.925   7.935  19.718  0.00  0.00    +0.000 N 
ATOM     19  C   UNL     1       1.958   8.885  18.598  0.00  0.00    +0.000 C 
ATOM     20  C   UNL     1       0.635   9.681  18.491  0.00  0.00    +0.000 C 
ATOM     21  N   UNL     1       0.170  10.302  19.759  0.00  0.00    +0.000 NA
ATOM     22  C   UNL     1       0.092   9.228  20.777  0.00  0.00    +0.000 C 
ATOM     23  C   UNL     1       1.405   8.441  21.002  0.00  0.00    +0.000 C 
BRANCH  18  27
ATOM     24  C   UNL     1       2.435   3.778  19.218  0.00  0.00    +0.000 A 
ATOM     25  C   UNL     1       1.989   4.299  20.428  0.00  0.00    +0.000 A 
ATOM     26  C   UNL     1       1.819   5.677  20.583  0.00  0.00    +0.000 A 
ATOM     27  C   UNL     1       2.107   6.577  19.547  0.00  0.00    +0.000 A 
ATOM     28  C   UNL     1       2.586   6.031  18.350  0.00  0.00    +0.000 A 
ATOM     29  C   UNL     1       2.750   4.651  18.182  0.00  0.00    +0.000 A 
BRANCH  24  31
ATOM     30  C   UNL     1       3.208   1.908  18.014  0.00  0.00    +0.000 C 
ATOM     31  O   UNL     1       2.557   2.419  19.171  0.00  0.00    +0.000 OA
ENDBRANCH  24  31
ENDBRANCH  18  27
ENDBRANCH  17  21
ENDBRANCH   1  17
TORSDOF 6
ENDMDL
