MODEL 1
REMARK VINA RESULT:      -7.3      0.000      0.000
REMARK  Name = 
REMARK  7 active torsions:
REMARK  status: ('A' for Active; 'I' for Inactive)
REMARK    1  A    between atoms: C_1  and  C_2
REMARK    2  A    between atoms: C_2  and  N_3
REMARK    3  A    between atoms: C_12  and  C_13
REMARK    4  A    between atoms: C_16  and  O_17
REMARK    5  A    between atoms: O_17  and  C_18
REMARK    6  A    between atoms: C_20  and  O_21
REMARK    7  A    between atoms: O_21  and  C_22
REMARK                            x       y       z     vdW  Elec       q    Type
REMARK                         _______ _______ _______ _____ _____    ______ ____
ROOT
ATOM      1  N   UNL     1      -2.095  12.159  20.890  0.00  0.00    +0.000 N 
ATOM      2  C   UNL     1      -1.185  11.433  20.145  0.00  0.00    +0.000 C 
ATOM      3  O   UNL     1      -1.032  11.647  18.949  0.00  0.00    +0.000 OA
ATOM      4  N   UNL     1      -0.557  10.474  20.901  0.00  0.00    +0.000 N 
ATOM      5  C   UNL     1       0.375   9.579  20.428  0.00  0.00    +0.000 A 
ATOM      6  N   UNL     1       0.697   8.484  21.076  0.00  0.00    +0.000 NA
ATOM      7  C   UNL     1       1.583   7.732  20.306  0.00  0.00    +0.000 A 
ATOM      8  C   UNL     1       2.113   6.464  20.609  0.00  0.00    +0.000 A 
ATOM      9  C   UNL     1       2.965   5.817  19.690  0.00  0.00    +0.000 A 
ATOM     10  C   UNL     1       3.303   6.384  18.450  0.00  0.00    +0.000 A 
ATOM     11  C   UNL     1       2.786   7.668  18.173  0.00  0.00    +0.000 A 
ATOM     12  C   UNL     1       1.952   8.315  19.099  0.00  0.00    +0.000 A 
ATOM     13  S   UNL     1       1.228   9.862  18.980  0.00  0.00    +0.000 S 
ATOM     14  H   UNL     1      -1.935  12.226  21.884  0.00  0.00    +0.000 HD
ATOM     15  H   UNL     1      -0.995  10.181  21.762  0.00  0.00    +0.000 HD
ENDROOT
BRANCH  10  16
ATOM     16  C   UNL     1       4.166   5.697  17.437  0.00  0.00    +0.000 A 
ATOM     17  C   UNL     1       5.197   6.434  16.808  0.00  0.00    +0.000 A 
ATOM     18  C   UNL     1       5.987   5.895  15.788  0.00  0.00    +0.000 A 
ATOM     19  C   UNL     1       5.792   4.588  15.370  0.00  0.00    +0.000 A 
ATOM     20  C   UNL     1       4.804   3.825  15.988  0.00  0.00    +0.000 A 
ATOM     21  C   UNL     1       4.002   4.354  17.021  0.00  0.00    +0.000 A 
BRANCH  19  22
ATOM     22  O   UNL     1       6.609   4.171  14.355  0.00  0.00    +0.000 OA
ATOM     23  C   UNL     1       5.972   3.688  13.177  0.00  0.00    +0.000 C 
ENDBRANCH  19  22
BRANCH  21  24
ATOM     24  O   UNL     1       2.995   3.608  17.589  0.00  0.00    +0.000 OA
ATOM     25  C   UNL     1       3.321   2.262  17.933  0.00  0.00    +0.000 C 
ENDBRANCH  21  24
ENDBRANCH  10  16
BRANCH   1  27
ATOM     26  C   UNL     1      -4.357  12.840  20.180  0.00  0.00    +0.000 C 
ATOM     27  C   UNL     1      -2.884  13.202  20.261  0.00  0.00    +0.000 C 
ENDBRANCH   1  27
TORSDOF 4
ENDMDL
MODEL 2
REMARK VINA RESULT:      -7.0      2.475      3.800
REMARK  Name = 
REMARK  7 active torsions:
REMARK  status: ('A' for Active; 'I' for Inactive)
REMARK    1  A    between atoms: C_1  and  C_2
REMARK    2  A    between atoms: C_2  and  N_3
REMARK    3  A    between atoms: C_12  and  C_13
REMARK    4  A    between atoms: C_16  and  O_17
REMARK    5  A    between atoms: O_17  and  C_18
REMARK    6  A    between atoms: C_20  and  O_21
REMARK    7  A    between atoms: O_21  and  C_22
REMARK                            x       y       z     vdW  Elec       q    Type
REMARK                         _______ _______ _______ _____ _____    ______ ____
ROOT
ATOM      1  N   UNL     1      -1.307  14.170  22.545  0.00  0.00    +0.000 N 
ATOM      2  C   UNL     1      -0.795  12.909  22.303  0.00  0.00    +0.000 C 
ATOM      3  O   UNL     1      -0.603  12.118  23.218  0.00  0.00    +0.000 OA
ATOM      4  N   UNL     1      -0.519  12.718  20.972  0.00  0.00    +0.000 N 
ATOM      5  C   UNL     1       0.026  11.575  20.434  0.00  0.00    +0.000 A 
ATOM      6  N   UNL     1       0.580  11.547  19.244  0.00  0.00    +0.000 NA
ATOM      7  C   UNL     1       1.132  10.288  19.017  0.00  0.00    +0.000 A 
ATOM      8  C   UNL     1       1.872   9.870  17.895  0.00  0.00    +0.000 A 
ATOM      9  C   UNL     1       2.403   8.564  17.848  0.00  0.00    +0.000 A 
ATOM     10  C   UNL     1       2.241   7.647  18.899  0.00  0.00    +0.000 A 
ATOM     11  C   UNL     1       1.473   8.071  20.004  0.00  0.00    +0.000 A 
ATOM     12  C   UNL     1       0.931   9.367  20.039  0.00  0.00    +0.000 A 
ATOM     13  S   UNL     1      -0.031  10.086  21.259  0.00  0.00    +0.000 S 
ATOM     14  H   UNL     1      -1.789  14.630  21.788  0.00  0.00    +0.000 HD
ATOM     15  H   UNL     1      -0.409  13.531  20.385  0.00  0.00    +0.000 HD
ENDROOT
BRANCH  10  16
ATOM     16  C   UNL     1       2.835   6.272  18.893  0.00  0.00    +0.000 A 
ATOM     17  C   UNL     1       2.197   5.250  19.634  0.00  0.00    +0.000 A 
ATOM     18  C   UNL     1       2.735   3.965  19.755  0.00  0.00    +0.000 A 
ATOM     19  C   UNL     1       3.925   3.644  19.120  0.00  0.00    +0.000 A 
ATOM     20  C   UNL     1       4.565   4.619  18.359  0.00  0.00    +0.000 A 
ATOM     21  C   UNL     1       4.032   5.918  18.225  0.00  0.00    +0.000 A 
BRANCH  19  22
ATOM     22  O   UNL     1       4.367   2.365  19.321  0.00  0.00    +0.000 OA
ATOM     23  C   UNL     1       3.733   1.341  18.561  0.00  0.00    +0.000 C 
ENDBRANCH  19  22
BRANCH  21  24
ATOM     24  O   UNL     1       4.700   6.888  17.512  0.00  0.00    +0.000 OA
ATOM     25  C   UNL     1       6.066   6.618  17.203  0.00  0.00    +0.000 C 
ENDBRANCH  21  24
ENDBRANCH  10  16
BRANCH   1  27
ATOM     26  C   UNL     1      -0.866  15.811  24.333  0.00  0.00    +0.000 C 
ATOM     27  C   UNL     1      -1.635  14.575  23.900  0.00  0.00    +0.000 C 
ENDBRANCH   1  27
TORSDOF 4
ENDMDL
MODEL 3
REMARK VINA RESULT:      -6.9      3.196      9.322
REMARK  Name = 
REMARK  7 active torsions:
REMARK  status: ('A' for Active; 'I' for Inactive)
REMARK    1  A    between atoms: C_1  and  C_2
REMARK    2  A    between atoms: C_2  and  N_3
REMARK    3  A    between atoms: C_12  and  C_13
REMARK    4  A    between atoms: C_16  and  O_17
REMARK    5  A    between atoms: O_17  and  C_18
REMARK    6  A    between atoms: C_20  and  O_21
REMARK    7  A    between atoms: O_21  and  C_22
REMARK                            x       y       z     vdW  Elec       q    Type
REMARK                         _______ _______ _______ _____ _____    ______ ____
ROOT
ATOM      1  N   UNL     1       6.173   4.418  15.293  0.00  0.00    +0.000 N 
ATOM      2  C   UNL     1       5.434   5.381  15.953  0.00  0.00    +0.000 C 
ATOM      3  O   UNL     1       5.600   6.573  15.724  0.00  0.00    +0.000 OA
ATOM      4  N   UNL     1       4.576   4.825  16.869  0.00  0.00    +0.000 N 
ATOM      5  C   UNL     1       3.737   5.534  17.697  0.00  0.00    +0.000 A 
ATOM      6  N   UNL     1       3.192   5.010  18.770  0.00  0.00    +0.000 NA
ATOM      7  C   UNL     1       2.481   5.991  19.458  0.00  0.00    +0.000 A 
ATOM      8  C   UNL     1       1.811   5.855  20.689  0.00  0.00    +0.000 A 
ATOM      9  C   UNL     1       1.177   6.972  21.273  0.00  0.00    +0.000 A 
ATOM     10  C   UNL     1       1.198   8.245  20.681  0.00  0.00    +0.000 A 
ATOM     11  C   UNL     1       1.849   8.358  19.434  0.00  0.00    +0.000 A 
ATOM     12  C   UNL     1       2.465   7.240  18.848  0.00  0.00    +0.000 A 
ATOM     13  S   UNL     1       3.294   7.143  17.353  0.00  0.00    +0.000 S 
ATOM     14  H   UNL     1       5.774   3.495  15.218  0.00  0.00    +0.000 HD
ATOM     15  H   UNL     1       4.765   3.889  17.194  0.00  0.00    +0.000 HD
ENDROOT
BRANCH  10  16
ATOM     16  C   UNL     1       0.573   9.455  21.304  0.00  0.00    +0.000 A 
ATOM     17  C   UNL     1      -0.158   9.302  22.505  0.00  0.00    +0.000 A 
ATOM     18  C   UNL     1      -0.847  10.363  23.103  0.00  0.00    +0.000 A 
ATOM     19  C   UNL     1      -0.814  11.626  22.532  0.00  0.00    +0.000 A 
ATOM     20  C   UNL     1      -0.079  11.818  21.365  0.00  0.00    +0.000 A 
ATOM     21  C   UNL     1       0.623  10.758  20.753  0.00  0.00    +0.000 A 
BRANCH  19  22
ATOM     22  O   UNL     1      -1.536  12.583  23.191  0.00  0.00    +0.000 OA
ATOM     23  C   UNL     1      -2.917  12.311  23.403  0.00  0.00    +0.000 C 
ENDBRANCH  19  22
BRANCH  21  24
ATOM     24  O   UNL     1       1.304  10.947  19.572  0.00  0.00    +0.000 OA
ATOM     25  C   UNL     1       1.513  12.301  19.172  0.00  0.00    +0.000 C 
ENDBRANCH  21  24
ENDBRANCH  10  16
BRANCH   1  27
ATOM     26  C   UNL     1       6.866   4.225  12.932  0.00  0.00    +0.000 C 
ATOM     27  C   UNL     1       7.161   4.809  14.303  0.00  0.00    +0.000 C 
ENDBRANCH   1  27
TORSDOF 4
ENDMDL
MODEL 4
REMARK VINA RESULT:      -6.9      1.958      2.723
REMARK  Name = 
REMARK  7 active torsions:
REMARK  status: ('A' for Active; 'I' for Inactive)
REMARK    1  A    between atoms: C_1  and  C_2
REMARK    2  A    between atoms: C_2  and  N_3
REMARK    3  A    between atoms: C_12  and  C_13
REMARK    4  A    between atoms: C_16  and  O_17
REMARK    5  A    between atoms: O_17  and  C_18
REMARK    6  A    between atoms: C_20  and  O_21
REMARK    7  A    between atoms: O_21  and  C_22
REMARK                            x       y       z     vdW  Elec       q    Type
REMARK                         _______ _______ _______ _____ _____    ______ ____
ROOT
ATOM      1  N   UNL     1      -4.802  12.529  18.402  0.00  0.00    +0.000 N 
ATOM      2  C   UNL     1      -3.754  11.696  18.060  0.00  0.00    +0.000 C 
ATOM      3  O   UNL     1      -3.766  11.061  17.012  0.00  0.00    +0.000 OA
ATOM      4  N   UNL     1      -2.786  11.668  19.034  0.00  0.00    +0.000 N 
ATOM      5  C   UNL     1      -1.641  10.907  18.989  0.00  0.00    +0.000 A 
ATOM      6  N   UNL     1      -0.922  10.646  20.055  0.00  0.00    +0.000 NA
ATOM      7  C   UNL     1       0.111   9.774  19.718  0.00  0.00    +0.000 A 
ATOM      8  C   UNL     1       1.060   9.199  20.584  0.00  0.00    +0.000 A 
ATOM      9  C   UNL     1       2.015   8.291  20.081  0.00  0.00    +0.000 A 
ATOM     10  C   UNL     1       2.053   7.911  18.730  0.00  0.00    +0.000 A 
ATOM     11  C   UNL     1       1.114   8.517  17.869  0.00  0.00    +0.000 A 
ATOM     12  C   UNL     1       0.175   9.433  18.372  0.00  0.00    +0.000 A 
ATOM     13  S   UNL     1      -1.037  10.290  17.520  0.00  0.00    +0.000 S 
ATOM     14  H   UNL     1      -4.606  13.287  19.037  0.00  0.00    +0.000 HD
ATOM     15  H   UNL     1      -3.038  11.961  19.966  0.00  0.00    +0.000 HD
ENDROOT
BRANCH  10  16
ATOM     16  C   UNL     1       3.026   6.913  18.181  0.00  0.00    +0.000 A 
ATOM     17  C   UNL     1       4.082   7.371  17.358  0.00  0.00    +0.000 A 
ATOM     18  C   UNL     1       4.977   6.497  16.733  0.00  0.00    +0.000 A 
ATOM     19  C   UNL     1       4.866   5.129  16.924  0.00  0.00    +0.000 A 
ATOM     20  C   UNL     1       3.855   4.646  17.752  0.00  0.00    +0.000 A 
ATOM     21  C   UNL     1       2.947   5.515  18.392  0.00  0.00    +0.000 A 
BRANCH  19  22
ATOM     22  O   UNL     1       5.783   4.369  16.252  0.00  0.00    +0.000 OA
ATOM     23  C   UNL     1       6.606   5.045  15.307  0.00  0.00    +0.000 C 
ENDBRANCH  19  22
BRANCH  21  24
ATOM     24  O   UNL     1       1.922   5.023  19.166  0.00  0.00    +0.000 OA
ATOM     25  C   UNL     1       2.270   4.600  20.484  0.00  0.00    +0.000 C 
ENDBRANCH  21  24
ENDBRANCH  10  16
BRANCH   1  27
ATOM     26  C   UNL     1      -7.222  12.135  18.127  0.00  0.00    +0.000 C 
ATOM     27  C   UNL     1      -5.940  12.671  17.512  0.00  0.00    +0.000 C 
ENDBRANCH   1  27
TORSDOF 4
ENDMDL
MODEL 5
REMARK VINA RESULT:      -6.8      2.393      3.422
REMARK  Name = 
REMARK  7 active torsions:
REMARK  status: ('A' for Active; 'I' for Inactive)
REMARK    1  A    between atoms: C_1  and  C_2
REMARK    2  A    between atoms: C_2  and  N_3
REMARK    3  A    between atoms: C_12  and  C_13
REMARK    4  A    between atoms: C_16  and  O_17
REMARK    5  A    between atoms: O_17  and  C_18
REMARK    6  A    between atoms: C_20  and  O_21
REMARK    7  A    between atoms: O_21  and  C_22
REMARK                            x       y       z     vdW  Elec       q    Type
REMARK                         _______ _______ _______ _____ _____    ______ ____
ROOT
ATOM      1  N   UNL     1      -2.189  14.239  22.806  0.00  0.00    +0.000 N 
ATOM      2  C   UNL     1      -1.360  13.173  22.513  0.00  0.00    +0.000 C 
ATOM      3  O   UNL     1      -0.502  12.802  23.305  0.00  0.00    +0.000 OA
ATOM      4  N   UNL     1      -1.609  12.661  21.264  0.00  0.00    +0.000 N 
ATOM      5  C   UNL     1      -0.924  11.619  20.685  0.00  0.00    +0.000 A 
ATOM      6  N   UNL     1      -0.955  11.381  19.395  0.00  0.00    +0.000 NA
ATOM      7  C   UNL     1      -0.087  10.332  19.094  0.00  0.00    +0.000 A 
ATOM      8  C   UNL     1       0.220   9.817  17.820  0.00  0.00    +0.000 A 
ATOM      9  C   UNL     1       1.164   8.777  17.690  0.00  0.00    +0.000 A 
ATOM     10  C   UNL     1       1.840   8.231  18.793  0.00  0.00    +0.000 A 
ATOM     11  C   UNL     1       1.501   8.739  20.065  0.00  0.00    +0.000 A 
ATOM     12  C   UNL     1       0.548   9.763  20.192  0.00  0.00    +0.000 A 
ATOM     13  S   UNL     1      -0.022  10.516  21.620  0.00  0.00    +0.000 S 
ATOM     14  H   UNL     1      -3.082  14.276  22.339  0.00  0.00    +0.000 HD
ATOM     15  H   UNL     1      -2.093  13.244  20.597  0.00  0.00    +0.000 HD
ENDROOT
BRANCH  10  16
ATOM     16  C   UNL     1       2.881   7.161  18.675  0.00  0.00    +0.000 A 
ATOM     17  C   UNL     1       3.854   7.264  17.653  0.00  0.00    +0.000 A 
ATOM     18  C   UNL     1       4.803   6.265  17.418  0.00  0.00    +0.000 A 
ATOM     19  C   UNL     1       4.831   5.128  18.211  0.00  0.00    +0.000 A 
ATOM     20  C   UNL     1       3.905   5.007  19.245  0.00  0.00    +0.000 A 
ATOM     21  C   UNL     1       2.945   6.009  19.496  0.00  0.00    +0.000 A 
BRANCH  19  22
ATOM     22  O   UNL     1       5.789   4.209  17.882  0.00  0.00    +0.000 OA
ATOM     23  C   UNL     1       6.990   4.714  17.308  0.00  0.00    +0.000 C 
ENDBRANCH  19  22
BRANCH  21  24
ATOM     24  O   UNL     1       2.003   5.855  20.488  0.00  0.00    +0.000 OA
ATOM     25  C   UNL     1       1.433   4.554  20.623  0.00  0.00    +0.000 C 
ENDBRANCH  21  24
ENDBRANCH  10  16
BRANCH   1  27
ATOM     26  C   UNL     1      -3.227  14.663  25.003  0.00  0.00    +0.000 C 
ATOM     27  C   UNL     1      -2.059  14.936  24.073  0.00  0.00    +0.000 C 
ENDBRANCH   1  27
TORSDOF 4
ENDMDL
MODEL 6
REMARK VINA RESULT:      -6.8      2.775      9.371
REMARK  Name = 
REMARK  7 active torsions:
REMARK  status: ('A' for Active; 'I' for Inactive)
REMARK    1  A    between atoms: C_1  and  C_2
REMARK    2  A    between atoms: C_2  and  N_3
REMARK    3  A    between atoms: C_12  and  C_13
REMARK    4  A    between atoms: C_16  and  O_17
REMARK    5  A    between atoms: O_17  and  C_18
REMARK    6  A    between atoms: C_20  and  O_21
REMARK    7  A    between atoms: O_21  and  C_22
REMARK                            x       y       z     vdW  Elec       q    Type
REMARK                         _______ _______ _______ _____ _____    ______ ____
ROOT
ATOM      1  N   UNL     1       6.011   4.666  16.383  0.00  0.00    +0.000 N 
ATOM      2  C   UNL     1       5.180   5.737  16.647  0.00  0.00    +0.000 C 
ATOM      3  O   UNL     1       5.232   6.760  15.976  0.00  0.00    +0.000 OA
ATOM      4  N   UNL     1       4.374   5.500  17.733  0.00  0.00    +0.000 N 
ATOM      5  C   UNL     1       3.466   6.393  18.254  0.00  0.00    +0.000 A 
ATOM      6  N   UNL     1       2.968   6.274  19.462  0.00  0.00    +0.000 NA
ATOM      7  C   UNL     1       2.162   7.375  19.745  0.00  0.00    +0.000 A 
ATOM      8  C   UNL     1       1.501   7.661  20.954  0.00  0.00    +0.000 A 
ATOM      9  C   UNL     1       0.759   8.854  21.087  0.00  0.00    +0.000 A 
ATOM     10  C   UNL     1       0.662   9.799  20.052  0.00  0.00    +0.000 A 
ATOM     11  C   UNL     1       1.306   9.484  18.837  0.00  0.00    +0.000 A 
ATOM     12  C   UNL     1       2.030   8.287  18.704  0.00  0.00    +0.000 A 
ATOM     13  S   UNL     1       2.873   7.700  17.334  0.00  0.00    +0.000 S 
ATOM     14  H   UNL     1       5.703   3.752  16.679  0.00  0.00    +0.000 HD
ATOM     15  H   UNL     1       4.649   4.781  18.385  0.00  0.00    +0.000 HD
ENDROOT
BRANCH  10  16
ATOM     16  C   UNL     1      -0.079  11.093  20.185  0.00  0.00    +0.000 A 
ATOM     17  C   UNL     1       0.411  12.070  21.084  0.00  0.00    +0.000 A 
ATOM     18  C   UNL     1      -0.269  13.266  21.333  0.00  0.00    +0.000 A 
ATOM     19  C   UNL     1      -1.459  13.543  20.677  0.00  0.00    +0.000 A 
ATOM     20  C   UNL     1      -1.954  12.615  19.764  0.00  0.00    +0.000 A 
ATOM     21  C   UNL     1      -1.277  11.407  19.499  0.00  0.00    +0.000 A 
BRANCH  19  22
ATOM     22  O   UNL     1      -2.046  14.732  21.011  0.00  0.00    +0.000 OA
ATOM     23  C   UNL     1      -3.457  14.719  21.200  0.00  0.00    +0.000 C 
ENDBRANCH  19  22
BRANCH  21  24
ATOM     24  O   UNL     1      -1.803  10.475  18.633  0.00  0.00    +0.000 OA
ATOM     25  C   UNL     1      -2.510  10.988  17.505  0.00  0.00    +0.000 C 
ENDBRANCH  21  24
ENDBRANCH  10  16
BRANCH   1  27
ATOM     26  C   UNL     1       6.406   4.149  14.002  0.00  0.00    +0.000 C 
ATOM     27  C   UNL     1       6.963   4.735  15.288  0.00  0.00    +0.000 C 
ENDBRANCH   1  27
TORSDOF 4
ENDMDL
MODEL 7
REMARK VINA RESULT:      -6.7      2.875      9.514
REMARK  Name = 
REMARK  7 active torsions:
REMARK  status: ('A' for Active; 'I' for Inactive)
REMARK    1  A    between atoms: C_1  and  C_2
REMARK    2  A    between atoms: C_2  and  N_3
REMARK    3  A    between atoms: C_12  and  C_13
REMARK    4  A    between atoms: C_16  and  O_17
REMARK    5  A    between atoms: O_17  and  C_18
REMARK    6  A    between atoms: C_20  and  O_21
REMARK    7  A    between atoms: O_21  and  C_22
REMARK                            x       y       z     vdW  Elec       q    Type
REMARK                         _______ _______ _______ _____ _____    ______ ____
ROOT
ATOM      1  N   UNL     1       5.524   4.586  16.920  0.00  0.00    +0.000 N 
ATOM      2  C   UNL     1       4.795   5.738  17.150  0.00  0.00    +0.000 C 
ATOM      3  O   UNL     1       4.993   6.754  16.496  0.00  0.00    +0.000 OA
ATOM      4  N   UNL     1       3.907   5.580  18.186  0.00  0.00    +0.000 N 
ATOM      5  C   UNL     1       3.069   6.560  18.664  0.00  0.00    +0.000 A 
ATOM      6  N   UNL     1       2.492   6.486  19.841  0.00  0.00    +0.000 NA
ATOM      7  C   UNL     1       1.791   7.664  20.091  0.00  0.00    +0.000 A 
ATOM      8  C   UNL     1       1.095   8.011  21.263  0.00  0.00    +0.000 A 
ATOM      9  C   UNL     1       0.476   9.275  21.369  0.00  0.00    +0.000 A 
ATOM     10  C   UNL     1       0.538  10.231  20.342  0.00  0.00    +0.000 A 
ATOM     11  C   UNL     1       1.215   9.858  19.162  0.00  0.00    +0.000 A 
ATOM     12  C   UNL     1       1.816   8.592  19.055  0.00  0.00    +0.000 A 
ATOM     13  S   UNL     1       2.671   7.928  17.729  0.00  0.00    +0.000 S 
ATOM     14  H   UNL     1       5.105   3.709  17.187  0.00  0.00    +0.000 HD
ATOM     15  H   UNL     1       4.067   4.832  18.843  0.00  0.00    +0.000 HD
ENDROOT
BRANCH  10  16
ATOM     16  C   UNL     1      -0.070  11.595  20.449  0.00  0.00    +0.000 A 
ATOM     17  C   UNL     1      -1.439  11.759  20.132  0.00  0.00    +0.000 A 
ATOM     18  C   UNL     1      -2.060  13.012  20.118  0.00  0.00    +0.000 A 
ATOM     19  C   UNL     1      -1.340  14.151  20.442  0.00  0.00    +0.000 A 
ATOM     20  C   UNL     1       0.004  14.023  20.787  0.00  0.00    +0.000 A 
ATOM     21  C   UNL     1       0.642  12.765  20.809  0.00  0.00    +0.000 A 
BRANCH  19  22
ATOM     22  O   UNL     1      -2.042  15.323  20.379  0.00  0.00    +0.000 OA
ATOM     23  C   UNL     1      -1.390  16.489  20.871  0.00  0.00    +0.000 C 
ENDBRANCH  19  22
BRANCH  21  24
ATOM     24  O   UNL     1       1.982  12.656  21.101  0.00  0.00    +0.000 OA
ATOM     25  C   UNL     1       2.791  13.791  20.794  0.00  0.00    +0.000 C 
ENDBRANCH  21  24
ENDBRANCH  10  16
BRANCH   1  27
ATOM     26  C   UNL     1       5.998   4.053  14.558  0.00  0.00    +0.000 C 
ATOM     27  C   UNL     1       6.539   4.562  15.882  0.00  0.00    +0.000 C 
ENDBRANCH   1  27
TORSDOF 4
ENDMDL
MODEL 8
REMARK VINA RESULT:      -6.7      1.262      2.026
REMARK  Name = 
REMARK  7 active torsions:
REMARK  status: ('A' for Active; 'I' for Inactive)
REMARK    1  A    between atoms: C_1  and  C_2
REMARK    2  A    between atoms: C_2  and  N_3
REMARK    3  A    between atoms: C_12  and  C_13
REMARK    4  A    between atoms: C_16  and  O_17
REMARK    5  A    between atoms: O_17  and  C_18
REMARK    6  A    between atoms: C_20  and  O_21
REMARK    7  A    between atoms: O_21  and  C_22
REMARK                            x       y       z     vdW  Elec       q    Type
REMARK                         _______ _______ _______ _____ _____    ______ ____
ROOT
ATOM      1  N   UNL     1      -1.884  11.824  20.965  0.00  0.00    +0.000 N 
ATOM      2  C   UNL     1      -0.994  11.151  20.150  0.00  0.00    +0.000 C 
ATOM      3  O   UNL     1      -0.940  11.378  18.948  0.00  0.00    +0.000 OA
ATOM      4  N   UNL     1      -0.261  10.225  20.851  0.00  0.00    +0.000 N 
ATOM      5  C   UNL     1       0.680   9.385  20.305  0.00  0.00    +0.000 A 
ATOM      6  N   UNL     1       1.108   8.306  20.918  0.00  0.00    +0.000 NA
ATOM      7  C   UNL     1       1.974   7.606  20.081  0.00  0.00    +0.000 A 
ATOM      8  C   UNL     1       2.593   6.368  20.335  0.00  0.00    +0.000 A 
ATOM      9  C   UNL     1       3.410   5.772  19.351  0.00  0.00    +0.000 A 
ATOM     10  C   UNL     1       3.625   6.361  18.094  0.00  0.00    +0.000 A 
ATOM     11  C   UNL     1       3.021   7.616  17.865  0.00  0.00    +0.000 A 
ATOM     12  C   UNL     1       2.222   8.213  18.855  0.00  0.00    +0.000 A 
ATOM     13  S   UNL     1       1.409   9.719  18.801  0.00  0.00    +0.000 S 
ATOM     14  H   UNL     1      -1.657  11.896  21.945  0.00  0.00    +0.000 HD
ATOM     15  H   UNL     1      -0.619   9.906  21.739  0.00  0.00    +0.000 HD
ENDROOT
BRANCH  10  16
ATOM     16  C   UNL     1       4.447   5.726  17.016  0.00  0.00    +0.000 A 
ATOM     17  C   UNL     1       4.027   4.487  16.477  0.00  0.00    +0.000 A 
ATOM     18  C   UNL     1       4.784   3.786  15.534  0.00  0.00    +0.000 A 
ATOM     19  C   UNL     1       5.984   4.305  15.075  0.00  0.00    +0.000 A 
ATOM     20  C   UNL     1       6.414   5.537  15.563  0.00  0.00    +0.000 A 
ATOM     21  C   UNL     1       5.659   6.258  16.512  0.00  0.00    +0.000 A 
BRANCH  19  22
ATOM     22  O   UNL     1       6.649   3.527  14.168  0.00  0.00    +0.000 OA
ATOM     23  C   UNL     1       6.238   3.634  12.809  0.00  0.00    +0.000 C 
ENDBRANCH  19  22
BRANCH  21  24
ATOM     24  O   UNL     1       6.118   7.450  17.025  0.00  0.00    +0.000 OA
ATOM     25  C   UNL     1       7.465   7.458  17.496  0.00  0.00    +0.000 C 
ENDBRANCH  21  24
ENDBRANCH  10  16
BRANCH   1  27
ATOM     26  C   UNL     1      -2.386  14.235  20.813  0.00  0.00    +0.000 C 
ATOM     27  C   UNL     1      -2.773  12.825  20.402  0.00  0.00    +0.000 C 
ENDBRANCH   1  27
TORSDOF 4
ENDMDL
MODEL 9
REMARK VINA RESULT:      -6.6      2.450      3.676
REMARK  Name = 
REMARK  7 active torsions:
REMARK  status: ('A' for Active; 'I' for Inactive)
REMARK    1  A    between atoms: C_1  and  C_2
REMARK    2  A    between atoms: C_2  and  N_3
REMARK    3  A    between atoms: C_12  and  C_13
REMARK    4  A    between atoms: C_16  and  O_17
REMARK    5  A    between atoms: O_17  and  C_18
REMARK    6  A    between atoms: C_20  and  O_21
REMARK    7  A    between atoms: O_21  and  C_22
REMARK                            x       y       z     vdW  Elec       q    Type
REMARK                         _______ _______ _______ _____ _____    ______ ____
ROOT
ATOM      1  N   UNL     1      -5.601  12.901  18.013  0.00  0.00    +0.000 N 
ATOM      2  C   UNL     1      -4.516  12.081  17.769  0.00  0.00    +0.000 C 
ATOM      3  O   UNL     1      -4.498  11.323  16.807  0.00  0.00    +0.000 OA
ATOM      4  N   UNL     1      -3.549  12.214  18.735  0.00  0.00    +0.000 N 
ATOM      5  C   UNL     1      -2.371  11.505  18.778  0.00  0.00    +0.000 A 
ATOM      6  N   UNL     1      -1.642  11.408  19.864  0.00  0.00    +0.000 NA
ATOM      7  C   UNL     1      -0.570  10.549  19.631  0.00  0.00    +0.000 A 
ATOM      8  C   UNL     1       0.403  10.126  20.556  0.00  0.00    +0.000 A 
ATOM      9  C   UNL     1       1.399   9.208  20.162  0.00  0.00    +0.000 A 
ATOM     10  C   UNL     1       1.456   8.669  18.867  0.00  0.00    +0.000 A 
ATOM     11  C   UNL     1       0.490   9.123  17.944  0.00  0.00    +0.000 A 
ATOM     12  C   UNL     1      -0.489  10.051  18.335  0.00  0.00    +0.000 A 
ATOM     13  S   UNL     1      -1.739  10.743  17.391  0.00  0.00    +0.000 S 
ATOM     14  H   UNL     1      -5.440  13.738  18.551  0.00  0.00    +0.000 HD
ATOM     15  H   UNL     1      -3.815  12.606  19.626  0.00  0.00    +0.000 HD
ENDROOT
BRANCH  10  16
ATOM     16  C   UNL     1       2.473   7.657  18.439  0.00  0.00    +0.000 A 
ATOM     17  C   UNL     1       3.441   8.028  17.476  0.00  0.00    +0.000 A 
ATOM     18  C   UNL     1       4.368   7.118  16.957  0.00  0.00    +0.000 A 
ATOM     19  C   UNL     1       4.376   5.803  17.395  0.00  0.00    +0.000 A 
ATOM     20  C   UNL     1       3.455   5.411  18.364  0.00  0.00    +0.000 A 
ATOM     21  C   UNL     1       2.518   6.318  18.900  0.00  0.00    +0.000 A 
BRANCH  19  22
ATOM     22  O   UNL     1       5.313   4.998  16.807  0.00  0.00    +0.000 OA
ATOM     23  C   UNL     1       6.256   4.375  17.673  0.00  0.00    +0.000 C 
ENDBRANCH  19  22
BRANCH  21  24
ATOM     24  O   UNL     1       1.579   5.907  19.818  0.00  0.00    +0.000 OA
ATOM     25  C   UNL     1       2.079   5.262  20.988  0.00  0.00    +0.000 C 
ENDBRANCH  21  24
ENDBRANCH  10  16
BRANCH   1  27
ATOM     26  C   UNL     1      -6.996  14.235  16.477  0.00  0.00    +0.000 C 
ATOM     27  C   UNL     1      -6.744  12.882  17.118  0.00  0.00    +0.000 C 
ENDBRANCH   1  27
TORSDOF 4
ENDMDL
