MODEL 1
REMARK VINA RESULT:      -7.0      0.000      0.000
REMARK  Name = 
REMARK  9 active torsions:
REMARK  status: ('A' for Active; 'I' for Inactive)
REMARK    1  A    between atoms: C_1  and  C_2
REMARK    2  A    between atoms: C_4  and  C_5
REMARK    3  A    between atoms: N_6  and  C_7
REMARK    4  A    between atoms: C_12  and  C_14
REMARK    5  A    between atoms: C_14  and  C_15
REMARK    6  A    between atoms: C_15  and  O_16
REMARK    7  A    between atoms: O_16  and  C_17
REMARK    8  A    between atoms: C_17  and  C_18
REMARK    9  A    between atoms: C_17  and  C_19
REMARK                            x       y       z     vdW  Elec       q    Type
REMARK                         _______ _______ _______ _____ _____    ______ ____
ROOT
ATOM      1  C   UNL     1       4.449   5.493  19.342  0.00  0.00    +0.000 C 
ATOM      2  C   UNL     1       3.540   6.445  18.548  0.00  0.00    +0.000 C 
ATOM      3  C   UNL     1       3.930   6.593  17.078  0.00  0.00    +0.000 C 
ATOM      4  C   UNL     1       5.424   6.862  16.901  0.00  0.00    +0.000 C 
ATOM      5  N   UNL     1       6.222   5.903  17.647  0.00  0.00    +0.000 N 
ATOM      6  C   UNL     1       7.085   4.949  17.103  0.00  0.00    +0.000 C 
ATOM      7  O   UNL     1       7.743   4.198  17.801  0.00  0.00    +0.000 OA
ATOM      8  C   UNL     1       5.932   5.839  19.085  0.00  0.00    +0.000 C 
ENDROOT
BRANCH   1  14
ATOM      9  C   UNL     1       5.000   1.210  20.984  0.00  0.00    +0.000 C 
ATOM     10  C   UNL     1       4.414   2.201  20.060  0.00  0.00    +0.000 A 
ATOM     11  N   UNL     1       3.075   2.292  19.817  0.00  0.00    +0.000 NA
ATOM     12  C   UNL     1       2.956   3.439  19.176  0.00  0.00    +0.000 A 
ATOM     13  C   UNL     1       1.705   4.008  18.637  0.00  0.00    +0.000 C 
ATOM     14  N   UNL     1       4.183   4.063  19.158  0.00  0.00    +0.000 N 
ATOM     15  N   UNL     1       5.130   3.179  19.516  0.00  0.00    +0.000 NA
ENDBRANCH   1  14
BRANCH   6  16
ATOM     16  C   UNL     1       7.190   4.887  15.579  0.00  0.00    +0.000 C 
BRANCH  16  17
ATOM     17  C   UNL     1       6.251   3.815  15.025  0.00  0.00    +0.000 C 
BRANCH  17  18
ATOM     18  O   UNL     1       5.607   4.267  13.825  0.00  0.00    +0.000 OA
BRANCH  18  19
ATOM     19  C   UNL     1       5.851   3.398  12.702  0.00  0.00    +0.000 C 
ATOM     20  C   UNL     1       4.646   3.311  11.766  0.00  0.00    +0.000 C 
ATOM     21  C   UNL     1       7.050   3.950  11.936  0.00  0.00    +0.000 C 
ENDBRANCH  18  19
ENDBRANCH  17  18
ENDBRANCH  16  17
ENDBRANCH   6  16
TORSDOF 5
ENDMDL
MODEL 2
REMARK VINA RESULT:      -6.4      1.713      2.125
REMARK  Name = 
REMARK  9 active torsions:
REMARK  status: ('A' for Active; 'I' for Inactive)
REMARK    1  A    between atoms: C_1  and  C_2
REMARK    2  A    between atoms: C_4  and  C_5
REMARK    3  A    between atoms: N_6  and  C_7
REMARK    4  A    between atoms: C_12  and  C_14
REMARK    5  A    between atoms: C_14  and  C_15
REMARK    6  A    between atoms: C_15  and  O_16
REMARK    7  A    between atoms: O_16  and  C_17
REMARK    8  A    between atoms: C_17  and  C_18
REMARK    9  A    between atoms: C_17  and  C_19
REMARK                            x       y       z     vdW  Elec       q    Type
REMARK                         _______ _______ _______ _____ _____    ______ ____
ROOT
ATOM      1  C   UNL     1       2.879   5.788  19.947  0.00  0.00    +0.000 C 
ATOM      2  C   UNL     1       2.213   7.049  19.373  0.00  0.00    +0.000 C 
ATOM      3  C   UNL     1       2.506   7.286  17.891  0.00  0.00    +0.000 C 
ATOM      4  C   UNL     1       3.995   7.164  17.571  0.00  0.00    +0.000 C 
ATOM      5  N   UNL     1       4.549   5.933  18.110  0.00  0.00    +0.000 N 
ATOM      6  C   UNL     1       5.061   4.865  17.368  0.00  0.00    +0.000 C 
ATOM      7  O   UNL     1       5.535   3.877  17.899  0.00  0.00    +0.000 OA
ATOM      8  C   UNL     1       4.373   5.754  19.557  0.00  0.00    +0.000 C 
ENDROOT
BRANCH   1  14
ATOM      9  C   UNL     1       2.566   2.157  17.108  0.00  0.00    +0.000 C 
ATOM     10  C   UNL     1       2.241   2.893  18.345  0.00  0.00    +0.000 A 
ATOM     11  N   UNL     1       2.324   2.335  19.586  0.00  0.00    +0.000 NA
ATOM     12  C   UNL     1       2.221   3.371  20.397  0.00  0.00    +0.000 A 
ATOM     13  C   UNL     1       2.209   3.323  21.873  0.00  0.00    +0.000 C 
ATOM     14  N   UNL     1       2.206   4.522  19.641  0.00  0.00    +0.000 N 
ATOM     15  N   UNL     1       1.993   4.198  18.354  0.00  0.00    +0.000 NA
ENDBRANCH   1  14
BRANCH   6  16
ATOM     16  C   UNL     1       5.017   4.986  15.845  0.00  0.00    +0.000 C 
BRANCH  16  17
ATOM     17  C   UNL     1       5.870   3.893  15.201  0.00  0.00    +0.000 C 
BRANCH  17  18
ATOM     18  O   UNL     1       6.689   4.431  14.152  0.00  0.00    +0.000 OA
BRANCH  18  19
ATOM     19  C   UNL     1       6.549   3.711  12.913  0.00  0.00    +0.000 C 
ATOM     20  C   UNL     1       5.087   3.553  12.497  0.00  0.00    +0.000 C 
ATOM     21  C   UNL     1       7.303   4.485  11.834  0.00  0.00    +0.000 C 
ENDBRANCH  18  19
ENDBRANCH  17  18
ENDBRANCH  16  17
ENDBRANCH   6  16
TORSDOF 5
ENDMDL
MODEL 3
REMARK VINA RESULT:      -6.3      2.453      4.679
REMARK  Name = 
REMARK  9 active torsions:
REMARK  status: ('A' for Active; 'I' for Inactive)
REMARK    1  A    between atoms: C_1  and  C_2
REMARK    2  A    between atoms: C_4  and  C_5
REMARK    3  A    between atoms: N_6  and  C_7
REMARK    4  A    between atoms: C_12  and  C_14
REMARK    5  A    between atoms: C_14  and  C_15
REMARK    6  A    between atoms: C_15  and  O_16
REMARK    7  A    between atoms: O_16  and  C_17
REMARK    8  A    between atoms: C_17  and  C_18
REMARK    9  A    between atoms: C_17  and  C_19
REMARK                            x       y       z     vdW  Elec       q    Type
REMARK                         _______ _______ _______ _____ _____    ______ ____
ROOT
ATOM      1  C   UNL     1       1.602   4.624  21.018  0.00  0.00    +0.000 C 
ATOM      2  C   UNL     1       2.454   3.567  21.740  0.00  0.00    +0.000 C 
ATOM      3  C   UNL     1       3.256   2.668  20.799  0.00  0.00    +0.000 C 
ATOM      4  C   UNL     1       2.399   2.111  19.663  0.00  0.00    +0.000 C 
ATOM      5  N   UNL     1       1.651   3.169  19.002  0.00  0.00    +0.000 N 
ATOM      6  C   UNL     1       1.812   3.589  17.680  0.00  0.00    +0.000 C 
ATOM      7  O   UNL     1       1.123   4.467  17.191  0.00  0.00    +0.000 OA
ATOM      8  C   UNL     1       0.787   3.963  19.884  0.00  0.00    +0.000 C 
ENDROOT
BRANCH   1  14
ATOM      9  C   UNL     1       3.789   6.691  17.513  0.00  0.00    +0.000 C 
ATOM     10  C   UNL     1       3.192   6.668  18.862  0.00  0.00    +0.000 A 
ATOM     11  N   UNL     1       2.309   7.610  19.301  0.00  0.00    +0.000 NA
ATOM     12  C   UNL     1       1.827   7.086  20.412  0.00  0.00    +0.000 A 
ATOM     13  C   UNL     1       0.850   7.718  21.321  0.00  0.00    +0.000 C 
ATOM     14  N   UNL     1       2.326   5.810  20.550  0.00  0.00    +0.000 N 
ATOM     15  N   UNL     1       3.350   5.645  19.695  0.00  0.00    +0.000 NA
ENDBRANCH   1  14
BRANCH   6  16
ATOM     16  C   UNL     1       2.889   2.892  16.849  0.00  0.00    +0.000 C 
BRANCH  16  17
ATOM     17  C   UNL     1       4.250   3.545  17.087  0.00  0.00    +0.000 C 
BRANCH  17  18
ATOM     18  O   UNL     1       4.725   4.193  15.897  0.00  0.00    +0.000 OA
BRANCH  18  19
ATOM     19  C   UNL     1       6.054   3.776  15.530  0.00  0.00    +0.000 C 
ATOM     20  C   UNL     1       6.304   3.899  14.028  0.00  0.00    +0.000 C 
ATOM     21  C   UNL     1       7.045   4.659  16.284  0.00  0.00    +0.000 C 
ENDBRANCH  18  19
ENDBRANCH  17  18
ENDBRANCH  16  17
ENDBRANCH   6  16
TORSDOF 5
ENDMDL
MODEL 4
REMARK VINA RESULT:      -6.3      2.650      3.769
REMARK  Name = 
REMARK  9 active torsions:
REMARK  status: ('A' for Active; 'I' for Inactive)
REMARK    1  A    between atoms: C_1  and  C_2
REMARK    2  A    between atoms: C_4  and  C_5
REMARK    3  A    between atoms: N_6  and  C_7
REMARK    4  A    between atoms: C_12  and  C_14
REMARK    5  A    between atoms: C_14  and  C_15
REMARK    6  A    between atoms: C_15  and  O_16
REMARK    7  A    between atoms: O_16  and  C_17
REMARK    8  A    between atoms: C_17  and  C_18
REMARK    9  A    between atoms: C_17  and  C_19
REMARK                            x       y       z     vdW  Elec       q    Type
REMARK                         _______ _______ _______ _____ _____    ______ ____
ROOT
ATOM      1  C   UNL     1       2.260   5.570  20.007  0.00  0.00    +0.000 C 
ATOM      2  C   UNL     1       1.729   6.790  19.236  0.00  0.00    +0.000 C 
ATOM      3  C   UNL     1       2.405   7.010  17.883  0.00  0.00    +0.000 C 
ATOM      4  C   UNL     1       3.929   6.946  17.981  0.00  0.00    +0.000 C 
ATOM      5  N   UNL     1       4.360   5.751  18.687  0.00  0.00    +0.000 N 
ATOM      6  C   UNL     1       5.092   4.692  18.145  0.00  0.00    +0.000 C 
ATOM      7  O   UNL     1       5.440   3.736  18.814  0.00  0.00    +0.000 OA
ATOM      8  C   UNL     1       3.804   5.593  20.037  0.00  0.00    +0.000 C 
ENDROOT
BRANCH   1  14
ATOM      9  C   UNL     1       2.602   2.078  17.001  0.00  0.00    +0.000 C 
ATOM     10  C   UNL     1       2.071   2.720  18.220  0.00  0.00    +0.000 A 
ATOM     11  N   UNL     1       2.058   2.106  19.438  0.00  0.00    +0.000 NA
ATOM     12  C   UNL     1       1.771   3.086  20.273  0.00  0.00    +0.000 A 
ATOM     13  C   UNL     1       1.591   2.961  21.733  0.00  0.00    +0.000 C 
ATOM     14  N   UNL     1       1.742   4.270  19.570  0.00  0.00    +0.000 N 
ATOM     15  N   UNL     1       1.710   3.997  18.254  0.00  0.00    +0.000 NA
ENDBRANCH   1  14
BRANCH   6  16
ATOM     16  C   UNL     1       5.459   4.780  16.664  0.00  0.00    +0.000 C 
BRANCH  16  17
ATOM     17  C   UNL     1       6.871   5.343  16.499  0.00  0.00    +0.000 C 
BRANCH  17  18
ATOM     18  O   UNL     1       6.867   6.776  16.590  0.00  0.00    +0.000 OA
BRANCH  18  19
ATOM     19  C   UNL     1       7.926   7.282  17.425  0.00  0.00    +0.000 C 
ATOM     20  C   UNL     1       7.753   8.768  17.741  0.00  0.00    +0.000 C 
ATOM     21  C   UNL     1       7.920   6.482  18.724  0.00  0.00    +0.000 C 
ENDBRANCH  18  19
ENDBRANCH  17  18
ENDBRANCH  16  17
ENDBRANCH   6  16
TORSDOF 5
ENDMDL
MODEL 5
REMARK VINA RESULT:      -6.2      1.262      1.330
REMARK  Name = 
REMARK  9 active torsions:
REMARK  status: ('A' for Active; 'I' for Inactive)
REMARK    1  A    between atoms: C_1  and  C_2
REMARK    2  A    between atoms: C_4  and  C_5
REMARK    3  A    between atoms: N_6  and  C_7
REMARK    4  A    between atoms: C_12  and  C_14
REMARK    5  A    between atoms: C_14  and  C_15
REMARK    6  A    between atoms: C_15  and  O_16
REMARK    7  A    between atoms: O_16  and  C_17
REMARK    8  A    between atoms: C_17  and  C_18
REMARK    9  A    between atoms: C_17  and  C_19
REMARK                            x       y       z     vdW  Elec       q    Type
REMARK                         _______ _______ _______ _____ _____    ______ ____
ROOT
ATOM      1  C   UNL     1       3.549   5.520  19.496  0.00  0.00    +0.000 C 
ATOM      2  C   UNL     1       2.864   6.822  19.048  0.00  0.00    +0.000 C 
ATOM      3  C   UNL     1       3.176   7.223  17.606  0.00  0.00    +0.000 C 
ATOM      4  C   UNL     1       4.673   7.166  17.303  0.00  0.00    +0.000 C 
ATOM      5  N   UNL     1       5.245   5.895  17.717  0.00  0.00    +0.000 N 
ATOM      6  C   UNL     1       5.792   4.924  16.875  0.00  0.00    +0.000 C 
ATOM      7  O   UNL     1       6.280   3.895  17.305  0.00  0.00    +0.000 OA
ATOM      8  C   UNL     1       5.049   5.558  19.133  0.00  0.00    +0.000 C 
ENDROOT
BRANCH   1  14
ATOM      9  C   UNL     1       4.068   1.044  18.478  0.00  0.00    +0.000 C 
ATOM     10  C   UNL     1       3.259   2.254  18.718  0.00  0.00    +0.000 A 
ATOM     11  N   UNL     1       2.189   2.278  19.564  0.00  0.00    +0.000 NA
ATOM     12  C   UNL     1       1.931   3.565  19.698  0.00  0.00    +0.000 A 
ATOM     13  C   UNL     1       0.830   4.155  20.484  0.00  0.00    +0.000 C 
ATOM     14  N   UNL     1       2.909   4.280  19.043  0.00  0.00    +0.000 N 
ATOM     15  N   UNL     1       3.604   3.448  18.250  0.00  0.00    +0.000 NA
ENDBRANCH   1  14
BRANCH   6  16
ATOM     16  C   UNL     1       5.772   5.207  15.373  0.00  0.00    +0.000 C 
BRANCH  16  17
ATOM     17  C   UNL     1       6.058   3.928  14.587  0.00  0.00    +0.000 C 
BRANCH  17  18
ATOM     18  O   UNL     1       6.162   4.202  13.181  0.00  0.00    +0.000 OA
BRANCH  18  19
ATOM     19  C   UNL     1       5.819   3.064  12.367  0.00  0.00    +0.000 C 
ATOM     20  C   UNL     1       4.545   3.297  11.555  0.00  0.00    +0.000 C 
ATOM     21  C   UNL     1       6.985   2.799  11.419  0.00  0.00    +0.000 C 
ENDBRANCH  18  19
ENDBRANCH  17  18
ENDBRANCH  16  17
ENDBRANCH   6  16
TORSDOF 5
ENDMDL
MODEL 6
REMARK VINA RESULT:      -6.1      2.453      4.884
REMARK  Name = 
REMARK  9 active torsions:
REMARK  status: ('A' for Active; 'I' for Inactive)
REMARK    1  A    between atoms: C_1  and  C_2
REMARK    2  A    between atoms: C_4  and  C_5
REMARK    3  A    between atoms: N_6  and  C_7
REMARK    4  A    between atoms: C_12  and  C_14
REMARK    5  A    between atoms: C_14  and  C_15
REMARK    6  A    between atoms: C_15  and  O_16
REMARK    7  A    between atoms: O_16  and  C_17
REMARK    8  A    between atoms: C_17  and  C_18
REMARK    9  A    between atoms: C_17  and  C_19
REMARK                            x       y       z     vdW  Elec       q    Type
REMARK                         _______ _______ _______ _____ _____    ______ ____
ROOT
ATOM      1  C   UNL     1       1.474   4.585  20.789  0.00  0.00    +0.000 C 
ATOM      2  C   UNL     1       2.193   3.631  21.757  0.00  0.00    +0.000 C 
ATOM      3  C   UNL     1       3.244   2.745  21.088  0.00  0.00    +0.000 C 
ATOM      4  C   UNL     1       2.712   2.070  19.825  0.00  0.00    +0.000 C 
ATOM      5  N   UNL     1       2.081   3.037  18.940  0.00  0.00    +0.000 N 
ATOM      6  C   UNL     1       2.524   3.400  17.666  0.00  0.00    +0.000 C 
ATOM      7  O   UNL     1       1.919   4.200  16.975  0.00  0.00    +0.000 OA
ATOM      8  C   UNL     1       0.989   3.811  19.545  0.00  0.00    +0.000 C 
ENDROOT
BRANCH   1  14
ATOM      9  C   UNL     1       3.720   6.897  17.480  0.00  0.00    +0.000 C 
ATOM     10  C   UNL     1       3.111   6.774  18.818  0.00  0.00    +0.000 A 
ATOM     11  N   UNL     1       2.236   7.689  19.325  0.00  0.00    +0.000 NA
ATOM     12  C   UNL     1       1.737   7.084  20.386  0.00  0.00    +0.000 A 
ATOM     13  C   UNL     1       0.761   7.655  21.335  0.00  0.00    +0.000 C 
ATOM     14  N   UNL     1       2.218   5.795  20.424  0.00  0.00    +0.000 N 
ATOM     15  N   UNL     1       3.247   5.685  19.566  0.00  0.00    +0.000 NA
ENDBRANCH   1  14
BRANCH   6  16
ATOM     16  C   UNL     1       3.804   2.741  17.155  0.00  0.00    +0.000 C 
BRANCH  16  17
ATOM     17  C   UNL     1       4.812   3.804  16.719  0.00  0.00    +0.000 C 
BRANCH  17  18
ATOM     18  O   UNL     1       5.735   4.103  17.778  0.00  0.00    +0.000 OA
BRANCH  18  19
ATOM     19  C   UNL     1       7.009   4.565  17.291  0.00  0.00    +0.000 C 
ATOM     20  C   UNL     1       6.969   4.908  15.802  0.00  0.00    +0.000 C 
ATOM     21  C   UNL     1       7.391   5.809  18.088  0.00  0.00    +0.000 C 
ENDBRANCH  18  19
ENDBRANCH  17  18
ENDBRANCH  16  17
ENDBRANCH   6  16
TORSDOF 5
ENDMDL
MODEL 7
REMARK VINA RESULT:      -6.0      3.429      5.905
REMARK  Name = 
REMARK  9 active torsions:
REMARK  status: ('A' for Active; 'I' for Inactive)
REMARK    1  A    between atoms: C_1  and  C_2
REMARK    2  A    between atoms: C_4  and  C_5
REMARK    3  A    between atoms: N_6  and  C_7
REMARK    4  A    between atoms: C_12  and  C_14
REMARK    5  A    between atoms: C_14  and  C_15
REMARK    6  A    between atoms: C_15  and  O_16
REMARK    7  A    between atoms: O_16  and  C_17
REMARK    8  A    between atoms: C_17  and  C_18
REMARK    9  A    between atoms: C_17  and  C_19
REMARK                            x       y       z     vdW  Elec       q    Type
REMARK                         _______ _______ _______ _____ _____    ______ ____
ROOT
ATOM      1  C   UNL     1       3.591   5.238  17.892  0.00  0.00    +0.000 C 
ATOM      2  C   UNL     1       4.104   4.046  18.715  0.00  0.00    +0.000 C 
ATOM      3  C   UNL     1       5.559   4.182  19.164  0.00  0.00    +0.000 C 
ATOM      4  C   UNL     1       6.481   4.593  18.017  0.00  0.00    +0.000 C 
ATOM      5  N   UNL     1       5.954   5.748  17.308  0.00  0.00    +0.000 N 
ATOM      6  C   UNL     1       6.538   7.015  17.247  0.00  0.00    +0.000 C 
ATOM      7  O   UNL     1       6.046   7.925  16.605  0.00  0.00    +0.000 OA
ATOM      8  C   UNL     1       4.597   5.581  16.772  0.00  0.00    +0.000 C 
ENDROOT
BRANCH   1  14
ATOM      9  C   UNL     1       1.488   9.351  17.887  0.00  0.00    +0.000 C 
ATOM     10  C   UNL     1       2.144   8.209  18.552  0.00  0.00    +0.000 A 
ATOM     11  N   UNL     1       1.606   7.565  19.627  0.00  0.00    +0.000 NA
ATOM     12  C   UNL     1       2.344   6.475  19.734  0.00  0.00    +0.000 A 
ATOM     13  C   UNL     1       2.213   5.434  20.772  0.00  0.00    +0.000 C 
ATOM     14  N   UNL     1       3.211   6.425  18.665  0.00  0.00    +0.000 N 
ATOM     15  N   UNL     1       3.229   7.623  18.058  0.00  0.00    +0.000 NA
ENDBRANCH   1  14
BRANCH   6  16
ATOM     16  C   UNL     1       7.844   7.222  18.015  0.00  0.00    +0.000 C 
BRANCH  16  17
ATOM     17  C   UNL     1       8.243   8.697  17.997  0.00  0.00    +0.000 C 
BRANCH  17  18
ATOM     18  O   UNL     1       9.031   9.030  19.151  0.00  0.00    +0.000 OA
BRANCH  18  19
ATOM     19  C   UNL     1       9.547  10.373  19.102  0.00  0.00    +0.000 C 
ATOM     20  C   UNL     1       8.851  11.222  18.039  0.00  0.00    +0.000 C 
ATOM     21  C   UNL     1       9.336  11.005  20.475  0.00  0.00    +0.000 C 
ENDBRANCH  18  19
ENDBRANCH  17  18
ENDBRANCH  16  17
ENDBRANCH   6  16
TORSDOF 5
ENDMDL
MODEL 8
REMARK VINA RESULT:      -6.0      3.120      5.838
REMARK  Name = 
REMARK  9 active torsions:
REMARK  status: ('A' for Active; 'I' for Inactive)
REMARK    1  A    between atoms: C_1  and  C_2
REMARK    2  A    between atoms: C_4  and  C_5
REMARK    3  A    between atoms: N_6  and  C_7
REMARK    4  A    between atoms: C_12  and  C_14
REMARK    5  A    between atoms: C_14  and  C_15
REMARK    6  A    between atoms: C_15  and  O_16
REMARK    7  A    between atoms: O_16  and  C_17
REMARK    8  A    between atoms: C_17  and  C_18
REMARK    9  A    between atoms: C_17  and  C_19
REMARK                            x       y       z     vdW  Elec       q    Type
REMARK                         _______ _______ _______ _____ _____    ______ ____
ROOT
ATOM      1  C   UNL     1       4.581   3.407  17.536  0.00  0.00    +0.000 C 
ATOM      2  C   UNL     1       3.461   3.595  16.500  0.00  0.00    +0.000 C 
ATOM      3  C   UNL     1       2.081   3.829  17.115  0.00  0.00    +0.000 C 
ATOM      4  C   UNL     1       1.756   2.814  18.210  0.00  0.00    +0.000 C 
ATOM      5  N   UNL     1       2.841   2.716  19.173  0.00  0.00    +0.000 N 
ATOM      6  C   UNL     1       2.782   3.077  20.521  0.00  0.00    +0.000 C 
ATOM      7  O   UNL     1       3.730   2.936  21.271  0.00  0.00    +0.000 OA
ATOM      8  C   UNL     1       4.151   2.376  18.601  0.00  0.00    +0.000 C 
ENDROOT
BRANCH   1  14
ATOM      9  C   UNL     1       7.990   5.421  19.917  0.00  0.00    +0.000 C 
ATOM     10  C   UNL     1       6.743   5.443  19.128  0.00  0.00    +0.000 A 
ATOM     11  N   UNL     1       6.553   6.271  18.061  0.00  0.00    +0.000 NA
ATOM     12  C   UNL     1       5.460   5.796  17.494  0.00  0.00    +0.000 A 
ATOM     13  C   UNL     1       4.781   6.354  16.307  0.00  0.00    +0.000 C 
ATOM     14  N   UNL     1       5.094   4.639  18.145  0.00  0.00    +0.000 N 
ATOM     15  N   UNL     1       5.773   4.552  19.301  0.00  0.00    +0.000 NA
ENDBRANCH   1  14
BRANCH   6  16
ATOM     16  C   UNL     1       1.461   3.650  21.035  0.00  0.00    +0.000 C 
BRANCH  16  17
ATOM     17  C   UNL     1       1.360   5.138  20.698  0.00  0.00    +0.000 C 
BRANCH  17  18
ATOM     18  O   UNL     1       2.589   5.622  20.136  0.00  0.00    +0.000 OA
BRANCH  18  19
ATOM     19  C   UNL     1       2.540   7.025  19.817  0.00  0.00    +0.000 C 
ATOM     20  C   UNL     1       2.142   7.274  18.363  0.00  0.00    +0.000 C 
ATOM     21  C   UNL     1       1.517   7.680  20.742  0.00  0.00    +0.000 C 
ENDBRANCH  18  19
ENDBRANCH  17  18
ENDBRANCH  16  17
ENDBRANCH   6  16
TORSDOF 5
ENDMDL
MODEL 9
REMARK VINA RESULT:      -5.9      2.226      5.587
REMARK  Name = 
REMARK  9 active torsions:
REMARK  status: ('A' for Active; 'I' for Inactive)
REMARK    1  A    between atoms: C_1  and  C_2
REMARK    2  A    between atoms: C_4  and  C_5
REMARK    3  A    between atoms: N_6  and  C_7
REMARK    4  A    between atoms: C_12  and  C_14
REMARK    5  A    between atoms: C_14  and  C_15
REMARK    6  A    between atoms: C_15  and  O_16
REMARK    7  A    between atoms: O_16  and  C_17
REMARK    8  A    between atoms: C_17  and  C_18
REMARK    9  A    between atoms: C_17  and  C_19
REMARK                            x       y       z     vdW  Elec       q    Type
REMARK                         _______ _______ _______ _____ _____    ______ ____
ROOT
ATOM      1  C   UNL     1       4.880   6.399  16.207  0.00  0.00    +0.000 C 
ATOM      2  C   UNL     1       4.139   7.440  17.062  0.00  0.00    +0.000 C 
ATOM      3  C   UNL     1       3.692   6.917  18.427  0.00  0.00    +0.000 C 
ATOM      4  C   UNL     1       2.978   5.570  18.323  0.00  0.00    +0.000 C 
ATOM      5  N   UNL     1       3.753   4.625  17.535  0.00  0.00    +0.000 N 
ATOM      6  C   UNL     1       4.333   3.443  18.001  0.00  0.00    +0.000 C 
ATOM      7  O   UNL     1       4.944   2.688  17.267  0.00  0.00    +0.000 OA
ATOM      8  C   UNL     1       4.086   5.075  16.177  0.00  0.00    +0.000 C 
ENDROOT
BRANCH   1  14
ATOM      9  C   UNL     1       7.963   5.568  19.545  0.00  0.00    +0.000 C 
ATOM     10  C   UNL     1       7.556   5.706  18.134  0.00  0.00    +0.000 A 
ATOM     11  N   UNL     1       7.839   4.770  17.183  0.00  0.00    +0.000 NA
ATOM     12  C   UNL     1       7.087   5.132  16.160  0.00  0.00    +0.000 A 
ATOM     13  C   UNL     1       7.040   4.476  14.839  0.00  0.00    +0.000 C 
ATOM     14  N   UNL     1       6.289   6.183  16.553  0.00  0.00    +0.000 N 
ATOM     15  N   UNL     1       6.750   6.675  17.715  0.00  0.00    +0.000 NA
ENDBRANCH   1  14
BRANCH   6  16
ATOM     16  C   UNL     1       4.162   3.117  19.485  0.00  0.00    +0.000 C 
BRANCH  16  17
ATOM     17  C   UNL     1       3.077   2.056  19.674  0.00  0.00    +0.000 C 
BRANCH  17  18
ATOM     18  O   UNL     1       2.223   2.386  20.780  0.00  0.00    +0.000 OA
BRANCH  18  19
ATOM     19  C   UNL     1       0.945   2.900  20.360  0.00  0.00    +0.000 C 
ATOM     20  C   UNL     1       0.858   4.420  20.504  0.00  0.00    +0.000 C 
ATOM     21  C   UNL     1       0.744   2.517  18.897  0.00  0.00    +0.000 C 
ENDBRANCH  18  19
ENDBRANCH  17  18
ENDBRANCH  16  17
ENDBRANCH   6  16
TORSDOF 5
ENDMDL
