MODEL 1
REMARK VINA RESULT:      -8.5      0.000      0.000
REMARK  Name = 
REMARK  8 active torsions:
REMARK  status: ('A' for Active; 'I' for Inactive)
REMARK    1  A    between atoms: C_1  and  O_2
REMARK    2  A    between atoms: O_2  and  C_3
REMARK    3  A    between atoms: C_7  and  C_8
REMARK    4  A    between atoms: C_8  and  N_9
REMARK    5  A    between atoms: C_10  and  C_13
REMARK    6  A    between atoms: N_11  and  O_12
REMARK    7  A    between atoms: C_18  and  O_19
REMARK    8  A    between atoms: O_19  and  C_20
REMARK                            x       y       z     vdW  Elec       q    Type
REMARK                         _______ _______ _______ _____ _____    ______ ____
ROOT
ATOM      1  N   UNL     1       5.705   4.995  16.840  0.00  0.00    +0.000 N 
ATOM      2  C   UNL     1       5.316   4.539  18.087  0.00  0.00    +0.000 C 
ATOM      3  N   UNL     1       6.051   4.460  19.158  0.00  0.00    +0.000 NA
ATOM      4  H   UNL     1       5.036   5.508  16.283  0.00  0.00    +0.000 HD
ENDROOT
BRANCH   2   5
ATOM      5  C   UNL     1       3.903   4.038  18.259  0.00  0.00    +0.000 A 
ATOM      6  C   UNL     1       3.538   2.884  17.546  0.00  0.00    +0.000 A 
ATOM      7  C   UNL     1       2.265   2.339  17.679  0.00  0.00    +0.000 A 
ATOM      8  C   UNL     1       1.387   2.954  18.547  0.00  0.00    +0.000 A 
ATOM      9  N   UNL     1       1.688   4.072  19.240  0.00  0.00    +0.000 NA
ATOM     10  C   UNL     1       2.924   4.621  19.058  0.00  0.00    +0.000 A 
BRANCH  10  11
ATOM     11  O   UNL     1       3.209   5.790  19.756  0.00  0.00    +0.000 OA
BRANCH  11  12
ATOM     12  C   UNL     1       2.537   6.943  19.404  0.00  0.00    +0.000 A 
ATOM     13  C   UNL     1       1.853   7.609  20.425  0.00  0.00    +0.000 A 
ATOM     14  C   UNL     1       1.200   8.819  20.166  0.00  0.00    +0.000 A 
ATOM     15  C   UNL     1       1.231   9.366  18.883  0.00  0.00    +0.000 A 
ATOM     16 CL   UNL     1       0.447  10.864  18.567  0.00  0.00    +0.000 Cl
ATOM     17  C   UNL     1       1.908   8.711  17.856  0.00  0.00    +0.000 A 
ATOM     18  C   UNL     1       2.576   7.511  18.122  0.00  0.00    +0.000 A 
ENDBRANCH  11  12
ENDBRANCH  10  11
ENDBRANCH   2   5
BRANCH   3  19
ATOM     19  O   UNL     1       7.329   5.007  19.009  0.00  0.00    +0.000 OA
ATOM     20  H   UNL     1       7.320   5.726  19.667  0.00  0.00    +0.000 HD
ENDBRANCH   3  19
BRANCH   1  21
ATOM     21  C   UNL     1       7.051   4.931  16.315  0.00  0.00    +0.000 C 
BRANCH  21  26
ATOM     22  C   UNL     1       6.060   3.614  12.864  0.00  0.00    +0.000 A 
ATOM     23  C   UNL     1       6.945   4.327  12.048  0.00  0.00    +0.000 A 
ATOM     24  C   UNL     1       7.844   5.238  12.604  0.00  0.00    +0.000 A 
ATOM     25  C   UNL     1       7.872   5.436  13.978  0.00  0.00    +0.000 A 
ATOM     26  C   UNL     1       7.004   4.717  14.821  0.00  0.00    +0.000 A 
ATOM     27  C   UNL     1       6.085   3.821  14.246  0.00  0.00    +0.000 A 
BRANCH  22  29
ATOM     28  C   UNL     1       5.862   1.767  11.377  0.00  0.00    +0.000 C 
ATOM     29  O   UNL     1       5.240   2.752  12.190  0.00  0.00    +0.000 OA
ENDBRANCH  22  29
ENDBRANCH  21  26
ENDBRANCH   1  21
TORSDOF 7
ENDMDL
MODEL 2
REMARK VINA RESULT:      -8.4      0.918      1.062
REMARK  Name = 
REMARK  8 active torsions:
REMARK  status: ('A' for Active; 'I' for Inactive)
REMARK    1  A    between atoms: C_1  and  O_2
REMARK    2  A    between atoms: O_2  and  C_3
REMARK    3  A    between atoms: C_7  and  C_8
REMARK    4  A    between atoms: C_8  and  N_9
REMARK    5  A    between atoms: C_10  and  C_13
REMARK    6  A    between atoms: N_11  and  O_12
REMARK    7  A    between atoms: C_18  and  O_19
REMARK    8  A    between atoms: O_19  and  C_20
REMARK                            x       y       z     vdW  Elec       q    Type
REMARK                         _______ _______ _______ _____ _____    ______ ____
ROOT
ATOM      1  N   UNL     1       5.725   4.883  16.726  0.00  0.00    +0.000 N 
ATOM      2  C   UNL     1       5.293   4.379  17.939  0.00  0.00    +0.000 C 
ATOM      3  N   UNL     1       6.009   4.189  19.009  0.00  0.00    +0.000 NA
ATOM      4  H   UNL     1       5.095   5.469  16.195  0.00  0.00    +0.000 HD
ENDROOT
BRANCH   2   5
ATOM      5  C   UNL     1       3.849   3.958  18.069  0.00  0.00    +0.000 A 
ATOM      6  C   UNL     1       3.597   2.608  18.363  0.00  0.00    +0.000 A 
ATOM      7  C   UNL     1       2.295   2.149  18.534  0.00  0.00    +0.000 A 
ATOM      8  C   UNL     1       1.268   3.064  18.428  0.00  0.00    +0.000 A 
ATOM      9  N   UNL     1       1.462   4.367  18.133  0.00  0.00    +0.000 NA
ATOM     10  C   UNL     1       2.743   4.788  17.918  0.00  0.00    +0.000 A 
BRANCH  10  11
ATOM     11  O   UNL     1       2.924   6.126  17.584  0.00  0.00    +0.000 OA
BRANCH  11  12
ATOM     12  C   UNL     1       2.337   7.086  18.383  0.00  0.00    +0.000 A 
ATOM     13  C   UNL     1       2.268   6.808  19.751  0.00  0.00    +0.000 A 
ATOM     14  C   UNL     1       1.747   7.755  20.639  0.00  0.00    +0.000 A 
ATOM     15  C   UNL     1       1.294   8.984  20.159  0.00  0.00    +0.000 A 
ATOM     16 CL   UNL     1       0.673  10.158  21.251  0.00  0.00    +0.000 Cl
ATOM     17  C   UNL     1       1.357   9.272  18.797  0.00  0.00    +0.000 A 
ATOM     18  C   UNL     1       1.895   8.331  17.914  0.00  0.00    +0.000 A 
ENDBRANCH  11  12
ENDBRANCH  10  11
ENDBRANCH   2   5
BRANCH   3  19
ATOM     19  O   UNL     1       7.320   4.663  18.904  0.00  0.00    +0.000 OA
ATOM     20  H   UNL     1       7.799   3.869  18.605  0.00  0.00    +0.000 HD
ENDBRANCH   3  19
BRANCH   1  21
ATOM     21  C   UNL     1       7.070   4.767  16.208  0.00  0.00    +0.000 C 
BRANCH  21  26
ATOM     22  C   UNL     1       6.131   3.504  12.723  0.00  0.00    +0.000 A 
ATOM     23  C   UNL     1       6.970   4.289  11.926  0.00  0.00    +0.000 A 
ATOM     24  C   UNL     1       7.821   5.231  12.505  0.00  0.00    +0.000 A 
ATOM     25  C   UNL     1       7.847   5.387  13.884  0.00  0.00    +0.000 A 
ATOM     26  C   UNL     1       7.026   4.597  14.709  0.00  0.00    +0.000 A 
ATOM     27  C   UNL     1       6.153   3.670  14.110  0.00  0.00    +0.000 A 
BRANCH  22  29
ATOM     28  C   UNL     1       4.297   3.160  11.245  0.00  0.00    +0.000 C 
ATOM     29  O   UNL     1       5.354   2.619  12.026  0.00  0.00    +0.000 OA
ENDBRANCH  22  29
ENDBRANCH  21  26
ENDBRANCH   1  21
TORSDOF 7
ENDMDL
MODEL 3
REMARK VINA RESULT:      -8.4      0.525      1.068
REMARK  Name = 
REMARK  8 active torsions:
REMARK  status: ('A' for Active; 'I' for Inactive)
REMARK    1  A    between atoms: C_1  and  O_2
REMARK    2  A    between atoms: O_2  and  C_3
REMARK    3  A    between atoms: C_7  and  C_8
REMARK    4  A    between atoms: C_8  and  N_9
REMARK    5  A    between atoms: C_10  and  C_13
REMARK    6  A    between atoms: N_11  and  O_12
REMARK    7  A    between atoms: C_18  and  O_19
REMARK    8  A    between atoms: O_19  and  C_20
REMARK                            x       y       z     vdW  Elec       q    Type
REMARK                         _______ _______ _______ _____ _____    ______ ____
ROOT
ATOM      1  N   UNL     1       5.768   5.239  16.766  0.00  0.00    +0.000 N 
ATOM      2  C   UNL     1       5.377   4.695  17.976  0.00  0.00    +0.000 C 
ATOM      3  N   UNL     1       6.133   4.451  19.007  0.00  0.00    +0.000 NA
ATOM      4  H   UNL     1       5.130   5.857  16.285  0.00  0.00    +0.000 HD
ENDROOT
BRANCH   2   5
ATOM      5  C   UNL     1       3.932   4.297  18.150  0.00  0.00    +0.000 A 
ATOM      6  C   UNL     1       3.496   3.146  17.472  0.00  0.00    +0.000 A 
ATOM      7  C   UNL     1       2.188   2.693  17.611  0.00  0.00    +0.000 A 
ATOM      8  C   UNL     1       1.346   3.395  18.449  0.00  0.00    +0.000 A 
ATOM      9  N   UNL     1       1.717   4.512  19.108  0.00  0.00    +0.000 NA
ATOM     10  C   UNL     1       2.989   4.971  18.921  0.00  0.00    +0.000 A 
BRANCH  10  11
ATOM     11  O   UNL     1       3.347   6.141  19.582  0.00  0.00    +0.000 OA
BRANCH  11  12
ATOM     12  C   UNL     1       2.561   7.261  19.403  0.00  0.00    +0.000 A 
ATOM     13  C   UNL     1       2.528   7.806  18.116  0.00  0.00    +0.000 A 
ATOM     14  C   UNL     1       1.706   8.903  17.834  0.00  0.00    +0.000 A 
ATOM     15  C   UNL     1       0.915   9.457  18.841  0.00  0.00    +0.000 A 
ATOM     16 CL   UNL     1      -0.112  10.792  18.492  0.00  0.00    +0.000 Cl
ATOM     17  C   UNL     1       0.941   8.923  20.128  0.00  0.00    +0.000 A 
ATOM     18  C   UNL     1       1.749   7.816  20.402  0.00  0.00    +0.000 A 
ENDBRANCH  11  12
ENDBRANCH  10  11
ENDBRANCH   2   5
BRANCH   3  19
ATOM     19  O   UNL     1       7.448   4.904  18.865  0.00  0.00    +0.000 OA
ATOM     20  H   UNL     1       7.539   5.505  19.626  0.00  0.00    +0.000 HD
ENDBRANCH   3  19
BRANCH   1  21
ATOM     21  C   UNL     1       7.089   5.118  16.188  0.00  0.00    +0.000 C 
BRANCH  21  26
ATOM     22  C   UNL     1       5.896   3.601  12.886  0.00  0.00    +0.000 A 
ATOM     23  C   UNL     1       6.785   4.199  11.987  0.00  0.00    +0.000 A 
ATOM     24  C   UNL     1       7.752   5.098  12.439  0.00  0.00    +0.000 A 
ATOM     25  C   UNL     1       7.844   5.397  13.792  0.00  0.00    +0.000 A 
ATOM     26  C   UNL     1       6.973   4.794  14.718  0.00  0.00    +0.000 A 
ATOM     27  C   UNL     1       5.985   3.910  14.246  0.00  0.00    +0.000 A 
BRANCH  22  29
ATOM     28  C   UNL     1       4.175   3.255  11.279  0.00  0.00    +0.000 C 
ATOM     29  O   UNL     1       5.005   2.737  12.309  0.00  0.00    +0.000 OA
ENDBRANCH  22  29
ENDBRANCH  21  26
ENDBRANCH   1  21
TORSDOF 7
ENDMDL
MODEL 4
REMARK VINA RESULT:      -8.0      3.506      8.691
REMARK  Name = 
REMARK  8 active torsions:
REMARK  status: ('A' for Active; 'I' for Inactive)
REMARK    1  A    between atoms: C_1  and  O_2
REMARK    2  A    between atoms: O_2  and  C_3
REMARK    3  A    between atoms: C_7  and  C_8
REMARK    4  A    between atoms: C_8  and  N_9
REMARK    5  A    between atoms: C_10  and  C_13
REMARK    6  A    between atoms: N_11  and  O_12
REMARK    7  A    between atoms: C_18  and  O_19
REMARK    8  A    between atoms: O_19  and  C_20
REMARK                            x       y       z     vdW  Elec       q    Type
REMARK                         _______ _______ _______ _____ _____    ______ ____
ROOT
ATOM      1  N   UNL     1       2.034   7.793  20.168  0.00  0.00    +0.000 N 
ATOM      2  C   UNL     1       2.386   6.790  19.284  0.00  0.00    +0.000 C 
ATOM      3  N   UNL     1       2.675   6.922  18.022  0.00  0.00    +0.000 NA
ATOM      4  H   UNL     1       2.346   7.723  21.127  0.00  0.00    +0.000 HD
ENDROOT
BRANCH   2   5
ATOM      5  C   UNL     1       2.420   5.367  19.788  0.00  0.00    +0.000 A 
ATOM      6  C   UNL     1       1.198   4.794  20.175  0.00  0.00    +0.000 A 
ATOM      7  C   UNL     1       1.140   3.475  20.616  0.00  0.00    +0.000 A 
ATOM      8  C   UNL     1       2.313   2.749  20.638  0.00  0.00    +0.000 A 
ATOM      9  N   UNL     1       3.511   3.263  20.290  0.00  0.00    +0.000 NA
ATOM     10  C   UNL     1       3.556   4.573  19.908  0.00  0.00    +0.000 A 
BRANCH  10  11
ATOM     11  O   UNL     1       4.803   5.097  19.582  0.00  0.00    +0.000 OA
BRANCH  11  12
ATOM     12  C   UNL     1       5.230   5.004  18.274  0.00  0.00    +0.000 A 
ATOM     13  C   UNL     1       6.231   5.895  17.875  0.00  0.00    +0.000 A 
ATOM     14  C   UNL     1       6.766   5.824  16.583  0.00  0.00    +0.000 A 
ATOM     15  C   UNL     1       6.300   4.860  15.689  0.00  0.00    +0.000 A 
ATOM     16 CL   UNL     1       6.972   4.758  14.109  0.00  0.00    +0.000 Cl
ATOM     17  C   UNL     1       5.302   3.968  16.075  0.00  0.00    +0.000 A 
ATOM     18  C   UNL     1       4.782   4.029  17.371  0.00  0.00    +0.000 A 
ENDBRANCH  11  12
ENDBRANCH  10  11
ENDBRANCH   2   5
BRANCH   3  19
ATOM     19  O   UNL     1       2.726   8.251  17.590  0.00  0.00    +0.000 OA
ATOM     20  H   UNL     1       3.512   8.247  17.015  0.00  0.00    +0.000 HD
ENDBRANCH   3  19
BRANCH   1  21
ATOM     21  C   UNL     1       1.373   9.027  19.805  0.00  0.00    +0.000 C 
BRANCH  21  26
ATOM     22  C   UNL     1      -1.094  11.053  21.911  0.00  0.00    +0.000 A 
ATOM     23  C   UNL     1      -0.888  10.486  23.173  0.00  0.00    +0.000 A 
ATOM     24  C   UNL     1       0.027   9.446  23.342  0.00  0.00    +0.000 A 
ATOM     25  C   UNL     1       0.749   8.973  22.254  0.00  0.00    +0.000 A 
ATOM     26  C   UNL     1       0.574   9.541  20.979  0.00  0.00    +0.000 A 
ATOM     27  C   UNL     1      -0.371  10.570  20.817  0.00  0.00    +0.000 A 
BRANCH  22  29
ATOM     28  C   UNL     1      -2.748  12.299  23.085  0.00  0.00    +0.000 C 
ATOM     29  O   UNL     1      -2.013  12.066  21.891  0.00  0.00    +0.000 OA
ENDBRANCH  22  29
ENDBRANCH  21  26
ENDBRANCH   1  21
TORSDOF 7
ENDMDL
MODEL 5
REMARK VINA RESULT:      -7.9      3.577      8.789
REMARK  Name = 
REMARK  8 active torsions:
REMARK  status: ('A' for Active; 'I' for Inactive)
REMARK    1  A    between atoms: C_1  and  O_2
REMARK    2  A    between atoms: O_2  and  C_3
REMARK    3  A    between atoms: C_7  and  C_8
REMARK    4  A    between atoms: C_8  and  N_9
REMARK    5  A    between atoms: C_10  and  C_13
REMARK    6  A    between atoms: N_11  and  O_12
REMARK    7  A    between atoms: C_18  and  O_19
REMARK    8  A    between atoms: O_19  and  C_20
REMARK                            x       y       z     vdW  Elec       q    Type
REMARK                         _______ _______ _______ _____ _____    ______ ____
ROOT
ATOM      1  N   UNL     1       1.997   7.856  20.203  0.00  0.00    +0.000 N 
ATOM      2  C   UNL     1       2.397   6.864  19.328  0.00  0.00    +0.000 C 
ATOM      3  N   UNL     1       2.729   7.008  18.077  0.00  0.00    +0.000 NA
ATOM      4  H   UNL     1       2.275   7.786  21.173  0.00  0.00    +0.000 HD
ENDROOT
BRANCH   2   5
ATOM      5  C   UNL     1       2.435   5.439  19.825  0.00  0.00    +0.000 A 
ATOM      6  C   UNL     1       1.225   4.882  20.272  0.00  0.00    +0.000 A 
ATOM      7  C   UNL     1       1.170   3.563  20.711  0.00  0.00    +0.000 A 
ATOM      8  C   UNL     1       2.331   2.820  20.672  0.00  0.00    +0.000 A 
ATOM      9  N   UNL     1       3.518   3.317  20.265  0.00  0.00    +0.000 NA
ATOM     10  C   UNL     1       3.564   4.628  19.885  0.00  0.00    +0.000 A 
BRANCH  10  11
ATOM     11  O   UNL     1       4.800   5.134  19.498  0.00  0.00    +0.000 OA
BRANCH  11  12
ATOM     12  C   UNL     1       5.285   4.795  18.252  0.00  0.00    +0.000 A 
ATOM     13  C   UNL     1       4.361   4.285  17.335  0.00  0.00    +0.000 A 
ATOM     14  C   UNL     1       4.758   3.976  16.029  0.00  0.00    +0.000 A 
ATOM     15  C   UNL     1       6.081   4.179  15.638  0.00  0.00    +0.000 A 
ATOM     16 CL   UNL     1       6.567   3.821  14.027  0.00  0.00    +0.000 Cl
ATOM     17  C   UNL     1       7.012   4.686  16.543  0.00  0.00    +0.000 A 
ATOM     18  C   UNL     1       6.609   5.010  17.842  0.00  0.00    +0.000 A 
ENDBRANCH  11  12
ENDBRANCH  10  11
ENDBRANCH   2   5
BRANCH   3  19
ATOM     19  O   UNL     1       2.774   8.340  17.654  0.00  0.00    +0.000 OA
ATOM     20  H   UNL     1       2.091   8.355  16.959  0.00  0.00    +0.000 HD
ENDBRANCH   3  19
BRANCH   1  21
ATOM     21  C   UNL     1       1.331   9.082  19.823  0.00  0.00    +0.000 C 
BRANCH  21  26
ATOM     22  C   UNL     1      -0.957  11.276  21.962  0.00  0.00    +0.000 A 
ATOM     23  C   UNL     1      -0.910  10.593  23.181  0.00  0.00    +0.000 A 
ATOM     24  C   UNL     1      -0.159   9.423  23.310  0.00  0.00    +0.000 A 
ATOM     25  C   UNL     1       0.556   8.935  22.224  0.00  0.00    +0.000 A 
ATOM     26  C   UNL     1       0.539   9.615  20.993  0.00  0.00    +0.000 A 
ATOM     27  C   UNL     1      -0.242  10.779  20.870  0.00  0.00    +0.000 A 
BRANCH  22  29
ATOM     28  C   UNL     1      -1.522  13.313  23.057  0.00  0.00    +0.000 C 
ATOM     29  O   UNL     1      -1.724  12.409  21.979  0.00  0.00    +0.000 OA
ENDBRANCH  22  29
ENDBRANCH  21  26
ENDBRANCH   1  21
TORSDOF 7
ENDMDL
MODEL 6
REMARK VINA RESULT:      -7.8      1.313      1.434
REMARK  Name = 
REMARK  8 active torsions:
REMARK  status: ('A' for Active; 'I' for Inactive)
REMARK    1  A    between atoms: C_1  and  O_2
REMARK    2  A    between atoms: O_2  and  C_3
REMARK    3  A    between atoms: C_7  and  C_8
REMARK    4  A    between atoms: C_8  and  N_9
REMARK    5  A    between atoms: C_10  and  C_13
REMARK    6  A    between atoms: N_11  and  O_12
REMARK    7  A    between atoms: C_18  and  O_19
REMARK    8  A    between atoms: O_19  and  C_20
REMARK                            x       y       z     vdW  Elec       q    Type
REMARK                         _______ _______ _______ _____ _____    ______ ____
ROOT
ATOM      1  N   UNL     1       5.065   4.223  16.479  0.00  0.00    +0.000 N 
ATOM      2  C   UNL     1       4.203   5.149  17.037  0.00  0.00    +0.000 C 
ATOM      3  N   UNL     1       4.251   6.444  16.906  0.00  0.00    +0.000 NA
ATOM      4  H   UNL     1       4.690   3.334  16.179  0.00  0.00    +0.000 HD
ENDROOT
BRANCH   2   5
ATOM      5  C   UNL     1       3.093   4.651  17.929  0.00  0.00    +0.000 A 
ATOM      6  C   UNL     1       2.525   3.405  17.613  0.00  0.00    +0.000 A 
ATOM      7  C   UNL     1       1.522   2.860  18.408  0.00  0.00    +0.000 A 
ATOM      8  C   UNL     1       1.122   3.569  19.522  0.00  0.00    +0.000 A 
ATOM      9  N   UNL     1       1.628   4.775  19.855  0.00  0.00    +0.000 NA
ATOM     10  C   UNL     1       2.576   5.318  19.036  0.00  0.00    +0.000 A 
BRANCH  10  11
ATOM     11  O   UNL     1       3.066   6.574  19.375  0.00  0.00    +0.000 OA
BRANCH  11  12
ATOM     12  C   UNL     1       2.191   7.641  19.371  0.00  0.00    +0.000 A 
ATOM     13  C   UNL     1       1.639   8.006  20.603  0.00  0.00    +0.000 A 
ATOM     14  C   UNL     1       0.793   9.116  20.698  0.00  0.00    +0.000 A 
ATOM     15  C   UNL     1       0.497   9.864  19.558  0.00  0.00    +0.000 A 
ATOM     16 CL   UNL     1      -0.526  11.242  19.675  0.00  0.00    +0.000 Cl
ATOM     17  C   UNL     1       1.039   9.509  18.324  0.00  0.00    +0.000 A 
ATOM     18  C   UNL     1       1.899   8.410  18.236  0.00  0.00    +0.000 A 
ENDBRANCH  11  12
ENDBRANCH  10  11
ENDBRANCH   2   5
BRANCH   3  19
ATOM     19  O   UNL     1       5.228   6.886  16.010  0.00  0.00    +0.000 OA
ATOM     20  H   UNL     1       5.261   7.841  16.200  0.00  0.00    +0.000 HD
ENDBRANCH   3  19
BRANCH   1  21
ATOM     21  C   UNL     1       6.450   4.472  16.144  0.00  0.00    +0.000 C 
BRANCH  21  26
ATOM     22  C   UNL     1       6.006   3.452  12.485  0.00  0.00    +0.000 A 
ATOM     23  C   UNL     1       7.008   4.215  11.877  0.00  0.00    +0.000 A 
ATOM     24  C   UNL     1       7.812   5.065  12.638  0.00  0.00    +0.000 A 
ATOM     25  C   UNL     1       7.625   5.151  14.012  0.00  0.00    +0.000 A 
ATOM     26  C   UNL     1       6.636   4.380  14.648  0.00  0.00    +0.000 A 
ATOM     27  C   UNL     1       5.816   3.547  13.866  0.00  0.00    +0.000 A 
BRANCH  22  29
ATOM     28  C   UNL     1       4.057   3.163  11.149  0.00  0.00    +0.000 C 
ATOM     29  O   UNL     1       5.299   2.660  11.623  0.00  0.00    +0.000 OA
ENDBRANCH  22  29
ENDBRANCH  21  26
ENDBRANCH   1  21
TORSDOF 7
ENDMDL
MODEL 7
REMARK VINA RESULT:      -7.7      1.246      1.608
REMARK  Name = 
REMARK  8 active torsions:
REMARK  status: ('A' for Active; 'I' for Inactive)
REMARK    1  A    between atoms: C_1  and  O_2
REMARK    2  A    between atoms: O_2  and  C_3
REMARK    3  A    between atoms: C_7  and  C_8
REMARK    4  A    between atoms: C_8  and  N_9
REMARK    5  A    between atoms: C_10  and  C_13
REMARK    6  A    between atoms: N_11  and  O_12
REMARK    7  A    between atoms: C_18  and  O_19
REMARK    8  A    between atoms: O_19  and  C_20
REMARK                            x       y       z     vdW  Elec       q    Type
REMARK                         _______ _______ _______ _____ _____    ______ ____
ROOT
ATOM      1  N   UNL     1       5.049   4.356  16.367  0.00  0.00    +0.000 N 
ATOM      2  C   UNL     1       4.306   5.275  17.084  0.00  0.00    +0.000 C 
ATOM      3  N   UNL     1       4.505   6.560  17.155  0.00  0.00    +0.000 NA
ATOM      4  H   UNL     1       4.570   3.574  15.941  0.00  0.00    +0.000 HD
ENDROOT
BRANCH   2   5
ATOM      5  C   UNL     1       3.150   4.773  17.914  0.00  0.00    +0.000 A 
ATOM      6  C   UNL     1       2.576   3.546  17.542  0.00  0.00    +0.000 A 
ATOM      7  C   UNL     1       1.531   2.998  18.279  0.00  0.00    +0.000 A 
ATOM      8  C   UNL     1       1.095   3.686  19.392  0.00  0.00    +0.000 A 
ATOM      9  N   UNL     1       1.605   4.875  19.778  0.00  0.00    +0.000 NA
ATOM     10  C   UNL     1       2.596   5.421  19.014  0.00  0.00    +0.000 A 
BRANCH  10  11
ATOM     11  O   UNL     1       3.091   6.660  19.407  0.00  0.00    +0.000 OA
BRANCH  11  12
ATOM     12  C   UNL     1       2.222   7.731  19.441  0.00  0.00    +0.000 A 
ATOM     13  C   UNL     1       1.985   8.387  18.229  0.00  0.00    +0.000 A 
ATOM     14  C   UNL     1       1.068   9.443  18.165  0.00  0.00    +0.000 A 
ATOM     15  C   UNL     1       0.385   9.842  19.314  0.00  0.00    +0.000 A 
ATOM     16 CL   UNL     1      -0.758  11.125  19.232  0.00  0.00    +0.000 Cl
ATOM     17  C   UNL     1       0.614   9.198  20.527  0.00  0.00    +0.000 A 
ATOM     18  C   UNL     1       1.518   8.132  20.586  0.00  0.00    +0.000 A 
ENDBRANCH  11  12
ENDBRANCH  10  11
ENDBRANCH   2   5
BRANCH   3  19
ATOM     19  O   UNL     1       5.522   7.022  16.315  0.00  0.00    +0.000 OA
ATOM     20  H   UNL     1       5.098   6.974  15.439  0.00  0.00    +0.000 HD
ENDBRANCH   3  19
BRANCH   1  21
ATOM     21  C   UNL     1       6.452   4.492  16.041  0.00  0.00    +0.000 C 
BRANCH  21  26
ATOM     22  C   UNL     1       6.075   3.378  12.402  0.00  0.00    +0.000 A 
ATOM     23  C   UNL     1       7.013   4.205  11.777  0.00  0.00    +0.000 A 
ATOM     24  C   UNL     1       7.751   5.128  12.519  0.00  0.00    +0.000 A 
ATOM     25  C   UNL     1       7.564   5.223  13.891  0.00  0.00    +0.000 A 
ATOM     26  C   UNL     1       6.639   4.389  14.546  0.00  0.00    +0.000 A 
ATOM     27  C   UNL     1       5.883   3.481  13.782  0.00  0.00    +0.000 A 
BRANCH  22  29
ATOM     28  C   UNL     1       6.048   1.264  11.310  0.00  0.00    +0.000 C 
ATOM     29  O   UNL     1       5.428   2.518  11.557  0.00  0.00    +0.000 OA
ENDBRANCH  22  29
ENDBRANCH  21  26
ENDBRANCH   1  21
TORSDOF 7
ENDMDL
MODEL 8
REMARK VINA RESULT:      -7.4      4.694      7.785
REMARK  Name = 
REMARK  8 active torsions:
REMARK  status: ('A' for Active; 'I' for Inactive)
REMARK    1  A    between atoms: C_1  and  O_2
REMARK    2  A    between atoms: O_2  and  C_3
REMARK    3  A    between atoms: C_7  and  C_8
REMARK    4  A    between atoms: C_8  and  N_9
REMARK    5  A    between atoms: C_10  and  C_13
REMARK    6  A    between atoms: N_11  and  O_12
REMARK    7  A    between atoms: C_18  and  O_19
REMARK    8  A    between atoms: O_19  and  C_20
REMARK                            x       y       z     vdW  Elec       q    Type
REMARK                         _______ _______ _______ _____ _____    ______ ____
ROOT
ATOM      1  N   UNL     1       1.029   9.381  18.669  0.00  0.00    +0.000 N 
ATOM      2  C   UNL     1       0.983  10.558  19.394  0.00  0.00    +0.000 C 
ATOM      3  N   UNL     1       1.539  11.693  19.083  0.00  0.00    +0.000 NA
ATOM      4  H   UNL     1       0.213   8.785  18.664  0.00  0.00    +0.000 HD
ENDROOT
BRANCH   2   5
ATOM      5  C   UNL     1       0.246  10.561  20.711  0.00  0.00    +0.000 A 
ATOM      6  C   UNL     1       0.623   9.598  21.661  0.00  0.00    +0.000 A 
ATOM      7  C   UNL     1       0.016   9.559  22.912  0.00  0.00    +0.000 A 
ATOM      8  C   UNL     1      -0.945  10.507  23.194  0.00  0.00    +0.000 A 
ATOM      9  N   UNL     1      -1.349  11.441  22.309  0.00  0.00    +0.000 NA
ATOM     10  C   UNL     1      -0.779  11.433  21.068  0.00  0.00    +0.000 A 
BRANCH  10  11
ATOM     11  O   UNL     1      -1.228  12.381  20.156  0.00  0.00    +0.000 OA
BRANCH  11  12
ATOM     12  C   UNL     1      -2.502  12.247  19.644  0.00  0.00    +0.000 A 
ATOM     13  C   UNL     1      -2.642  11.439  18.512  0.00  0.00    +0.000 A 
ATOM     14  C   UNL     1      -3.909  11.198  17.968  0.00  0.00    +0.000 A 
ATOM     15  C   UNL     1      -5.039  11.765  18.558  0.00  0.00    +0.000 A 
ATOM     16 CL   UNL     1      -6.599  11.453  17.904  0.00  0.00    +0.000 Cl
ATOM     17  C   UNL     1      -4.912  12.574  19.685  0.00  0.00    +0.000 A 
ATOM     18  C   UNL     1      -3.647  12.798  20.237  0.00  0.00    +0.000 A 
ENDBRANCH  11  12
ENDBRANCH  10  11
ENDBRANCH   2   5
BRANCH   3  19
ATOM     19  O   UNL     1       2.143  11.701  17.822  0.00  0.00    +0.000 OA
ATOM     20  H   UNL     1       3.029  11.346  18.020  0.00  0.00    +0.000 HD
ENDBRANCH   3  19
BRANCH   1  21
ATOM     21  C   UNL     1       2.103   8.993  17.782  0.00  0.00    +0.000 C 
BRANCH  21  26
ATOM     22  C   UNL     1       2.770   5.829  19.824  0.00  0.00    +0.000 A 
ATOM     23  C   UNL     1       3.832   5.272  19.104  0.00  0.00    +0.000 A 
ATOM     24  C   UNL     1       4.320   5.902  17.958  0.00  0.00    +0.000 A 
ATOM     25  C   UNL     1       3.757   7.097  17.531  0.00  0.00    +0.000 A 
ATOM     26  C   UNL     1       2.700   7.687  18.249  0.00  0.00    +0.000 A 
ATOM     27  C   UNL     1       2.201   7.027  19.387  0.00  0.00    +0.000 A 
BRANCH  22  29
ATOM     28  C   UNL     1       2.131   3.727  20.739  0.00  0.00    +0.000 C 
ATOM     29  O   UNL     1       2.398   5.110  20.926  0.00  0.00    +0.000 OA
ENDBRANCH  22  29
ENDBRANCH  21  26
ENDBRANCH   1  21
TORSDOF 7
ENDMDL
MODEL 9
REMARK VINA RESULT:      -7.3      1.341      1.871
REMARK  Name = 
REMARK  8 active torsions:
REMARK  status: ('A' for Active; 'I' for Inactive)
REMARK    1  A    between atoms: C_1  and  O_2
REMARK    2  A    between atoms: O_2  and  C_3
REMARK    3  A    between atoms: C_7  and  C_8
REMARK    4  A    between atoms: C_8  and  N_9
REMARK    5  A    between atoms: C_10  and  C_13
REMARK    6  A    between atoms: N_11  and  O_12
REMARK    7  A    between atoms: C_18  and  O_19
REMARK    8  A    between atoms: O_19  and  C_20
REMARK                            x       y       z     vdW  Elec       q    Type
REMARK                         _______ _______ _______ _____ _____    ______ ____
ROOT
ATOM      1  N   UNL     1       5.007   6.107  18.192  0.00  0.00    +0.000 N 
ATOM      2  C   UNL     1       4.820   5.138  19.161  0.00  0.00    +0.000 C 
ATOM      3  N   UNL     1       5.733   4.592  19.911  0.00  0.00    +0.000 NA
ATOM      4  H   UNL     1       4.292   6.811  18.068  0.00  0.00    +0.000 HD
ENDROOT
BRANCH   2   5
ATOM      5  C   UNL     1       3.426   4.603  19.381  0.00  0.00    +0.000 A 
ATOM      6  C   UNL     1       3.126   3.345  18.832  0.00  0.00    +0.000 A 
ATOM      7  C   UNL     1       1.876   2.766  19.022  0.00  0.00    +0.000 A 
ATOM      8  C   UNL     1       0.953   3.456  19.782  0.00  0.00    +0.000 A 
ATOM      9  N   UNL     1       1.191   4.673  20.315  0.00  0.00    +0.000 NA
ATOM     10  C   UNL     1       2.407   5.247  20.076  0.00  0.00    +0.000 A 
BRANCH  10  11
ATOM     11  O   UNL     1       2.626   6.514  20.605  0.00  0.00    +0.000 OA
BRANCH  11  12
ATOM     12  C   UNL     1       1.948   7.581  20.053  0.00  0.00    +0.000 A 
ATOM     13  C   UNL     1       1.167   8.348  20.923  0.00  0.00    +0.000 A 
ATOM     14  C   UNL     1       0.499   9.485  20.457  0.00  0.00    +0.000 A 
ATOM     15  C   UNL     1       0.611   9.858  19.117  0.00  0.00    +0.000 A 
ATOM     16 CL   UNL     1      -0.192  11.267  18.546  0.00  0.00    +0.000 Cl
ATOM     17  C   UNL     1       1.385   9.101  18.240  0.00  0.00    +0.000 A 
ATOM     18  C   UNL     1       2.067   7.975  18.712  0.00  0.00    +0.000 A 
ENDBRANCH  11  12
ENDBRANCH  10  11
ENDBRANCH   2   5
BRANCH   3  19
ATOM     19  O   UNL     1       7.002   5.158  19.759  0.00  0.00    +0.000 OA
ATOM     20  H   UNL     1       7.288   4.787  18.905  0.00  0.00    +0.000 HD
ENDBRANCH   3  19
BRANCH   1  21
ATOM     21  C   UNL     1       6.221   6.296  17.428  0.00  0.00    +0.000 C 
BRANCH  21  26
ATOM     22  C   UNL     1       6.997   4.901  13.953  0.00  0.00    +0.000 A 
ATOM     23  C   UNL     1       6.059   3.867  13.871  0.00  0.00    +0.000 A 
ATOM     24  C   UNL     1       5.192   3.610  14.934  0.00  0.00    +0.000 A 
ATOM     25  C   UNL     1       5.251   4.390  16.081  0.00  0.00    +0.000 A 
ATOM     26  C   UNL     1       6.174   5.447  16.181  0.00  0.00    +0.000 A 
ATOM     27  C   UNL     1       7.059   5.679  15.112  0.00  0.00    +0.000 A 
BRANCH  22  29
ATOM     28  C   UNL     1       7.372   4.348  11.669  0.00  0.00    +0.000 C 
ATOM     29  O   UNL     1       7.778   5.045  12.839  0.00  0.00    +0.000 OA
ENDBRANCH  22  29
ENDBRANCH  21  26
ENDBRANCH   1  21
TORSDOF 7
ENDMDL
