MODEL 1
REMARK VINA RESULT:      -8.2      0.000      0.000
REMARK  Name = 
REMARK  12 active torsions:
REMARK  status: ('A' for Active; 'I' for Inactive)
REMARK    1  A    between atoms: C_1  and  O_2
REMARK    2  A    between atoms: O_2  and  C_3
REMARK    3  A    between atoms: C_6  and  C_7
REMARK    4  A    between atoms: C_9  and  S_10
REMARK    5  A    between atoms: S_10  and  N_13
REMARK    6  A    between atoms: N_13  and  C_14
REMARK    7  A    between atoms: N_13  and  C_27
REMARK    8  A    between atoms: C_14  and  C_15
REMARK    9  A    between atoms: N_17  and  C_18
REMARK   10  A    between atoms: C_22  and  N_23
REMARK   11  A    between atoms: C_30  and  C_31
REMARK   12  A    between atoms: C_32  and  C_33
REMARK                            x       y       z     vdW  Elec       q    Type
REMARK                         _______ _______ _______ _____ _____    ______ ____
ROOT
ATOM      1  N   UNL     1       0.206  10.898  19.768  0.00  0.00    +0.000 N 
ENDROOT
BRANCH   1   2
ATOM      2  C   UNL     1      -1.057  11.059  19.072  0.00  0.00    +0.000 A 
ATOM      3  C   UNL     1      -2.062  11.919  19.514  0.00  0.00    +0.000 A 
ATOM      4  C   UNL     1      -3.269  12.029  18.795  0.00  0.00    +0.000 A 
ATOM      5  C   UNL     1      -3.495  11.282  17.629  0.00  0.00    +0.000 A 
ATOM      6  C   UNL     1      -4.823  11.381  16.921  0.00  0.00    +0.000 C 
ATOM      7  C   UNL     1      -2.471  10.435  17.166  0.00  0.00    +0.000 A 
ATOM      8  C   UNL     1      -2.588   9.630  15.896  0.00  0.00    +0.000 C 
ATOM      9  C   UNL     1      -1.261  10.342  17.892  0.00  0.00    +0.000 A 
ENDBRANCH   1   2
BRANCH   1  10
ATOM     10  S   UNL     1       0.117  10.519  21.431  0.00  0.00    +0.000 S 
ATOM     11  O   UNL     1       1.495  10.447  21.892  0.00  0.00    +0.000 OA
ATOM     12  O   UNL     1      -0.727   9.355  21.587  0.00  0.00    +0.000 OA
BRANCH  10  19
ATOM     13  C   UNL     1      -0.160  13.205  22.217  0.00  0.00    +0.000 A 
ATOM     14  C   UNL     1      -0.907  14.225  22.823  0.00  0.00    +0.000 A 
ATOM     15  C   UNL     1      -2.115  13.950  23.485  0.00  0.00    +0.000 A 
ATOM     16  C   UNL     1      -2.595  12.642  23.560  0.00  0.00    +0.000 A 
ATOM     17  C   UNL     1      -3.903  12.314  24.220  0.00  0.00    +0.000 C 
ATOM     18  C   UNL     1      -1.865  11.624  22.941  0.00  0.00    +0.000 A 
ATOM     19  C   UNL     1      -0.649  11.892  22.285  0.00  0.00    +0.000 A 
BRANCH  13  21
ATOM     20  C   UNL     1       1.152  14.565  20.731  0.00  0.00    +0.000 C 
ATOM     21  O   UNL     1       1.019  13.416  21.564  0.00  0.00    +0.000 OA
ENDBRANCH  13  21
ENDBRANCH  10  19
ENDBRANCH   1  10
BRANCH   1  22
ATOM     22  C   UNL     1       1.352  10.361  18.997  0.00  0.00    +0.000 C 
BRANCH  22  23
ATOM     23  C   UNL     1       1.501   8.844  18.780  0.00  0.00    +0.000 C 
ATOM     24  O   UNL     1       1.620   8.420  17.628  0.00  0.00    +0.000 OA
ATOM     25  N   UNL     1       1.669   8.073  19.923  0.00  0.00    +0.000 N 
ATOM     26  H   UNL     1       1.373   8.505  20.791  0.00  0.00    +0.000 HD
BRANCH  25  27
ATOM     27  C   UNL     1       2.208   6.756  20.008  0.00  0.00    +0.000 A 
ATOM     28  C   UNL     1       1.578   5.684  20.656  0.00  0.00    +0.000 A 
ATOM     29  C   UNL     1       2.105   4.379  20.599  0.00  0.00    +0.000 A 
ATOM     30  C   UNL     1       3.267   4.119  19.882  0.00  0.00    +0.000 A 
ATOM     31  C   UNL     1       3.917   5.183  19.251  0.00  0.00    +0.000 A 
ATOM     32  C   UNL     1       3.407   6.498  19.330  0.00  0.00    +0.000 A 
BRANCH  31  33
ATOM     33  N   UNL     1       5.126   4.918  18.451  0.00  0.00    +0.000 N 
ATOM     34  O   UNL     1       6.117   4.460  19.039  0.00  0.00    +0.000 OA
ATOM     35  O   UNL     1       5.075   5.155  17.235  0.00  0.00    +0.000 OA
ENDBRANCH  31  33
ENDBRANCH  25  27
ENDBRANCH  22  23
ENDBRANCH   1  22
TORSDOF 8
ENDMDL
MODEL 2
REMARK VINA RESULT:      -8.1      1.565      1.789
REMARK  Name = 
REMARK  12 active torsions:
REMARK  status: ('A' for Active; 'I' for Inactive)
REMARK    1  A    between atoms: C_1  and  O_2
REMARK    2  A    between atoms: O_2  and  C_3
REMARK    3  A    between atoms: C_6  and  C_7
REMARK    4  A    between atoms: C_9  and  S_10
REMARK    5  A    between atoms: S_10  and  N_13
REMARK    6  A    between atoms: N_13  and  C_14
REMARK    7  A    between atoms: N_13  and  C_27
REMARK    8  A    between atoms: C_14  and  C_15
REMARK    9  A    between atoms: N_17  and  C_18
REMARK   10  A    between atoms: C_22  and  N_23
REMARK   11  A    between atoms: C_30  and  C_31
REMARK   12  A    between atoms: C_32  and  C_33
REMARK                            x       y       z     vdW  Elec       q    Type
REMARK                         _______ _______ _______ _____ _____    ______ ____
ROOT
ATOM      1  N   UNL     1       0.147  10.862  19.725  0.00  0.00    +0.000 N 
ENDROOT
BRANCH   1   2
ATOM      2  C   UNL     1      -1.126  11.022  19.049  0.00  0.00    +0.000 A 
ATOM      3  C   UNL     1      -2.140  11.852  19.527  0.00  0.00    +0.000 A 
ATOM      4  C   UNL     1      -3.357  11.964  18.825  0.00  0.00    +0.000 A 
ATOM      5  C   UNL     1      -3.584  11.248  17.640  0.00  0.00    +0.000 A 
ATOM      6  C   UNL     1      -4.922  11.346  16.950  0.00  0.00    +0.000 C 
ATOM      7  C   UNL     1      -2.552  10.433  17.140  0.00  0.00    +0.000 A 
ATOM      8  C   UNL     1      -2.670   9.664  15.848  0.00  0.00    +0.000 C 
ATOM      9  C   UNL     1      -1.333  10.338  17.850  0.00  0.00    +0.000 A 
ENDBRANCH   1   2
BRANCH   1  10
ATOM     10  S   UNL     1       0.083  10.471  21.386  0.00  0.00    +0.000 S 
ATOM     11  O   UNL     1       1.468  10.400  21.827  0.00  0.00    +0.000 OA
ATOM     12  O   UNL     1      -0.757   9.305  21.547  0.00  0.00    +0.000 OA
BRANCH  10  19
ATOM     13  C   UNL     1      -0.190  13.152  22.193  0.00  0.00    +0.000 A 
ATOM     14  C   UNL     1      -0.930  14.166  22.817  0.00  0.00    +0.000 A 
ATOM     15  C   UNL     1      -2.126  13.884  23.495  0.00  0.00    +0.000 A 
ATOM     16  C   UNL     1      -2.601  12.574  23.571  0.00  0.00    +0.000 A 
ATOM     17  C   UNL     1      -3.898  12.238  24.250  0.00  0.00    +0.000 C 
ATOM     18  C   UNL     1      -1.878  11.562  22.934  0.00  0.00    +0.000 A 
ATOM     19  C   UNL     1      -0.674  11.837  22.261  0.00  0.00    +0.000 A 
BRANCH  13  21
ATOM     20  C   UNL     1       1.688  14.586  21.747  0.00  0.00    +0.000 C 
ATOM     21  O   UNL     1       0.978  13.370  21.522  0.00  0.00    +0.000 OA
ENDBRANCH  13  21
ENDBRANCH  10  19
ENDBRANCH   1  10
BRANCH   1  22
ATOM     22  C   UNL     1       1.284  10.333  18.934  0.00  0.00    +0.000 C 
BRANCH  22  23
ATOM     23  C   UNL     1       1.408   8.823  18.663  0.00  0.00    +0.000 C 
ATOM     24  O   UNL     1       1.203   8.408  17.520  0.00  0.00    +0.000 OA
ATOM     25  N   UNL     1       1.920   8.053  19.699  0.00  0.00    +0.000 N 
ATOM     26  H   UNL     1       1.874   8.472  20.621  0.00  0.00    +0.000 HD
BRANCH  25  27
ATOM     27  C   UNL     1       2.499   6.753  19.608  0.00  0.00    +0.000 A 
ATOM     28  C   UNL     1       3.679   6.459  18.912  0.00  0.00    +0.000 A 
ATOM     29  C   UNL     1       4.264   5.178  18.963  0.00  0.00    +0.000 A 
ATOM     30  C   UNL     1       3.684   4.170  19.724  0.00  0.00    +0.000 A 
ATOM     31  C   UNL     1       2.494   4.443  20.404  0.00  0.00    +0.000 A 
ATOM     32  C   UNL     1       1.890   5.718  20.332  0.00  0.00    +0.000 A 
BRANCH  31  33
ATOM     33  N   UNL     1       1.890   3.398  21.249  0.00  0.00    +0.000 N 
ATOM     34  O   UNL     1       2.577   2.932  22.169  0.00  0.00    +0.000 OA
ATOM     35  O   UNL     1       0.724   3.057  20.998  0.00  0.00    +0.000 OA
ENDBRANCH  31  33
ENDBRANCH  25  27
ENDBRANCH  22  23
ENDBRANCH   1  22
TORSDOF 8
ENDMDL
MODEL 3
REMARK VINA RESULT:      -8.0      0.447      1.232
REMARK  Name = 
REMARK  12 active torsions:
REMARK  status: ('A' for Active; 'I' for Inactive)
REMARK    1  A    between atoms: C_1  and  O_2
REMARK    2  A    between atoms: O_2  and  C_3
REMARK    3  A    between atoms: C_6  and  C_7
REMARK    4  A    between atoms: C_9  and  S_10
REMARK    5  A    between atoms: S_10  and  N_13
REMARK    6  A    between atoms: N_13  and  C_14
REMARK    7  A    between atoms: N_13  and  C_27
REMARK    8  A    between atoms: C_14  and  C_15
REMARK    9  A    between atoms: N_17  and  C_18
REMARK   10  A    between atoms: C_22  and  N_23
REMARK   11  A    between atoms: C_30  and  C_31
REMARK   12  A    between atoms: C_32  and  C_33
REMARK                            x       y       z     vdW  Elec       q    Type
REMARK                         _______ _______ _______ _____ _____    ______ ____
ROOT
ATOM      1  N   UNL     1       0.369  10.610  19.751  0.00  0.00    +0.000 N 
ENDROOT
BRANCH   1   2
ATOM      2  C   UNL     1      -0.855  10.726  18.982  0.00  0.00    +0.000 A 
ATOM      3  C   UNL     1      -1.055  10.061  17.772  0.00  0.00    +0.000 A 
ATOM      4  C   UNL     1      -2.267  10.216  17.070  0.00  0.00    +0.000 A 
ATOM      5  C   UNL     1      -3.295  11.036  17.559  0.00  0.00    +0.000 A 
ATOM      6  C   UNL     1      -4.554  11.225  16.749  0.00  0.00    +0.000 C 
ATOM      7  C   UNL     1      -3.106  11.684  18.794  0.00  0.00    +0.000 A 
ATOM      8  C   UNL     1      -4.165  12.545  19.437  0.00  0.00    +0.000 C 
ATOM      9  C   UNL     1      -1.888  11.512  19.492  0.00  0.00    +0.000 A 
ENDBRANCH   1   2
BRANCH   1  10
ATOM     10  S   UNL     1       0.194  10.289  21.419  0.00  0.00    +0.000 S 
ATOM     11  O   UNL     1       1.546  10.171  21.942  0.00  0.00    +0.000 OA
ATOM     12  O   UNL     1      -0.710   9.171  21.574  0.00  0.00    +0.000 OA
BRANCH  10  19
ATOM     13  C   UNL     1      -0.019  13.017  22.070  0.00  0.00    +0.000 A 
ATOM     14  C   UNL     1      -0.743  14.086  22.618  0.00  0.00    +0.000 A 
ATOM     15  C   UNL     1      -1.964  13.875  23.279  0.00  0.00    +0.000 A 
ATOM     16  C   UNL     1      -2.480  12.586  23.414  0.00  0.00    +0.000 A 
ATOM     17  C   UNL     1      -3.802  12.325  24.075  0.00  0.00    +0.000 C 
ATOM     18  C   UNL     1      -1.772  11.519  22.853  0.00  0.00    +0.000 A 
ATOM     19  C   UNL     1      -0.544  11.722  22.197  0.00  0.00    +0.000 A 
BRANCH  13  21
ATOM     20  C   UNL     1       1.627  14.477  21.101  0.00  0.00    +0.000 C 
ATOM     21  O   UNL     1       1.171  13.165  21.419  0.00  0.00    +0.000 OA
ENDBRANCH  13  21
ENDBRANCH  10  19
ENDBRANCH   1  10
BRANCH   1  22
ATOM     22  C   UNL     1       1.564  10.063  19.065  0.00  0.00    +0.000 C 
BRANCH  22  23
ATOM     23  C   UNL     1       1.694   8.550  18.817  0.00  0.00    +0.000 C 
ATOM     24  O   UNL     1       1.877   8.152  17.664  0.00  0.00    +0.000 OA
ATOM     25  N   UNL     1       1.773   7.746  19.947  0.00  0.00    +0.000 N 
ATOM     26  H   UNL     1       1.432   8.163  20.806  0.00  0.00    +0.000 HD
BRANCH  25  27
ATOM     27  C   UNL     1       2.277   6.415  20.031  0.00  0.00    +0.000 A 
ATOM     28  C   UNL     1       1.568   5.334  20.569  0.00  0.00    +0.000 A 
ATOM     29  C   UNL     1       2.074   4.020  20.511  0.00  0.00    +0.000 A 
ATOM     30  C   UNL     1       3.296   3.763  19.901  0.00  0.00    +0.000 A 
ATOM     31  C   UNL     1       4.025   4.836  19.381  0.00  0.00    +0.000 A 
ATOM     32  C   UNL     1       3.533   6.158  19.463  0.00  0.00    +0.000 A 
BRANCH  31  33
ATOM     33  N   UNL     1       5.301   4.576  18.693  0.00  0.00    +0.000 N 
ATOM     34  O   UNL     1       6.348   4.765  19.330  0.00  0.00    +0.000 OA
ATOM     35  O   UNL     1       5.252   4.170  17.522  0.00  0.00    +0.000 OA
ENDBRANCH  31  33
ENDBRANCH  25  27
ENDBRANCH  22  23
ENDBRANCH   1  22
TORSDOF 8
ENDMDL
MODEL 4
REMARK VINA RESULT:      -7.9      3.205      7.309
REMARK  Name = 
REMARK  12 active torsions:
REMARK  status: ('A' for Active; 'I' for Inactive)
REMARK    1  A    between atoms: C_1  and  O_2
REMARK    2  A    between atoms: O_2  and  C_3
REMARK    3  A    between atoms: C_6  and  C_7
REMARK    4  A    between atoms: C_9  and  S_10
REMARK    5  A    between atoms: S_10  and  N_13
REMARK    6  A    between atoms: N_13  and  C_14
REMARK    7  A    between atoms: N_13  and  C_27
REMARK    8  A    between atoms: C_14  and  C_15
REMARK    9  A    between atoms: N_17  and  C_18
REMARK   10  A    between atoms: C_22  and  N_23
REMARK   11  A    between atoms: C_30  and  C_31
REMARK   12  A    between atoms: C_32  and  C_33
REMARK                            x       y       z     vdW  Elec       q    Type
REMARK                         _______ _______ _______ _____ _____    ______ ____
ROOT
ATOM      1  N   UNL     1      -0.049  11.605  19.678  0.00  0.00    +0.000 N 
ENDROOT
BRANCH   1   2
ATOM      2  C   UNL     1       0.560  10.297  19.828  0.00  0.00    +0.000 A 
ATOM      3  C   UNL     1       0.414   9.520  20.978  0.00  0.00    +0.000 A 
ATOM      4  C   UNL     1       1.033   8.258  21.064  0.00  0.00    +0.000 A 
ATOM      5  C   UNL     1       1.809   7.751  20.010  0.00  0.00    +0.000 A 
ATOM      6  C   UNL     1       2.507   6.422  20.164  0.00  0.00    +0.000 C 
ATOM      7  C   UNL     1       1.933   8.520  18.838  0.00  0.00    +0.000 A 
ATOM      8  C   UNL     1       2.698   8.048  17.627  0.00  0.00    +0.000 C 
ATOM      9  C   UNL     1       1.299   9.782  18.762  0.00  0.00    +0.000 A 
ENDBRANCH   1   2
BRANCH   1  10
ATOM     10  S   UNL     1       0.786  12.920  20.378  0.00  0.00    +0.000 S 
ATOM     11  O   UNL     1       0.774  13.973  19.375  0.00  0.00    +0.000 OA
ATOM     12  O   UNL     1       2.061  12.441  20.866  0.00  0.00    +0.000 OA
BRANCH  10  19
ATOM     13  C   UNL     1       0.027  14.783  22.344  0.00  0.00    +0.000 A 
ATOM     14  C   UNL     1      -0.853  15.198  23.353  0.00  0.00    +0.000 A 
ATOM     15  C   UNL     1      -1.903  14.373  23.790  0.00  0.00    +0.000 A 
ATOM     16  C   UNL     1      -2.085  13.108  23.229  0.00  0.00    +0.000 A 
ATOM     17  C   UNL     1      -3.220  12.215  23.638  0.00  0.00    +0.000 C 
ATOM     18  C   UNL     1      -1.222  12.698  22.209  0.00  0.00    +0.000 A 
ATOM     19  C   UNL     1      -0.164  13.516  21.774  0.00  0.00    +0.000 A 
BRANCH  13  21
ATOM     20  C   UNL     1       1.874  16.247  22.820  0.00  0.00    +0.000 C 
ATOM     21  O   UNL     1       1.063  15.543  21.883  0.00  0.00    +0.000 OA
ENDBRANCH  13  21
ENDBRANCH  10  19
ENDBRANCH   1  10
BRANCH   1  22
ATOM     22  C   UNL     1      -0.832  11.862  18.445  0.00  0.00    +0.000 C 
BRANCH  22  23
ATOM     23  C   UNL     1      -2.272  11.336  18.314  0.00  0.00    +0.000 C 
ATOM     24  O   UNL     1      -2.448  10.128  18.137  0.00  0.00    +0.000 OA
ATOM     25  N   UNL     1      -3.286  12.246  18.586  0.00  0.00    +0.000 N 
ATOM     26  H   UNL     1      -3.022  13.224  18.537  0.00  0.00    +0.000 HD
BRANCH  25  27
ATOM     27  C   UNL     1      -4.642  11.959  18.922  0.00  0.00    +0.000 A 
ATOM     28  C   UNL     1      -5.521  11.230  18.111  0.00  0.00    +0.000 A 
ATOM     29  C   UNL     1      -6.810  10.877  18.555  0.00  0.00    +0.000 A 
ATOM     30  C   UNL     1      -7.239  11.237  19.828  0.00  0.00    +0.000 A 
ATOM     31  C   UNL     1      -6.380  11.984  20.638  0.00  0.00    +0.000 A 
ATOM     32  C   UNL     1      -5.098  12.365  20.184  0.00  0.00    +0.000 A 
BRANCH  31  33
ATOM     33  N   UNL     1      -6.803  12.337  22.005  0.00  0.00    +0.000 N 
ATOM     34  O   UNL     1      -6.458  13.442  22.447  0.00  0.00    +0.000 OA
ATOM     35  O   UNL     1      -7.491  11.512  22.626  0.00  0.00    +0.000 OA
ENDBRANCH  31  33
ENDBRANCH  25  27
ENDBRANCH  22  23
ENDBRANCH   1  22
TORSDOF 8
ENDMDL
MODEL 5
REMARK VINA RESULT:      -7.9      2.900      8.975
REMARK  Name = 
REMARK  12 active torsions:
REMARK  status: ('A' for Active; 'I' for Inactive)
REMARK    1  A    between atoms: C_1  and  O_2
REMARK    2  A    between atoms: O_2  and  C_3
REMARK    3  A    between atoms: C_6  and  C_7
REMARK    4  A    between atoms: C_9  and  S_10
REMARK    5  A    between atoms: S_10  and  N_13
REMARK    6  A    between atoms: N_13  and  C_14
REMARK    7  A    between atoms: N_13  and  C_27
REMARK    8  A    between atoms: C_14  and  C_15
REMARK    9  A    between atoms: N_17  and  C_18
REMARK   10  A    between atoms: C_22  and  N_23
REMARK   11  A    between atoms: C_30  and  C_31
REMARK   12  A    between atoms: C_32  and  C_33
REMARK                            x       y       z     vdW  Elec       q    Type
REMARK                         _______ _______ _______ _____ _____    ______ ____
ROOT
ATOM      1  N   UNL     1       3.262   6.805  17.763  0.00  0.00    +0.000 N 
ENDROOT
BRANCH   1   2
ATOM      2  C   UNL     1       2.725   5.849  18.713  0.00  0.00    +0.000 A 
ATOM      3  C   UNL     1       2.746   6.056  20.092  0.00  0.00    +0.000 A 
ATOM      4  C   UNL     1       2.210   5.087  20.963  0.00  0.00    +0.000 A 
ATOM      5  C   UNL     1       1.649   3.897  20.476  0.00  0.00    +0.000 A 
ATOM      6  C   UNL     1       1.141   2.857  21.443  0.00  0.00    +0.000 C 
ATOM      7  C   UNL     1       1.600   3.699  19.084  0.00  0.00    +0.000 A 
ATOM      8  C   UNL     1       0.971   2.483  18.452  0.00  0.00    +0.000 C 
ATOM      9  C   UNL     1       2.133   4.685  18.221  0.00  0.00    +0.000 A 
ENDBRANCH   1   2
BRANCH   1  10
ATOM     10  S   UNL     1       4.566   6.271  16.798  0.00  0.00    +0.000 S 
ATOM     11  O   UNL     1       4.640   7.204  15.685  0.00  0.00    +0.000 OA
ATOM     12  O   UNL     1       4.375   4.865  16.514  0.00  0.00    +0.000 OA
BRANCH  10  19
ATOM     13  C   UNL     1       6.691   5.393  18.417  0.00  0.00    +0.000 A 
ATOM     14  C   UNL     1       7.938   5.619  19.019  0.00  0.00    +0.000 A 
ATOM     15  C   UNL     1       8.565   6.873  18.947  0.00  0.00    +0.000 A 
ATOM     16  C   UNL     1       7.949   7.932  18.279  0.00  0.00    +0.000 A 
ATOM     17  C   UNL     1       8.607   9.275  18.144  0.00  0.00    +0.000 C 
ATOM     18  C   UNL     1       6.716   7.707  17.661  0.00  0.00    +0.000 A 
ATOM     19  C   UNL     1       6.079   6.456  17.737  0.00  0.00    +0.000 A 
BRANCH  13  21
ATOM     20  C   UNL     1       5.427   3.781  19.676  0.00  0.00    +0.000 C 
ATOM     21  O   UNL     1       6.038   4.196  18.457  0.00  0.00    +0.000 OA
ENDBRANCH  13  21
ENDBRANCH  10  19
ENDBRANCH   1  10
BRANCH   1  22
ATOM     22  C   UNL     1       2.324   7.789  17.173  0.00  0.00    +0.000 C 
BRANCH  22  23
ATOM     23  C   UNL     1       1.992   9.093  17.920  0.00  0.00    +0.000 C 
ATOM     24  O   UNL     1       2.443  10.155  17.485  0.00  0.00    +0.000 OA
ATOM     25  N   UNL     1       1.052   8.996  18.938  0.00  0.00    +0.000 N 
ATOM     26  H   UNL     1       0.902   8.064  19.309  0.00  0.00    +0.000 HD
BRANCH  25  27
ATOM     27  C   UNL     1       0.283  10.051  19.512  0.00  0.00    +0.000 A 
ATOM     28  C   UNL     1      -0.366  11.049  18.772  0.00  0.00    +0.000 A 
ATOM     29  C   UNL     1      -1.211  11.991  19.391  0.00  0.00    +0.000 A 
ATOM     30  C   UNL     1      -1.431  11.944  20.763  0.00  0.00    +0.000 A 
ATOM     31  C   UNL     1      -0.771  10.969  21.515  0.00  0.00    +0.000 A 
ATOM     32  C   UNL     1       0.099  10.040  20.901  0.00  0.00    +0.000 A 
BRANCH  31  33
ATOM     33  N   UNL     1      -1.028  10.878  22.963  0.00  0.00    +0.000 N 
ATOM     34  O   UNL     1      -2.044  11.434  23.404  0.00  0.00    +0.000 OA
ATOM     35  O   UNL     1      -0.218  10.240  23.653  0.00  0.00    +0.000 OA
ENDBRANCH  31  33
ENDBRANCH  25  27
ENDBRANCH  22  23
ENDBRANCH   1  22
TORSDOF 8
ENDMDL
MODEL 6
REMARK VINA RESULT:      -7.6      5.747      9.555
REMARK  Name = 
REMARK  12 active torsions:
REMARK  status: ('A' for Active; 'I' for Inactive)
REMARK    1  A    between atoms: C_1  and  O_2
REMARK    2  A    between atoms: O_2  and  C_3
REMARK    3  A    between atoms: C_6  and  C_7
REMARK    4  A    between atoms: C_9  and  S_10
REMARK    5  A    between atoms: S_10  and  N_13
REMARK    6  A    between atoms: N_13  and  C_14
REMARK    7  A    between atoms: N_13  and  C_27
REMARK    8  A    between atoms: C_14  and  C_15
REMARK    9  A    between atoms: N_17  and  C_18
REMARK   10  A    between atoms: C_22  and  N_23
REMARK   11  A    between atoms: C_30  and  C_31
REMARK   12  A    between atoms: C_32  and  C_33
REMARK                            x       y       z     vdW  Elec       q    Type
REMARK                         _______ _______ _______ _____ _____    ______ ____
ROOT
ATOM      1  N   UNL     1       6.477   5.675  17.582  0.00  0.00    +0.000 N 
ENDROOT
BRANCH   1   2
ATOM      2  C   UNL     1       6.280   5.107  16.262  0.00  0.00    +0.000 A 
ATOM      3  C   UNL     1       5.196   4.290  15.942  0.00  0.00    +0.000 A 
ATOM      4  C   UNL     1       5.062   3.766  14.640  0.00  0.00    +0.000 A 
ATOM      5  C   UNL     1       6.007   4.043  13.641  0.00  0.00    +0.000 A 
ATOM      6  C   UNL     1       5.862   3.414  12.277  0.00  0.00    +0.000 C 
ATOM      7  C   UNL     1       7.086   4.890  13.954  0.00  0.00    +0.000 A 
ATOM      8  C   UNL     1       8.127   5.296  12.941  0.00  0.00    +0.000 C 
ATOM      9  C   UNL     1       7.202   5.417  15.261  0.00  0.00    +0.000 A 
ENDBRANCH   1   2
BRANCH   1  10
ATOM     10  S   UNL     1       5.713   4.869  18.880  0.00  0.00    +0.000 S 
ATOM     11  O   UNL     1       6.486   5.211  20.064  0.00  0.00    +0.000 OA
ATOM     12  O   UNL     1       5.567   3.474  18.526  0.00  0.00    +0.000 OA
BRANCH  10  19
ATOM     13  C   UNL     1       3.152   5.068  20.024  0.00  0.00    +0.000 A 
ATOM     14  C   UNL     1       1.949   5.766  20.204  0.00  0.00    +0.000 A 
ATOM     15  C   UNL     1       1.672   6.938  19.481  0.00  0.00    +0.000 A 
ATOM     16  C   UNL     1       2.593   7.430  18.555  0.00  0.00    +0.000 A 
ATOM     17  C   UNL     1       2.352   8.702  17.796  0.00  0.00    +0.000 C 
ATOM     18  C   UNL     1       3.801   6.749  18.386  0.00  0.00    +0.000 A 
ATOM     19  C   UNL     1       4.081   5.569  19.100  0.00  0.00    +0.000 A 
BRANCH  13  21
ATOM     20  C   UNL     1       2.529   2.856  20.732  0.00  0.00    +0.000 C 
ATOM     21  O   UNL     1       3.471   3.925  20.698  0.00  0.00    +0.000 OA
ENDBRANCH  13  21
ENDBRANCH  10  19
ENDBRANCH   1  10
BRANCH   1  22
ATOM     22  C   UNL     1       7.766   6.355  17.853  0.00  0.00    +0.000 C 
BRANCH  22  23
ATOM     23  C   UNL     1       7.859   7.891  17.814  0.00  0.00    +0.000 C 
ATOM     24  O   UNL     1       6.964   8.524  17.250  0.00  0.00    +0.000 OA
ATOM     25  N   UNL     1       8.866   8.465  18.579  0.00  0.00    +0.000 N 
ATOM     26  H   UNL     1       9.627   7.847  18.837  0.00  0.00    +0.000 HD
BRANCH  25  27
ATOM     27  C   UNL     1       8.945   9.813  19.037  0.00  0.00    +0.000 A 
ATOM     28  C   UNL     1       9.567  10.208  20.229  0.00  0.00    +0.000 A 
ATOM     29  C   UNL     1       9.719  11.568  20.564  0.00  0.00    +0.000 A 
ATOM     30  C   UNL     1       9.259  12.560  19.705  0.00  0.00    +0.000 A 
ATOM     31  C   UNL     1       8.616  12.179  18.524  0.00  0.00    +0.000 A 
ATOM     32  C   UNL     1       8.438  10.815  18.199  0.00  0.00    +0.000 A 
BRANCH  31  33
ATOM     33  N   UNL     1       8.163  13.217  17.583  0.00  0.00    +0.000 N 
ATOM     34  O   UNL     1       8.605  14.365  17.734  0.00  0.00    +0.000 OA
ATOM     35  O   UNL     1       7.376  12.877  16.686  0.00  0.00    +0.000 OA
ENDBRANCH  31  33
ENDBRANCH  25  27
ENDBRANCH  22  23
ENDBRANCH   1  22
TORSDOF 8
ENDMDL
MODEL 7
REMARK VINA RESULT:      -7.6      2.140      4.756
REMARK  Name = 
REMARK  12 active torsions:
REMARK  status: ('A' for Active; 'I' for Inactive)
REMARK    1  A    between atoms: C_1  and  O_2
REMARK    2  A    between atoms: O_2  and  C_3
REMARK    3  A    between atoms: C_6  and  C_7
REMARK    4  A    between atoms: C_9  and  S_10
REMARK    5  A    between atoms: S_10  and  N_13
REMARK    6  A    between atoms: N_13  and  C_14
REMARK    7  A    between atoms: N_13  and  C_27
REMARK    8  A    between atoms: C_14  and  C_15
REMARK    9  A    between atoms: N_17  and  C_18
REMARK   10  A    between atoms: C_22  and  N_23
REMARK   11  A    between atoms: C_30  and  C_31
REMARK   12  A    between atoms: C_32  and  C_33
REMARK                            x       y       z     vdW  Elec       q    Type
REMARK                         _______ _______ _______ _____ _____    ______ ____
ROOT
ATOM      1  N   UNL     1      -0.148  10.823  20.625  0.00  0.00    +0.000 N 
ENDROOT
BRANCH   1   2
ATOM      2  C   UNL     1      -0.568  11.862  21.546  0.00  0.00    +0.000 A 
ATOM      3  C   UNL     1       0.097  13.082  21.667  0.00  0.00    +0.000 A 
ATOM      4  C   UNL     1      -0.359  14.051  22.582  0.00  0.00    +0.000 A 
ATOM      5  C   UNL     1      -1.481  13.819  23.392  0.00  0.00    +0.000 A 
ATOM      6  C   UNL     1      -1.902  14.857  24.404  0.00  0.00    +0.000 C 
ATOM      7  C   UNL     1      -2.170  12.601  23.251  0.00  0.00    +0.000 A 
ATOM      8  C   UNL     1      -3.418  12.272  24.032  0.00  0.00    +0.000 C 
ATOM      9  C   UNL     1      -1.707  11.642  22.322  0.00  0.00    +0.000 A 
ENDBRANCH   1   2
BRANCH   1  10
ATOM     10  S   UNL     1      -0.375  11.140  18.963  0.00  0.00    +0.000 S 
ATOM     11  O   UNL     1      -0.026   9.907  18.275  0.00  0.00    +0.000 OA
ATOM     12  O   UNL     1       0.346  12.349  18.628  0.00  0.00    +0.000 OA
BRANCH  10  19
ATOM     13  C   UNL     1      -2.836  10.794  17.646  0.00  0.00    +0.000 A 
ATOM     14  C   UNL     1      -4.223  10.993  17.584  0.00  0.00    +0.000 A 
ATOM     15  C   UNL     1      -4.885  11.801  18.521  0.00  0.00    +0.000 A 
ATOM     16  C   UNL     1      -4.168  12.437  19.536  0.00  0.00    +0.000 A 
ATOM     17  C   UNL     1      -4.846  13.273  20.582  0.00  0.00    +0.000 C 
ATOM     18  C   UNL     1      -2.789  12.226  19.614  0.00  0.00    +0.000 A 
ATOM     19  C   UNL     1      -2.118  11.425  18.673  0.00  0.00    +0.000 A 
BRANCH  13  21
ATOM     20  C   UNL     1      -2.676   9.813  15.456  0.00  0.00    +0.000 C 
ATOM     21  O   UNL     1      -2.142  10.020  16.761  0.00  0.00    +0.000 OA
ENDBRANCH  13  21
ENDBRANCH  10  19
ENDBRANCH   1  10
BRANCH   1  22
ATOM     22  C   UNL     1       1.010   9.984  21.016  0.00  0.00    +0.000 C 
BRANCH  22  23
ATOM     23  C   UNL     1       0.906   8.449  20.984  0.00  0.00    +0.000 C 
ATOM     24  O   UNL     1      -0.172   7.923  21.267  0.00  0.00    +0.000 OA
ATOM     25  N   UNL     1       1.998   7.770  20.460  0.00  0.00    +0.000 N 
ATOM     26  H   UNL     1       2.869   8.290  20.437  0.00  0.00    +0.000 HD
BRANCH  25  27
ATOM     27  C   UNL     1       2.030   6.437  19.954  0.00  0.00    +0.000 A 
ATOM     28  C   UNL     1       2.147   6.108  18.597  0.00  0.00    +0.000 A 
ATOM     29  C   UNL     1       2.295   4.773  18.174  0.00  0.00    +0.000 A 
ATOM     30  C   UNL     1       2.341   3.741  19.104  0.00  0.00    +0.000 A 
ATOM     31  C   UNL     1       2.202   4.053  20.459  0.00  0.00    +0.000 A 
ATOM     32  C   UNL     1       2.024   5.388  20.884  0.00  0.00    +0.000 A 
BRANCH  31  33
ATOM     33  N   UNL     1       2.292   2.976  21.460  0.00  0.00    +0.000 N 
ATOM     34  O   UNL     1       3.378   2.391  21.581  0.00  0.00    +0.000 OA
ATOM     35  O   UNL     1       1.279   2.728  22.132  0.00  0.00    +0.000 OA
ENDBRANCH  31  33
ENDBRANCH  25  27
ENDBRANCH  22  23
ENDBRANCH   1  22
TORSDOF 8
ENDMDL
MODEL 8
REMARK VINA RESULT:      -7.5      3.095      7.386
REMARK  Name = 
REMARK  12 active torsions:
REMARK  status: ('A' for Active; 'I' for Inactive)
REMARK    1  A    between atoms: C_1  and  O_2
REMARK    2  A    between atoms: O_2  and  C_3
REMARK    3  A    between atoms: C_6  and  C_7
REMARK    4  A    between atoms: C_9  and  S_10
REMARK    5  A    between atoms: S_10  and  N_13
REMARK    6  A    between atoms: N_13  and  C_14
REMARK    7  A    between atoms: N_13  and  C_27
REMARK    8  A    between atoms: C_14  and  C_15
REMARK    9  A    between atoms: N_17  and  C_18
REMARK   10  A    between atoms: C_22  and  N_23
REMARK   11  A    between atoms: C_30  and  C_31
REMARK   12  A    between atoms: C_32  and  C_33
REMARK                            x       y       z     vdW  Elec       q    Type
REMARK                         _______ _______ _______ _____ _____    ______ ____
ROOT
ATOM      1  N   UNL     1      -0.105  10.995  19.532  0.00  0.00    +0.000 N 
ENDROOT
BRANCH   1   2
ATOM      2  C   UNL     1       0.618   9.747  19.676  0.00  0.00    +0.000 A 
ATOM      3  C   UNL     1       0.536   8.950  20.819  0.00  0.00    +0.000 A 
ATOM      4  C   UNL     1       1.266   7.748  20.899  0.00  0.00    +0.000 A 
ATOM      5  C   UNL     1       2.091   7.322  19.847  0.00  0.00    +0.000 A 
ATOM      6  C   UNL     1       2.904   6.060  19.996  0.00  0.00    +0.000 C 
ATOM      7  C   UNL     1       2.153   8.109  18.682  0.00  0.00    +0.000 A 
ATOM      8  C   UNL     1       2.964   7.718  17.473  0.00  0.00    +0.000 C 
ATOM      9  C   UNL     1       1.407   9.308  18.611  0.00  0.00    +0.000 A 
ENDBRANCH   1   2
BRANCH   1  10
ATOM     10  S   UNL     1       0.579  12.365  20.289  0.00  0.00    +0.000 S 
ATOM     11  O   UNL     1       1.072  13.207  19.210  0.00  0.00    +0.000 OA
ATOM     12  O   UNL     1       1.514  11.909  21.294  0.00  0.00    +0.000 OA
BRANCH  10  19
ATOM     13  C   UNL     1      -1.083  14.585  20.756  0.00  0.00    +0.000 A 
ATOM     14  C   UNL     1      -2.203  15.159  21.375  0.00  0.00    +0.000 A 
ATOM     15  C   UNL     1      -2.956  14.448  22.323  0.00  0.00    +0.000 A 
ATOM     16  C   UNL     1      -2.596  13.147  22.678  0.00  0.00    +0.000 A 
ATOM     17  C   UNL     1      -3.401  12.339  23.654  0.00  0.00    +0.000 C 
ATOM     18  C   UNL     1      -1.493  12.563  22.049  0.00  0.00    +0.000 A 
ATOM     19  C   UNL     1      -0.729  13.273  21.106  0.00  0.00    +0.000 A 
BRANCH  13  21
ATOM     20  C   UNL     1      -0.819  16.416  19.221  0.00  0.00    +0.000 C 
ATOM     21  O   UNL     1      -0.316  15.230  19.831  0.00  0.00    +0.000 OA
ENDBRANCH  13  21
ENDBRANCH  10  19
ENDBRANCH   1  10
BRANCH   1  22
ATOM     22  C   UNL     1      -0.866  11.208  18.278  0.00  0.00    +0.000 C 
BRANCH  22  23
ATOM     23  C   UNL     1      -2.366  10.868  18.211  0.00  0.00    +0.000 C 
ATOM     24  O   UNL     1      -2.708   9.685  18.264  0.00  0.00    +0.000 OA
ATOM     25  N   UNL     1      -3.243  11.944  18.273  0.00  0.00    +0.000 N 
ATOM     26  H   UNL     1      -2.845  12.848  18.045  0.00  0.00    +0.000 HD
BRANCH  25  27
ATOM     27  C   UNL     1      -4.626  11.916  18.621  0.00  0.00    +0.000 A 
ATOM     28  C   UNL     1      -5.640  11.419  17.792  0.00  0.00    +0.000 A 
ATOM     29  C   UNL     1      -6.970  11.307  18.243  0.00  0.00    +0.000 A 
ATOM     30  C   UNL     1      -7.307  11.679  19.539  0.00  0.00    +0.000 A 
ATOM     31  C   UNL     1      -6.309  12.198  20.369  0.00  0.00    +0.000 A 
ATOM     32  C   UNL     1      -4.981  12.338  19.910  0.00  0.00    +0.000 A 
BRANCH  31  33
ATOM     33  N   UNL     1      -6.641  12.556  21.759  0.00  0.00    +0.000 N 
ATOM     34  O   UNL     1      -7.054  11.655  22.503  0.00  0.00    +0.000 OA
ATOM     35  O   UNL     1      -6.473  13.735  22.105  0.00  0.00    +0.000 OA
ENDBRANCH  31  33
ENDBRANCH  25  27
ENDBRANCH  22  23
ENDBRANCH   1  22
TORSDOF 8
ENDMDL
MODEL 9
REMARK VINA RESULT:      -7.4      2.582      4.374
REMARK  Name = 
REMARK  12 active torsions:
REMARK  status: ('A' for Active; 'I' for Inactive)
REMARK    1  A    between atoms: C_1  and  O_2
REMARK    2  A    between atoms: O_2  and  C_3
REMARK    3  A    between atoms: C_6  and  C_7
REMARK    4  A    between atoms: C_9  and  S_10
REMARK    5  A    between atoms: S_10  and  N_13
REMARK    6  A    between atoms: N_13  and  C_14
REMARK    7  A    between atoms: N_13  and  C_27
REMARK    8  A    between atoms: C_14  and  C_15
REMARK    9  A    between atoms: N_17  and  C_18
REMARK   10  A    between atoms: C_22  and  N_23
REMARK   11  A    between atoms: C_30  and  C_31
REMARK   12  A    between atoms: C_32  and  C_33
REMARK                            x       y       z     vdW  Elec       q    Type
REMARK                         _______ _______ _______ _____ _____    ______ ____
ROOT
ATOM      1  N   UNL     1       0.701  10.934  18.945  0.00  0.00    +0.000 N 
ENDROOT
BRANCH   1   2
ATOM      2  C   UNL     1       1.614  12.057  19.047  0.00  0.00    +0.000 A 
ATOM      3  C   UNL     1       2.444  12.457  17.999  0.00  0.00    +0.000 A 
ATOM      4  C   UNL     1       3.311  13.556  18.161  0.00  0.00    +0.000 A 
ATOM      5  C   UNL     1       3.368  14.269  19.367  0.00  0.00    +0.000 A 
ATOM      6  C   UNL     1       4.354  15.401  19.523  0.00  0.00    +0.000 C 
ATOM      7  C   UNL     1       2.512  13.886  20.415  0.00  0.00    +0.000 A 
ATOM      8  C   UNL     1       2.453  14.616  21.734  0.00  0.00    +0.000 C 
ATOM      9  C   UNL     1       1.639  12.787  20.236  0.00  0.00    +0.000 A 
ENDBRANCH   1   2
BRANCH   1  10
ATOM     10  S   UNL     1      -0.966  11.303  18.978  0.00  0.00    +0.000 S 
ATOM     11  O   UNL     1      -1.653  10.039  18.760  0.00  0.00    +0.000 OA
ATOM     12  O   UNL     1      -1.210  12.392  18.058  0.00  0.00    +0.000 OA
BRANCH  10  19
ATOM     13  C   UNL     1      -0.945  11.204  21.789  0.00  0.00    +0.000 A 
ATOM     14  C   UNL     1      -1.236  11.788  23.030  0.00  0.00    +0.000 A 
ATOM     15  C   UNL     1      -1.955  12.991  23.119  0.00  0.00    +0.000 A 
ATOM     16  C   UNL     1      -2.408  13.628  21.964  0.00  0.00    +0.000 A 
ATOM     17  C   UNL     1      -3.143  14.937  22.016  0.00  0.00    +0.000 C 
ATOM     18  C   UNL     1      -2.105  13.060  20.723  0.00  0.00    +0.000 A 
ATOM     19  C   UNL     1      -1.393  11.851  20.628  0.00  0.00    +0.000 A 
BRANCH  13  21
ATOM     20  C   UNL     1      -0.515   8.961  22.542  0.00  0.00    +0.000 C 
ATOM     21  O   UNL     1      -0.252  10.037  21.645  0.00  0.00    +0.000 OA
ENDBRANCH  13  21
ENDBRANCH  10  19
ENDBRANCH   1  10
BRANCH   1  22
ATOM     22  C   UNL     1       1.134   9.766  18.142  0.00  0.00    +0.000 C 
BRANCH  22  23
ATOM     23  C   UNL     1       1.934   8.625  18.796  0.00  0.00    +0.000 C 
ATOM     24  O   UNL     1       1.793   8.421  20.004  0.00  0.00    +0.000 OA
ATOM     25  N   UNL     1       2.627   7.787  17.933  0.00  0.00    +0.000 N 
ATOM     26  H   UNL     1       2.809   8.162  17.009  0.00  0.00    +0.000 HD
BRANCH  25  27
ATOM     27  C   UNL     1       3.106   6.470  18.201  0.00  0.00    +0.000 A 
ATOM     28  C   UNL     1       4.458   6.135  18.344  0.00  0.00    +0.000 A 
ATOM     29  C   UNL     1       4.858   4.839  18.729  0.00  0.00    +0.000 A 
ATOM     30  C   UNL     1       3.908   3.859  18.990  0.00  0.00    +0.000 A 
ATOM     31  C   UNL     1       2.556   4.174  18.828  0.00  0.00    +0.000 A 
ATOM     32  C   UNL     1       2.154   5.464  18.415  0.00  0.00    +0.000 A 
BRANCH  31  33
ATOM     33  N   UNL     1       1.536   3.159  19.143  0.00  0.00    +0.000 N 
ATOM     34  O   UNL     1       1.448   2.776  20.318  0.00  0.00    +0.000 OA
ATOM     35  O   UNL     1       0.816   2.759  18.215  0.00  0.00    +0.000 OA
ENDBRANCH  31  33
ENDBRANCH  25  27
ENDBRANCH  22  23
ENDBRANCH   1  22
TORSDOF 8
ENDMDL
