MODEL 1
REMARK VINA RESULT:      -8.8      0.000      0.000
REMARK  Name = 
REMARK  6 active torsions:
REMARK  status: ('A' for Active; 'I' for Inactive)
REMARK    1  A    between atoms: C_1  and  C_2
REMARK    2  A    between atoms: C_7  and  N_8
REMARK    3  A    between atoms: C_9  and  O_11
REMARK    4  A    between atoms: O_11  and  C_12
REMARK    5  A    between atoms: N_21  and  C_22
REMARK    6  A    between atoms: C_22  and  C_23
REMARK                            x       y       z     vdW  Elec       q    Type
REMARK                         _______ _______ _______ _____ _____    ______ ____
ROOT
ATOM      1  C   UNL     1       2.455   8.266  18.217  0.00  0.00    +0.000 A 
ATOM      2  C   UNL     1       2.108   9.497  17.680  0.00  0.00    +0.000 A 
ATOM      3  C   UNL     1       1.276  10.368  18.402  0.00  0.00    +0.000 A 
ATOM      4  C   UNL     1       0.766  10.064  19.679  0.00  0.00    +0.000 A 
ATOM      5  C   UNL     1       1.177   8.829  20.218  0.00  0.00    +0.000 A 
ATOM      6  C   UNL     1       2.009   7.937  19.487  0.00  0.00    +0.000 A 
ATOM      7  C   UNL     1       0.802   8.409  21.605  0.00  0.00    +0.000 C 
ATOM      8  C   UNL     1      -0.163   9.305  22.350  0.00  0.00    +0.000 C 
ATOM      9  C   UNL     1      -0.485  10.657  21.752  0.00  0.00    +0.000 C 
ATOM     10  N   UNL     1      -0.088  10.908  20.366  0.00  0.00    +0.000 N 
ENDROOT
BRANCH   1  11
ATOM     11  O   UNL     1       3.355   7.394  17.562  0.00  0.00    +0.000 OA
BRANCH  11  13
ATOM     12  N   UNL     1       2.625   5.351  18.262  0.00  0.00    +0.000 N 
ATOM     13  C   UNL     1       3.689   6.246  18.272  0.00  0.00    +0.000 C 
ATOM     14  O   UNL     1       4.758   6.086  18.854  0.00  0.00    +0.000 OA
ATOM     15  H   UNL     1       1.910   5.554  17.583  0.00  0.00    +0.000 HD
BRANCH  12  22
ATOM     16  C   UNL     1       2.498   2.485  17.481  0.00  0.00    +0.000 C 
ATOM     17  C   UNL     1       2.224   3.000  18.867  0.00  0.00    +0.000 A 
ATOM     18  C   UNL     1       1.858   2.051  19.846  0.00  0.00    +0.000 A 
ATOM     19  C   UNL     1       1.617   2.425  21.165  0.00  0.00    +0.000 A 
ATOM     20  C   UNL     1       1.769   3.751  21.535  0.00  0.00    +0.000 A 
ATOM     21  C   UNL     1       2.148   4.701  20.585  0.00  0.00    +0.000 A 
ATOM     22  C   UNL     1       2.364   4.355  19.243  0.00  0.00    +0.000 A 
ENDBRANCH  12  22
ENDBRANCH  11  13
ENDBRANCH   1  11
BRANCH  10  23
ATOM     23  C   UNL     1      -0.623  12.170  19.816  0.00  0.00    +0.000 C 
BRANCH  23  24
ATOM     24  C   UNL     1      -2.068  12.011  19.373  0.00  0.00    +0.000 A 
ATOM     25  C   UNL     1      -2.338  11.235  18.230  0.00  0.00    +0.000 A 
ATOM     26  C   UNL     1      -3.645  10.998  17.804  0.00  0.00    +0.000 A 
ATOM     27  C   UNL     1      -4.708  11.539  18.514  0.00  0.00    +0.000 A 
ATOM     28 CL   UNL     1      -6.321  11.220  18.009  0.00  0.00    +0.000 Cl
ATOM     29  C   UNL     1      -4.476  12.333  19.631  0.00  0.00    +0.000 A 
ATOM     30  C   UNL     1      -3.161  12.573  20.060  0.00  0.00    +0.000 A 
ATOM     31 CL   UNL     1      -2.968  13.576  21.453  0.00  0.00    +0.000 Cl
ENDBRANCH  23  24
ENDBRANCH  10  23
TORSDOF 5
ENDMDL
MODEL 2
REMARK VINA RESULT:      -8.7      0.955      1.386
REMARK  Name = 
REMARK  6 active torsions:
REMARK  status: ('A' for Active; 'I' for Inactive)
REMARK    1  A    between atoms: C_1  and  C_2
REMARK    2  A    between atoms: C_7  and  N_8
REMARK    3  A    between atoms: C_9  and  O_11
REMARK    4  A    between atoms: O_11  and  C_12
REMARK    5  A    between atoms: N_21  and  C_22
REMARK    6  A    between atoms: C_22  and  C_23
REMARK                            x       y       z     vdW  Elec       q    Type
REMARK                         _______ _______ _______ _____ _____    ______ ____
ROOT
ATOM      1  C   UNL     1       2.615   8.103  18.154  0.00  0.00    +0.000 A 
ATOM      2  C   UNL     1       2.252   9.294  17.542  0.00  0.00    +0.000 A 
ATOM      3  C   UNL     1       1.365  10.171  18.187  0.00  0.00    +0.000 A 
ATOM      4  C   UNL     1       0.813   9.913  19.457  0.00  0.00    +0.000 A 
ATOM      5  C   UNL     1       1.240   8.721  20.073  0.00  0.00    +0.000 A 
ATOM      6  C   UNL     1       2.127   7.822  19.421  0.00  0.00    +0.000 A 
ATOM      7  C   UNL     1       0.821   8.357  21.464  0.00  0.00    +0.000 C 
ATOM      8  C   UNL     1      -0.200   9.256  22.124  0.00  0.00    +0.000 C 
ATOM      9  C   UNL     1      -0.539  10.566  21.447  0.00  0.00    +0.000 C 
ATOM     10  N   UNL     1      -0.093  10.763  20.067  0.00  0.00    +0.000 N 
ENDROOT
BRANCH   1  11
ATOM     11  O   UNL     1       3.567   7.230  17.579  0.00  0.00    +0.000 OA
BRANCH  11  13
ATOM     12  N   UNL     1       2.782   5.218  18.311  0.00  0.00    +0.000 N 
ATOM     13  C   UNL     1       3.859   6.096  18.331  0.00  0.00    +0.000 C 
ATOM     14  O   UNL     1       4.907   5.935  18.950  0.00  0.00    +0.000 OA
ATOM     15  H   UNL     1       2.091   5.413  17.604  0.00  0.00    +0.000 HD
BRANCH  12  22
ATOM     16  C   UNL     1       2.422   2.362  17.566  0.00  0.00    +0.000 C 
ATOM     17  C   UNL     1       2.224   2.910  18.953  0.00  0.00    +0.000 A 
ATOM     18  C   UNL     1       1.814   1.999  19.952  0.00  0.00    +0.000 A 
ATOM     19  C   UNL     1       1.637   2.403  21.272  0.00  0.00    +0.000 A 
ATOM     20  C   UNL     1       1.896   3.718  21.623  0.00  0.00    +0.000 A 
ATOM     21  C   UNL     1       2.319   4.627  20.653  0.00  0.00    +0.000 A 
ATOM     22  C   UNL     1       2.474   4.253  19.309  0.00  0.00    +0.000 A 
ENDBRANCH  12  22
ENDBRANCH  11  13
ENDBRANCH   1  11
BRANCH  10  23
ATOM     23  C   UNL     1      -0.644  11.978  19.434  0.00  0.00    +0.000 C 
BRANCH  23  24
ATOM     24  C   UNL     1      -2.148  11.871  19.246  0.00  0.00    +0.000 A 
ATOM     25  C   UNL     1      -2.987  12.604  20.108  0.00  0.00    +0.000 A 
ATOM     26  C   UNL     1      -4.373  12.598  19.953  0.00  0.00    +0.000 A 
ATOM     27  C   UNL     1      -4.947  11.853  18.931  0.00  0.00    +0.000 A 
ATOM     28 CL   UNL     1      -6.653  11.873  18.719  0.00  0.00    +0.000 Cl
ATOM     29  C   UNL     1      -4.151  11.096  18.080  0.00  0.00    +0.000 A 
ATOM     30  C   UNL     1      -2.756  11.100  18.236  0.00  0.00    +0.000 A 
ATOM     31 CL   UNL     1      -1.847  10.125  17.138  0.00  0.00    +0.000 Cl
ENDBRANCH  23  24
ENDBRANCH  10  23
TORSDOF 5
ENDMDL
MODEL 3
REMARK VINA RESULT:      -8.6      1.995      3.241
REMARK  Name = 
REMARK  6 active torsions:
REMARK  status: ('A' for Active; 'I' for Inactive)
REMARK    1  A    between atoms: C_1  and  C_2
REMARK    2  A    between atoms: C_7  and  N_8
REMARK    3  A    between atoms: C_9  and  O_11
REMARK    4  A    between atoms: O_11  and  C_12
REMARK    5  A    between atoms: N_21  and  C_22
REMARK    6  A    between atoms: C_22  and  C_23
REMARK                            x       y       z     vdW  Elec       q    Type
REMARK                         _______ _______ _______ _____ _____    ______ ____
ROOT
ATOM      1  C   UNL     1       1.763   7.723  20.391  0.00  0.00    +0.000 A 
ATOM      2  C   UNL     1       1.577   8.510  19.263  0.00  0.00    +0.000 A 
ATOM      3  C   UNL     1       0.764   9.654  19.332  0.00  0.00    +0.000 A 
ATOM      4  C   UNL     1       0.118  10.069  20.512  0.00  0.00    +0.000 A 
ATOM      5  C   UNL     1       0.367   9.279  21.651  0.00  0.00    +0.000 A 
ATOM      6  C   UNL     1       1.177   8.112  21.585  0.00  0.00    +0.000 A 
ATOM      7  C   UNL     1      -0.166   9.648  23.001  0.00  0.00    +0.000 C 
ATOM      8  C   UNL     1      -1.109  10.829  23.060  0.00  0.00    +0.000 C 
ATOM      9  C   UNL     1      -1.254  11.687  21.822  0.00  0.00    +0.000 C 
ATOM     10  N   UNL     1      -0.714  11.173  20.562  0.00  0.00    +0.000 N 
ENDROOT
BRANCH   1  11
ATOM     11  O   UNL     1       2.635   6.611  20.387  0.00  0.00    +0.000 OA
BRANCH  11  13
ATOM     12  N   UNL     1       3.999   5.722  18.790  0.00  0.00    +0.000 N 
ATOM     13  C   UNL     1       2.680   5.899  19.193  0.00  0.00    +0.000 C 
ATOM     14  O   UNL     1       1.684   5.529  18.577  0.00  0.00    +0.000 OA
ATOM     15  H   UNL     1       4.686   5.913  19.502  0.00  0.00    +0.000 HD
BRANCH  12  22
ATOM     16  C   UNL     1       4.129   2.983  17.641  0.00  0.00    +0.000 C 
ATOM     17  C   UNL     1       4.584   4.227  16.927  0.00  0.00    +0.000 A 
ATOM     18  C   UNL     1       5.131   4.063  15.636  0.00  0.00    +0.000 A 
ATOM     19  C   UNL     1       5.549   5.156  14.881  0.00  0.00    +0.000 A 
ATOM     20  C   UNL     1       5.398   6.434  15.393  0.00  0.00    +0.000 A 
ATOM     21  C   UNL     1       4.843   6.616  16.661  0.00  0.00    +0.000 A 
ATOM     22  C   UNL     1       4.444   5.530  17.454  0.00  0.00    +0.000 A 
ENDBRANCH  12  22
ENDBRANCH  11  13
ENDBRANCH   1  11
BRANCH  10  23
ATOM     23  C   UNL     1      -1.083  11.986  19.385  0.00  0.00    +0.000 C 
BRANCH  23  24
ATOM     24  C   UNL     1      -2.545  11.795  19.018  0.00  0.00    +0.000 A 
ATOM     25  C   UNL     1      -3.517  12.529  19.726  0.00  0.00    +0.000 A 
ATOM     26  C   UNL     1      -4.870  12.448  19.400  0.00  0.00    +0.000 A 
ATOM     27  C   UNL     1      -5.278  11.624  18.359  0.00  0.00    +0.000 A 
ATOM     28 CL   UNL     1      -6.943  11.549  17.935  0.00  0.00    +0.000 Cl
ATOM     29  C   UNL     1      -4.349  10.865  17.658  0.00  0.00    +0.000 A 
ATOM     30  C   UNL     1      -2.987  10.945  17.986  0.00  0.00    +0.000 A 
ATOM     31 CL   UNL     1      -1.906   9.961  17.066  0.00  0.00    +0.000 Cl
ENDBRANCH  23  24
ENDBRANCH  10  23
TORSDOF 5
ENDMDL
MODEL 4
REMARK VINA RESULT:      -8.4      2.073      3.505
REMARK  Name = 
REMARK  6 active torsions:
REMARK  status: ('A' for Active; 'I' for Inactive)
REMARK    1  A    between atoms: C_1  and  C_2
REMARK    2  A    between atoms: C_7  and  N_8
REMARK    3  A    between atoms: C_9  and  O_11
REMARK    4  A    between atoms: O_11  and  C_12
REMARK    5  A    between atoms: N_21  and  C_22
REMARK    6  A    between atoms: C_22  and  C_23
REMARK                            x       y       z     vdW  Elec       q    Type
REMARK                         _______ _______ _______ _____ _____    ______ ____
ROOT
ATOM      1  C   UNL     1       1.323   9.553  17.995  0.00  0.00    +0.000 A 
ATOM      2  C   UNL     1       1.454  10.583  18.915  0.00  0.00    +0.000 A 
ATOM      3  C   UNL     1       0.341  11.373  19.247  0.00  0.00    +0.000 A 
ATOM      4  C   UNL     1      -0.939  11.170  18.697  0.00  0.00    +0.000 A 
ATOM      5  C   UNL     1      -1.051  10.086  17.805  0.00  0.00    +0.000 A 
ATOM      6  C   UNL     1       0.074   9.291  17.454  0.00  0.00    +0.000 A 
ATOM      7  C   UNL     1      -2.366   9.681  17.215  0.00  0.00    +0.000 C 
ATOM      8  C   UNL     1      -3.547  10.581  17.504  0.00  0.00    +0.000 C 
ATOM      9  C   UNL     1      -3.377  11.667  18.543  0.00  0.00    +0.000 C 
ATOM     10  N   UNL     1      -2.021  11.979  18.997  0.00  0.00    +0.000 N 
ENDROOT
BRANCH   1  11
ATOM     11  O   UNL     1       2.396   8.683  17.693  0.00  0.00    +0.000 OA
BRANCH  11  13
ATOM     12  N   UNL     1       3.138   6.536  17.886  0.00  0.00    +0.000 N 
ATOM     13  C   UNL     1       2.536   7.597  18.552  0.00  0.00    +0.000 C 
ATOM     14  O   UNL     1       2.138   7.585  19.713  0.00  0.00    +0.000 OA
ATOM     15  H   UNL     1       3.573   6.779  17.011  0.00  0.00    +0.000 HD
BRANCH  12  22
ATOM     16  C   UNL     1       5.360   5.078  19.220  0.00  0.00    +0.000 C 
ATOM     17  C   UNL     1       4.073   4.441  18.773  0.00  0.00    +0.000 A 
ATOM     18  C   UNL     1       3.937   3.051  18.983  0.00  0.00    +0.000 A 
ATOM     19  C   UNL     1       2.771   2.375  18.634  0.00  0.00    +0.000 A 
ATOM     20  C   UNL     1       1.709   3.084  18.097  0.00  0.00    +0.000 A 
ATOM     21  C   UNL     1       1.819   4.461  17.898  0.00  0.00    +0.000 A 
ATOM     22  C   UNL     1       2.995   5.159  18.211  0.00  0.00    +0.000 A 
ENDBRANCH  12  22
ENDBRANCH  11  13
ENDBRANCH   1  11
BRANCH  10  23
ATOM     23  C   UNL     1      -1.944  13.181  19.852  0.00  0.00    +0.000 C 
BRANCH  23  24
ATOM     24  C   UNL     1      -2.673  12.970  21.169  0.00  0.00    +0.000 A 
ATOM     25  C   UNL     1      -2.067  12.162  22.151  0.00  0.00    +0.000 A 
ATOM     26  C   UNL     1      -2.653  11.977  23.402  0.00  0.00    +0.000 A 
ATOM     27  C   UNL     1      -3.861  12.595  23.694  0.00  0.00    +0.000 A 
ATOM     28 CL   UNL     1      -4.567  12.393  25.250  0.00  0.00    +0.000 Cl
ATOM     29  C   UNL     1      -4.500  13.376  22.739  0.00  0.00    +0.000 A 
ATOM     30  C   UNL     1      -3.912  13.563  21.478  0.00  0.00    +0.000 A 
ATOM     31 CL   UNL     1      -4.780  14.544  20.353  0.00  0.00    +0.000 Cl
ENDBRANCH  23  24
ENDBRANCH  10  23
TORSDOF 5
ENDMDL
MODEL 5
REMARK VINA RESULT:      -8.4      1.526      2.444
REMARK  Name = 
REMARK  6 active torsions:
REMARK  status: ('A' for Active; 'I' for Inactive)
REMARK    1  A    between atoms: C_1  and  C_2
REMARK    2  A    between atoms: C_7  and  N_8
REMARK    3  A    between atoms: C_9  and  O_11
REMARK    4  A    between atoms: O_11  and  C_12
REMARK    5  A    between atoms: N_21  and  C_22
REMARK    6  A    between atoms: C_22  and  C_23
REMARK                            x       y       z     vdW  Elec       q    Type
REMARK                         _______ _______ _______ _____ _____    ______ ____
ROOT
ATOM      1  C   UNL     1       2.209   8.313  18.290  0.00  0.00    +0.000 A 
ATOM      2  C   UNL     1       1.375   9.197  17.621  0.00  0.00    +0.000 A 
ATOM      3  C   UNL     1       0.428   9.947  18.338  0.00  0.00    +0.000 A 
ATOM      4  C   UNL     1       0.276   9.862  19.735  0.00  0.00    +0.000 A 
ATOM      5  C   UNL     1       1.170   8.993  20.391  0.00  0.00    +0.000 A 
ATOM      6  C   UNL     1       2.122   8.222  19.670  0.00  0.00    +0.000 A 
ATOM      7  C   UNL     1       1.200   8.871  21.883  0.00  0.00    +0.000 C 
ATOM      8  C   UNL     1       0.126   9.611  22.648  0.00  0.00    +0.000 C 
ATOM      9  C   UNL     1      -0.736  10.598  21.891  0.00  0.00    +0.000 C 
ATOM     10  N   UNL     1      -0.688  10.573  20.428  0.00  0.00    +0.000 N 
ENDROOT
BRANCH   1  11
ATOM     11  O   UNL     1       3.229   7.600  17.621  0.00  0.00    +0.000 OA
BRANCH  11  13
ATOM     12  N   UNL     1       2.401   5.568  18.241  0.00  0.00    +0.000 N 
ATOM     13  C   UNL     1       3.541   6.359  18.169  0.00  0.00    +0.000 C 
ATOM     14  O   UNL     1       4.660   6.047  18.567  0.00  0.00    +0.000 OA
ATOM     15  H   UNL     1       1.621   5.901  17.698  0.00  0.00    +0.000 HD
BRANCH  12  22
ATOM     16  C   UNL     1       2.469   2.748  17.300  0.00  0.00    +0.000 C 
ATOM     17  C   UNL     1       2.133   3.167  18.705  0.00  0.00    +0.000 A 
ATOM     18  C   UNL     1       1.805   2.143  19.620  0.00  0.00    +0.000 A 
ATOM     19  C   UNL     1       1.513   2.427  20.952  0.00  0.00    +0.000 A 
ATOM     20  C   UNL     1       1.574   3.737  21.398  0.00  0.00    +0.000 A 
ATOM     21  C   UNL     1       1.914   4.759  20.511  0.00  0.00    +0.000 A 
ATOM     22  C   UNL     1       2.181   4.504  19.158  0.00  0.00    +0.000 A 
ENDBRANCH  12  22
ENDBRANCH  11  13
ENDBRANCH   1  11
BRANCH  10  23
ATOM     23  C   UNL     1      -1.708  11.427  19.787  0.00  0.00    +0.000 C 
BRANCH  23  24
ATOM     24  C   UNL     1      -1.309  12.892  19.831  0.00  0.00    +0.000 A 
ATOM     25  C   UNL     1      -0.333  13.350  18.924  0.00  0.00    +0.000 A 
ATOM     26  C   UNL     1       0.035  14.694  18.870  0.00  0.00    +0.000 A 
ATOM     27  C   UNL     1      -0.565  15.607  19.728  0.00  0.00    +0.000 A 
ATOM     28 CL   UNL     1      -0.136  17.270  19.637  0.00  0.00    +0.000 Cl
ATOM     29  C   UNL     1      -1.511  15.184  20.653  0.00  0.00    +0.000 A 
ATOM     30  C   UNL     1      -1.882  13.832  20.710  0.00  0.00    +0.000 A 
ATOM     31 CL   UNL     1      -3.060  13.396  21.896  0.00  0.00    +0.000 Cl
ENDBRANCH  23  24
ENDBRANCH  10  23
TORSDOF 5
ENDMDL
MODEL 6
REMARK VINA RESULT:      -8.3      2.403      3.554
REMARK  Name = 
REMARK  6 active torsions:
REMARK  status: ('A' for Active; 'I' for Inactive)
REMARK    1  A    between atoms: C_1  and  C_2
REMARK    2  A    between atoms: C_7  and  N_8
REMARK    3  A    between atoms: C_9  and  O_11
REMARK    4  A    between atoms: O_11  and  C_12
REMARK    5  A    between atoms: N_21  and  C_22
REMARK    6  A    between atoms: C_22  and  C_23
REMARK                            x       y       z     vdW  Elec       q    Type
REMARK                         _______ _______ _______ _____ _____    ______ ____
ROOT
ATOM      1  C   UNL     1       1.308   9.652  18.058  0.00  0.00    +0.000 A 
ATOM      2  C   UNL     1       1.444  10.676  18.984  0.00  0.00    +0.000 A 
ATOM      3  C   UNL     1       0.329  11.457  19.334  0.00  0.00    +0.000 A 
ATOM      4  C   UNL     1      -0.955  11.251  18.795  0.00  0.00    +0.000 A 
ATOM      5  C   UNL     1      -1.070  10.174  17.895  0.00  0.00    +0.000 A 
ATOM      6  C   UNL     1       0.056   9.388  17.527  0.00  0.00    +0.000 A 
ATOM      7  C   UNL     1      -2.389   9.766  17.316  0.00  0.00    +0.000 C 
ATOM      8  C   UNL     1      -3.572  10.657  17.624  0.00  0.00    +0.000 C 
ATOM      9  C   UNL     1      -3.397  11.736  18.670  0.00  0.00    +0.000 C 
ATOM     10  N   UNL     1      -2.038  12.052  19.112  0.00  0.00    +0.000 N 
ENDROOT
BRANCH   1  11
ATOM     11  O   UNL     1       2.383   8.791  17.738  0.00  0.00    +0.000 OA
BRANCH  11  13
ATOM     12  N   UNL     1       3.175   6.658  17.882  0.00  0.00    +0.000 N 
ATOM     13  C   UNL     1       2.509   7.674  18.558  0.00  0.00    +0.000 C 
ATOM     14  O   UNL     1       2.052   7.603  19.695  0.00  0.00    +0.000 OA
ATOM     15  H   UNL     1       3.647   6.949  17.041  0.00  0.00    +0.000 HD
BRANCH  12  22
ATOM     16  C   UNL     1       5.422   5.175  19.144  0.00  0.00    +0.000 C 
ATOM     17  C   UNL     1       4.144   4.538  18.669  0.00  0.00    +0.000 A 
ATOM     18  C   UNL     1       4.031   3.139  18.815  0.00  0.00    +0.000 A 
ATOM     19  C   UNL     1       2.874   2.462  18.436  0.00  0.00    +0.000 A 
ATOM     20  C   UNL     1       1.800   3.177  17.934  0.00  0.00    +0.000 A 
ATOM     21  C   UNL     1       1.888   4.564  17.799  0.00  0.00    +0.000 A 
ATOM     22  C   UNL     1       3.054   5.265  18.143  0.00  0.00    +0.000 A 
ENDBRANCH  12  22
ENDBRANCH  11  13
ENDBRANCH   1  11
BRANCH  10  23
ATOM     23  C   UNL     1      -1.959  13.247  19.976  0.00  0.00    +0.000 C 
BRANCH  23  24
ATOM     24  C   UNL     1      -2.722  13.042  21.274  0.00  0.00    +0.000 A 
ATOM     25  C   UNL     1      -4.039  13.531  21.365  0.00  0.00    +0.000 A 
ATOM     26  C   UNL     1      -4.816  13.324  22.504  0.00  0.00    +0.000 A 
ATOM     27  C   UNL     1      -4.285  12.624  23.580  0.00  0.00    +0.000 A 
ATOM     28 CL   UNL     1      -5.254  12.339  24.972  0.00  0.00    +0.000 Cl
ATOM     29  C   UNL     1      -2.979  12.151  23.535  0.00  0.00    +0.000 A 
ATOM     30  C   UNL     1      -2.196  12.360  22.389  0.00  0.00    +0.000 A 
ATOM     31 CL   UNL     1      -0.583  11.744  22.426  0.00  0.00    +0.000 Cl
ENDBRANCH  23  24
ENDBRANCH  10  23
TORSDOF 5
ENDMDL
MODEL 7
REMARK VINA RESULT:      -8.2      2.882      4.619
REMARK  Name = 
REMARK  6 active torsions:
REMARK  status: ('A' for Active; 'I' for Inactive)
REMARK    1  A    between atoms: C_1  and  C_2
REMARK    2  A    between atoms: C_7  and  N_8
REMARK    3  A    between atoms: C_9  and  O_11
REMARK    4  A    between atoms: O_11  and  C_12
REMARK    5  A    between atoms: N_21  and  C_22
REMARK    6  A    between atoms: C_22  and  C_23
REMARK                            x       y       z     vdW  Elec       q    Type
REMARK                         _______ _______ _______ _____ _____    ______ ____
ROOT
ATOM      1  C   UNL     1       1.820   7.616  20.106  0.00  0.00    +0.000 A 
ATOM      2  C   UNL     1       1.911   8.382  18.953  0.00  0.00    +0.000 A 
ATOM      3  C   UNL     1       1.308   9.650  18.905  0.00  0.00    +0.000 A 
ATOM      4  C   UNL     1       0.607  10.210  19.989  0.00  0.00    +0.000 A 
ATOM      5  C   UNL     1       0.575   9.429  21.161  0.00  0.00    +0.000 A 
ATOM      6  C   UNL     1       1.171   8.140  21.213  0.00  0.00    +0.000 A 
ATOM      7  C   UNL     1      -0.045   9.932  22.428  0.00  0.00    +0.000 C 
ATOM      8  C   UNL     1      -0.769  11.258  22.352  0.00  0.00    +0.000 C 
ATOM      9  C   UNL     1      -0.611  12.084  21.094  0.00  0.00    +0.000 C 
ATOM     10  N   UNL     1      -0.021  11.442  19.919  0.00  0.00    +0.000 N 
ENDROOT
BRANCH   1  11
ATOM     11  O   UNL     1       2.480   6.371  20.227  0.00  0.00    +0.000 OA
BRANCH  11  13
ATOM     12  N   UNL     1       3.943   5.529  18.694  0.00  0.00    +0.000 N 
ATOM     13  C   UNL     1       2.603   5.650  19.043  0.00  0.00    +0.000 C 
ATOM     14  O   UNL     1       1.649   5.229  18.395  0.00  0.00    +0.000 OA
ATOM     15  H   UNL     1       4.592   5.757  19.429  0.00  0.00    +0.000 HD
BRANCH  12  22
ATOM     16  C   UNL     1       4.195   2.789  17.565  0.00  0.00    +0.000 C 
ATOM     17  C   UNL     1       4.644   4.042  16.863  0.00  0.00    +0.000 A 
ATOM     18  C   UNL     1       5.247   3.888  15.596  0.00  0.00    +0.000 A 
ATOM     19  C   UNL     1       5.666   4.989  14.854  0.00  0.00    +0.000 A 
ATOM     20  C   UNL     1       5.460   6.265  15.353  0.00  0.00    +0.000 A 
ATOM     21  C   UNL     1       4.848   6.436  16.596  0.00  0.00    +0.000 A 
ATOM     22  C   UNL     1       4.447   5.343  17.378  0.00  0.00    +0.000 A 
ENDBRANCH  12  22
ENDBRANCH  11  13
ENDBRANCH   1  11
BRANCH  10  23
ATOM     23  C   UNL     1      -0.098  12.263  18.694  0.00  0.00    +0.000 C 
BRANCH  23  24
ATOM     24  C   UNL     1       0.968  13.346  18.687  0.00  0.00    +0.000 A 
ATOM     25  C   UNL     1       2.281  12.994  18.319  0.00  0.00    +0.000 A 
ATOM     26  C   UNL     1       3.293  13.950  18.232  0.00  0.00    +0.000 A 
ATOM     27  C   UNL     1       3.009  15.279  18.517  0.00  0.00    +0.000 A 
ATOM     28 CL   UNL     1       4.249  16.463  18.378  0.00  0.00    +0.000 Cl
ATOM     29  C   UNL     1       1.731  15.657  18.910  0.00  0.00    +0.000 A 
ATOM     30  C   UNL     1       0.711  14.696  18.998  0.00  0.00    +0.000 A 
ATOM     31 CL   UNL     1      -0.844  15.254  19.500  0.00  0.00    +0.000 Cl
ENDBRANCH  23  24
ENDBRANCH  10  23
TORSDOF 5
ENDMDL
MODEL 8
REMARK VINA RESULT:      -8.2      2.077      3.101
REMARK  Name = 
REMARK  6 active torsions:
REMARK  status: ('A' for Active; 'I' for Inactive)
REMARK    1  A    between atoms: C_1  and  C_2
REMARK    2  A    between atoms: C_7  and  N_8
REMARK    3  A    between atoms: C_9  and  O_11
REMARK    4  A    between atoms: O_11  and  C_12
REMARK    5  A    between atoms: N_21  and  C_22
REMARK    6  A    between atoms: C_22  and  C_23
REMARK                            x       y       z     vdW  Elec       q    Type
REMARK                         _______ _______ _______ _____ _____    ______ ____
ROOT
ATOM      1  C   UNL     1       1.861   7.723  19.795  0.00  0.00    +0.000 A 
ATOM      2  C   UNL     1       1.610   8.650  18.794  0.00  0.00    +0.000 A 
ATOM      3  C   UNL     1       0.837   9.790  19.073  0.00  0.00    +0.000 A 
ATOM      4  C   UNL     1       0.295  10.061  20.343  0.00  0.00    +0.000 A 
ATOM      5  C   UNL     1       0.609   9.127  21.349  0.00  0.00    +0.000 A 
ATOM      6  C   UNL     1       1.379   7.965  21.072  0.00  0.00    +0.000 A 
ATOM      7  C   UNL     1       0.191   9.329  22.773  0.00  0.00    +0.000 C 
ATOM      8  C   UNL     1      -0.713  10.509  23.056  0.00  0.00    +0.000 C 
ATOM      9  C   UNL     1      -0.928  11.521  21.951  0.00  0.00    +0.000 C 
ATOM     10  N   UNL     1      -0.501  11.164  20.598  0.00  0.00    +0.000 N 
ENDROOT
BRANCH   1  11
ATOM     11  O   UNL     1       2.700   6.605  19.581  0.00  0.00    +0.000 OA
BRANCH  11  13
ATOM     12  N   UNL     1       3.749   5.305  18.029  0.00  0.00    +0.000 N 
ATOM     13  C   UNL     1       3.383   6.602  18.369  0.00  0.00    +0.000 C 
ATOM     14  O   UNL     1       3.652   7.616  17.731  0.00  0.00    +0.000 OA
ATOM     15  H   UNL     1       3.283   4.584  18.556  0.00  0.00    +0.000 HD
BRANCH  12  22
ATOM     16  C   UNL     1       6.522   5.387  19.098  0.00  0.00    +0.000 C 
ATOM     17  C   UNL     1       6.170   5.049  17.676  0.00  0.00    +0.000 A 
ATOM     18  C   UNL     1       7.240   4.781  16.794  0.00  0.00    +0.000 A 
ATOM     19  C   UNL     1       7.015   4.426  15.467  0.00  0.00    +0.000 A 
ATOM     20  C   UNL     1       5.714   4.303  15.006  0.00  0.00    +0.000 A 
ATOM     21  C   UNL     1       4.644   4.547  15.868  0.00  0.00    +0.000 A 
ATOM     22  C   UNL     1       4.844   4.938  17.201  0.00  0.00    +0.000 A 
ENDBRANCH  12  22
ENDBRANCH  11  13
ENDBRANCH   1  11
BRANCH  10  23
ATOM     23  C   UNL     1      -0.936  12.127  19.566  0.00  0.00    +0.000 C 
BRANCH  23  24
ATOM     24  C   UNL     1      -2.395  11.918  19.196  0.00  0.00    +0.000 A 
ATOM     25  C   UNL     1      -2.711  10.934  18.239  0.00  0.00    +0.000 A 
ATOM     26  C   UNL     1      -4.033  10.649  17.899  0.00  0.00    +0.000 A 
ATOM     27  C   UNL     1      -5.066  11.348  18.508  0.00  0.00    +0.000 A 
ATOM     28 CL   UNL     1      -6.697  10.974  18.113  0.00  0.00    +0.000 Cl
ATOM     29  C   UNL     1      -4.789  12.345  19.436  0.00  0.00    +0.000 A 
ATOM     30  C   UNL     1      -3.459  12.634  19.779  0.00  0.00    +0.000 A 
ATOM     31 CL   UNL     1      -3.209  13.892  20.935  0.00  0.00    +0.000 Cl
ENDBRANCH  23  24
ENDBRANCH  10  23
TORSDOF 5
ENDMDL
MODEL 9
REMARK VINA RESULT:      -8.2      2.947      4.775
REMARK  Name = 
REMARK  6 active torsions:
REMARK  status: ('A' for Active; 'I' for Inactive)
REMARK    1  A    between atoms: C_1  and  C_2
REMARK    2  A    between atoms: C_7  and  N_8
REMARK    3  A    between atoms: C_9  and  O_11
REMARK    4  A    between atoms: O_11  and  C_12
REMARK    5  A    between atoms: N_21  and  C_22
REMARK    6  A    between atoms: C_22  and  C_23
REMARK                            x       y       z     vdW  Elec       q    Type
REMARK                         _______ _______ _______ _____ _____    ______ ____
ROOT
ATOM      1  C   UNL     1       2.252   7.110  19.800  0.00  0.00    +0.000 A 
ATOM      2  C   UNL     1       2.254   7.932  18.681  0.00  0.00    +0.000 A 
ATOM      3  C   UNL     1       1.568   9.157  18.711  0.00  0.00    +0.000 A 
ATOM      4  C   UNL     1       0.867   9.620  19.840  0.00  0.00    +0.000 A 
ATOM      5  C   UNL     1       0.925   8.787  20.975  0.00  0.00    +0.000 A 
ATOM      6  C   UNL     1       1.607   7.540  20.948  0.00  0.00    +0.000 A 
ATOM      7  C   UNL     1       0.316   9.190  22.282  0.00  0.00    +0.000 C 
ATOM      8  C   UNL     1      -0.495  10.466  22.291  0.00  0.00    +0.000 C 
ATOM      9  C   UNL     1      -0.434  11.356  21.069  0.00  0.00    +0.000 C 
ATOM     10  N   UNL     1       0.158  10.809  19.847  0.00  0.00    +0.000 N 
ENDROOT
BRANCH   1  11
ATOM     11  O   UNL     1       2.996   5.908  19.842  0.00  0.00    +0.000 OA
BRANCH  11  13
ATOM     12  N   UNL     1       4.586   4.955  18.515  0.00  0.00    +0.000 N 
ATOM     13  C   UNL     1       3.249   5.327  18.604  0.00  0.00    +0.000 C 
ATOM     14  O   UNL     1       2.409   5.209  17.716  0.00  0.00    +0.000 OA
ATOM     15  H   UNL     1       5.080   4.944  19.392  0.00  0.00    +0.000 HD
BRANCH  12  22
ATOM     16  C   UNL     1       7.290   6.174  18.303  0.00  0.00    +0.000 C 
ATOM     17  C   UNL     1       6.587   5.464  17.178  0.00  0.00    +0.000 A 
ATOM     18  C   UNL     1       7.258   5.405  15.937  0.00  0.00    +0.000 A 
ATOM     19  C   UNL     1       6.704   4.742  14.844  0.00  0.00    +0.000 A 
ATOM     20  C   UNL     1       5.485   4.100  14.984  0.00  0.00    +0.000 A 
ATOM     21  C   UNL     1       4.816   4.134  16.208  0.00  0.00    +0.000 A 
ATOM     22  C   UNL     1       5.336   4.823  17.314  0.00  0.00    +0.000 A 
ENDBRANCH  12  22
ENDBRANCH  11  13
ENDBRANCH   1  11
BRANCH  10  23
ATOM     23  C   UNL     1      -0.014  11.677  18.665  0.00  0.00    +0.000 C 
BRANCH  23  24
ATOM     24  C   UNL     1       0.952  12.850  18.696  0.00  0.00    +0.000 A 
ATOM     25  C   UNL     1       2.280  12.638  18.276  0.00  0.00    +0.000 A 
ATOM     26  C   UNL     1       3.201  13.684  18.221  0.00  0.00    +0.000 A 
ATOM     27  C   UNL     1       2.810  14.964  18.591  0.00  0.00    +0.000 A 
ATOM     28 CL   UNL     1       3.937  16.260  18.491  0.00  0.00    +0.000 Cl
ATOM     29  C   UNL     1       1.516  15.203  19.036  0.00  0.00    +0.000 A 
ATOM     30  C   UNL     1       0.588  14.151  19.092  0.00  0.00    +0.000 A 
ATOM     31 CL   UNL     1      -0.995  14.539  19.664  0.00  0.00    +0.000 Cl
ENDBRANCH  23  24
ENDBRANCH  10  23
TORSDOF 5
ENDMDL
