MODEL 1
REMARK VINA RESULT:      -7.7      0.000      0.000
REMARK  Name = 
REMARK  3 active torsions:
REMARK  status: ('A' for Active; 'I' for Inactive)
REMARK    1  A    between atoms: C_1  and  N_2
REMARK    2  A    between atoms: N_5  and  S_6
REMARK    3  A    between atoms: S_6  and  C_9
REMARK                            x       y       z     vdW  Elec       q    Type
REMARK                         _______ _______ _______ _____ _____    ______ ____
ROOT
ATOM      1  S   UNL     1       4.792   4.579  17.945  0.00  0.00    +0.000 S 
ATOM      2  O   UNL     1       4.289   5.904  18.229  0.00  0.00    +0.000 OA
ATOM      3  O   UNL     1       5.597   3.871  18.919  0.00  0.00    +0.000 OA
ENDROOT
BRANCH   1   4
ATOM      4  C   UNL     1       5.733   4.710  16.462  0.00  0.00    +0.000 A 
ATOM      5  C   UNL     1       6.857   5.517  16.422  0.00  0.00    +0.000 A 
ATOM      6  N   UNL     1       7.594   5.703  15.300  0.00  0.00    +0.000 NA
ATOM      7  C   UNL     1       7.174   5.069  14.176  0.00  0.00    +0.000 A 
ATOM      8 CL   UNL     1       8.177   5.398  12.817  0.00  0.00    +0.000 Cl
ATOM      9  C   UNL     1       6.051   4.249  14.125  0.00  0.00    +0.000 A 
ATOM     10 BR   UNL     1       5.483   3.355  12.555  0.00  0.00    +0.000 Br
ATOM     11  C   UNL     1       5.309   4.074  15.295  0.00  0.00    +0.000 A 
ENDBRANCH   1   4
BRANCH   1  16
ATOM     12  C   UNL     1       1.323   2.816  21.138  0.00  0.00    +0.000 C 
ATOM     13  N   UNL     1       1.669   2.809  19.716  0.00  0.00    +0.000 NA
ATOM     14  C   UNL     1       2.972   2.144  19.506  0.00  0.00    +0.000 C 
ATOM     15  C   UNL     1       3.454   2.198  18.039  0.00  0.00    +0.000 C 
ATOM     16  N   UNL     1       3.474   3.595  17.501  0.00  0.00    +0.000 NA
ATOM     17  C   UNL     1       2.118   4.215  17.703  0.00  0.00    +0.000 C 
ATOM     18  C   UNL     1       1.697   4.188  19.184  0.00  0.00    +0.000 C 
ENDBRANCH   1  16
TORSDOF 2
ENDMDL
MODEL 2
REMARK VINA RESULT:      -7.1      1.168      1.465
REMARK  Name = 
REMARK  3 active torsions:
REMARK  status: ('A' for Active; 'I' for Inactive)
REMARK    1  A    between atoms: C_1  and  N_2
REMARK    2  A    between atoms: N_5  and  S_6
REMARK    3  A    between atoms: S_6  and  C_9
REMARK                            x       y       z     vdW  Elec       q    Type
REMARK                         _______ _______ _______ _____ _____    ______ ____
ROOT
ATOM      1  S   UNL     1       5.052   3.907  17.886  0.00  0.00    +0.000 S 
ATOM      2  O   UNL     1       5.950   4.243  18.969  0.00  0.00    +0.000 OA
ATOM      3  O   UNL     1       4.516   2.568  17.760  0.00  0.00    +0.000 OA
ENDROOT
BRANCH   1   4
ATOM      4  C   UNL     1       5.909   4.286  16.394  0.00  0.00    +0.000 A 
ATOM      5  C   UNL     1       6.934   5.216  16.400  0.00  0.00    +0.000 A 
ATOM      6  N   UNL     1       7.597   5.592  15.279  0.00  0.00    +0.000 NA
ATOM      7  C   UNL     1       7.203   5.025  14.111  0.00  0.00    +0.000 A 
ATOM      8 CL   UNL     1       8.104   5.594  12.761  0.00  0.00    +0.000 Cl
ATOM      9  C   UNL     1       6.176   4.090  14.014  0.00  0.00    +0.000 A 
ATOM     10 BR   UNL     1       5.644   3.292  12.381  0.00  0.00    +0.000 Br
ATOM     11  C   UNL     1       5.509   3.720  15.183  0.00  0.00    +0.000 A 
ENDBRANCH   1   4
BRANCH   1  16
ATOM     12  C   UNL     1       0.967   3.512  20.798  0.00  0.00    +0.000 C 
ATOM     13  N   UNL     1       1.570   4.393  19.798  0.00  0.00    +0.000 NA
ATOM     14  C   UNL     1       1.698   3.691  18.504  0.00  0.00    +0.000 C 
ATOM     15  C   UNL     1       2.430   4.525  17.429  0.00  0.00    +0.000 C 
ATOM     16  N   UNL     1       3.761   5.018  17.904  0.00  0.00    +0.000 NA
ATOM     17  C   UNL     1       3.573   5.758  19.200  0.00  0.00    +0.000 C 
ATOM     18  C   UNL     1       2.887   4.876  20.261  0.00  0.00    +0.000 C 
ENDBRANCH   1  16
TORSDOF 2
ENDMDL
MODEL 3
REMARK VINA RESULT:      -6.3      1.299      1.691
REMARK  Name = 
REMARK  3 active torsions:
REMARK  status: ('A' for Active; 'I' for Inactive)
REMARK    1  A    between atoms: C_1  and  N_2
REMARK    2  A    between atoms: N_5  and  S_6
REMARK    3  A    between atoms: S_6  and  C_9
REMARK                            x       y       z     vdW  Elec       q    Type
REMARK                         _______ _______ _______ _____ _____    ______ ____
ROOT
ATOM      1  S   UNL     1       3.716   4.264  17.137  0.00  0.00    +0.000 S 
ATOM      2  O   UNL     1       2.661   3.585  16.418  0.00  0.00    +0.000 OA
ATOM      3  O   UNL     1       3.471   5.538  17.781  0.00  0.00    +0.000 OA
ENDROOT
BRANCH   1   4
ATOM      4  C   UNL     1       5.037   4.483  15.993  0.00  0.00    +0.000 A 
ATOM      5  C   UNL     1       6.075   5.349  16.289  0.00  0.00    +0.000 A 
ATOM      6  N   UNL     1       7.093   5.603  15.432  0.00  0.00    +0.000 NA
ATOM      7  C   UNL     1       7.055   4.977  14.228  0.00  0.00    +0.000 A 
ATOM      8 CL   UNL     1       8.387   5.393  13.223  0.00  0.00    +0.000 Cl
ATOM      9  C   UNL     1       6.044   4.100  13.845  0.00  0.00    +0.000 A 
ATOM     10 BR   UNL     1       6.009   3.219  12.169  0.00  0.00    +0.000 Br
ATOM     11  C   UNL     1       5.007   3.856  14.747  0.00  0.00    +0.000 A 
ENDBRANCH   1   4
BRANCH   1  16
ATOM     12  C   UNL     1       1.340   2.791  21.322  0.00  0.00    +0.000 C 
ATOM     13  N   UNL     1       2.589   2.582  20.590  0.00  0.00    +0.000 NA
ATOM     14  C   UNL     1       3.356   3.843  20.510  0.00  0.00    +0.000 C 
ATOM     15  C   UNL     1       4.636   3.723  19.653  0.00  0.00    +0.000 C 
ATOM     16  N   UNL     1       4.354   3.180  18.287  0.00  0.00    +0.000 NA
ATOM     17  C   UNL     1       3.609   1.881  18.423  0.00  0.00    +0.000 C 
ATOM     18  C   UNL     1       2.314   2.053  19.238  0.00  0.00    +0.000 C 
ENDBRANCH   1  16
TORSDOF 2
ENDMDL
MODEL 4
REMARK VINA RESULT:      -6.0      1.731      2.066
REMARK  Name = 
REMARK  3 active torsions:
REMARK  status: ('A' for Active; 'I' for Inactive)
REMARK    1  A    between atoms: C_1  and  N_2
REMARK    2  A    between atoms: N_5  and  S_6
REMARK    3  A    between atoms: S_6  and  C_9
REMARK                            x       y       z     vdW  Elec       q    Type
REMARK                         _______ _______ _______ _____ _____    ______ ____
ROOT
ATOM      1  S   UNL     1       4.961   4.398  18.727  0.00  0.00    +0.000 S 
ATOM      2  O   UNL     1       5.324   5.535  19.543  0.00  0.00    +0.000 OA
ATOM      3  O   UNL     1       5.219   3.048  19.185  0.00  0.00    +0.000 OA
ENDROOT
BRANCH   1   4
ATOM      4  C   UNL     1       5.782   4.610  17.183  0.00  0.00    +0.000 A 
ATOM      5  C   UNL     1       6.898   5.423  17.098  0.00  0.00    +0.000 A 
ATOM      6  N   UNL     1       7.545   5.671  15.933  0.00  0.00    +0.000 NA
ATOM      7  C   UNL     1       7.040   5.093  14.814  0.00  0.00    +0.000 A 
ATOM      8 CL   UNL     1       7.933   5.495  13.399  0.00  0.00    +0.000 Cl
ATOM      9  C   UNL     1       5.917   4.270  14.808  0.00  0.00    +0.000 A 
ATOM     10 BR   UNL     1       5.230   3.454  13.244  0.00  0.00    +0.000 Br
ATOM     11  C   UNL     1       5.270   4.032  16.022  0.00  0.00    +0.000 A 
ENDBRANCH   1   4
BRANCH   1  16
ATOM     12  C   UNL     1       1.731   7.561  20.940  0.00  0.00    +0.000 C 
ATOM     13  N   UNL     1       1.791   6.552  19.882  0.00  0.00    +0.000 NA
ATOM     14  C   UNL     1       2.129   5.230  20.450  0.00  0.00    +0.000 C 
ATOM     15  C   UNL     1       2.319   4.136  19.376  0.00  0.00    +0.000 C 
ATOM     16  N   UNL     1       3.310   4.538  18.328  0.00  0.00    +0.000 NA
ATOM     17  C   UNL     1       2.902   5.867  17.755  0.00  0.00    +0.000 C 
ATOM     18  C   UNL     1       2.774   6.942  18.850  0.00  0.00    +0.000 C 
ENDBRANCH   1  16
TORSDOF 2
ENDMDL
MODEL 5
REMARK VINA RESULT:      -5.9      5.253      6.365
REMARK  Name = 
REMARK  3 active torsions:
REMARK  status: ('A' for Active; 'I' for Inactive)
REMARK    1  A    between atoms: C_1  and  N_2
REMARK    2  A    between atoms: N_5  and  S_6
REMARK    3  A    between atoms: S_6  and  C_9
REMARK                            x       y       z     vdW  Elec       q    Type
REMARK                         _______ _______ _______ _____ _____    ______ ____
ROOT
ATOM      1  S   UNL     1       3.053   6.001  18.794  0.00  0.00    +0.000 S 
ATOM      2  O   UNL     1       3.992   5.819  19.878  0.00  0.00    +0.000 OA
ATOM      3  O   UNL     1       3.510   6.045  17.420  0.00  0.00    +0.000 OA
ENDROOT
BRANCH   1   4
ATOM      4  C   UNL     1       2.197   7.505  19.125  0.00  0.00    +0.000 A 
ATOM      5  C   UNL     1       2.093   8.475  18.144  0.00  0.00    +0.000 A 
ATOM      6  N   UNL     1       1.494   9.673  18.349  0.00  0.00    +0.000 NA
ATOM      7  C   UNL     1       0.998   9.908  19.590  0.00  0.00    +0.000 A 
ATOM      8 CL   UNL     1       0.282  11.466  19.733  0.00  0.00    +0.000 Cl
ATOM      9  C   UNL     1       1.068   8.993  20.637  0.00  0.00    +0.000 A 
ATOM     10 BR   UNL     1       0.358   9.325  22.361  0.00  0.00    +0.000 Br
ATOM     11  C   UNL     1       1.691   7.767  20.398  0.00  0.00    +0.000 A 
ENDBRANCH   1   4
BRANCH   1  16
ATOM     12  C   UNL     1       3.872   1.042  18.547  0.00  0.00    +0.000 C 
ATOM     13  N   UNL     1       2.791   2.008  18.747  0.00  0.00    +0.000 NA
ATOM     14  C   UNL     1       2.624   2.850  17.544  0.00  0.00    +0.000 C 
ATOM     15  C   UNL     1       1.573   3.968  17.726  0.00  0.00    +0.000 C 
ATOM     16  N   UNL     1       1.844   4.809  18.934  0.00  0.00    +0.000 NA
ATOM     17  C   UNL     1       1.968   3.912  20.135  0.00  0.00    +0.000 C 
ATOM     18  C   UNL     1       3.060   2.845  19.935  0.00  0.00    +0.000 C 
ENDBRANCH   1  16
TORSDOF 2
ENDMDL
MODEL 6
REMARK VINA RESULT:      -5.9      5.076      6.256
REMARK  Name = 
REMARK  3 active torsions:
REMARK  status: ('A' for Active; 'I' for Inactive)
REMARK    1  A    between atoms: C_1  and  N_2
REMARK    2  A    between atoms: N_5  and  S_6
REMARK    3  A    between atoms: S_6  and  C_9
REMARK                            x       y       z     vdW  Elec       q    Type
REMARK                         _______ _______ _______ _____ _____    ______ ____
ROOT
ATOM      1  S   UNL     1       2.768   5.739  19.695  0.00  0.00    +0.000 S 
ATOM      2  O   UNL     1       2.120   5.170  20.855  0.00  0.00    +0.000 OA
ATOM      3  O   UNL     1       4.211   5.847  19.635  0.00  0.00    +0.000 OA
ENDROOT
BRANCH   1   4
ATOM      4  C   UNL     1       2.098   7.356  19.494  0.00  0.00    +0.000 A 
ATOM      5  C   UNL     1       2.270   8.034  18.300  0.00  0.00    +0.000 A 
ATOM      6  N   UNL     1       1.826   9.298  18.097  0.00  0.00    +0.000 NA
ATOM      7  C   UNL     1       1.204   9.906  19.139  0.00  0.00    +0.000 A 
ATOM      8 CL   UNL     1       0.704  11.510  18.767  0.00  0.00    +0.000 Cl
ATOM      9  C   UNL     1       0.999   9.302  20.376  0.00  0.00    +0.000 A 
ATOM     10 BR   UNL     1       0.115  10.153  21.818  0.00  0.00    +0.000 Br
ATOM     11  C   UNL     1       1.466   7.999  20.558  0.00  0.00    +0.000 A 
ENDBRANCH   1   4
BRANCH   1  16
ATOM     12  C   UNL     1       3.938   0.972  18.582  0.00  0.00    +0.000 C 
ATOM     13  N   UNL     1       3.148   2.097  18.080  0.00  0.00    +0.000 NA
ATOM     14  C   UNL     1       4.028   3.234  17.741  0.00  0.00    +0.000 C 
ATOM     15  C   UNL     1       3.251   4.498  17.309  0.00  0.00    +0.000 C 
ATOM     16  N   UNL     1       2.220   4.900  18.317  0.00  0.00    +0.000 NA
ATOM     17  C   UNL     1       1.327   3.724  18.599  0.00  0.00    +0.000 C 
ATOM     18  C   UNL     1       2.134   2.502  19.077  0.00  0.00    +0.000 C 
ENDBRANCH   1  16
TORSDOF 2
ENDMDL
MODEL 7
REMARK VINA RESULT:      -5.8      5.396      6.569
REMARK  Name = 
REMARK  3 active torsions:
REMARK  status: ('A' for Active; 'I' for Inactive)
REMARK    1  A    between atoms: C_1  and  N_2
REMARK    2  A    between atoms: N_5  and  S_6
REMARK    3  A    between atoms: S_6  and  C_9
REMARK                            x       y       z     vdW  Elec       q    Type
REMARK                         _______ _______ _______ _____ _____    ______ ____
ROOT
ATOM      1  S   UNL     1       2.881   6.424  18.208  0.00  0.00    +0.000 S 
ATOM      2  O   UNL     1       3.969   6.887  17.376  0.00  0.00    +0.000 OA
ATOM      3  O   UNL     1       1.872   5.532  17.675  0.00  0.00    +0.000 OA
ENDROOT
BRANCH   1   4
ATOM      4  C   UNL     1       2.064   7.865  18.807  0.00  0.00    +0.000 A 
ATOM      5  C   UNL     1       1.847   8.940  17.964  0.00  0.00    +0.000 A 
ATOM      6  N   UNL     1       1.272  10.097  18.375  0.00  0.00    +0.000 NA
ATOM      7  C   UNL     1       0.921  10.179  19.683  0.00  0.00    +0.000 A 
ATOM      8 CL   UNL     1       0.222  11.699  20.087  0.00  0.00    +0.000 Cl
ATOM      9  C   UNL     1       1.113   9.151  20.601  0.00  0.00    +0.000 A 
ATOM     10 BR   UNL     1       0.604   9.270  22.421  0.00  0.00    +0.000 Br
ATOM     11  C   UNL     1       1.707   7.970  20.152  0.00  0.00    +0.000 A 
ENDBRANCH   1   4
BRANCH   1  16
ATOM     12  C   UNL     1       3.781   1.509  18.817  0.00  0.00    +0.000 C 
ATOM     13  N   UNL     1       3.922   2.787  19.516  0.00  0.00    +0.000 NA
ATOM     14  C   UNL     1       2.594   3.391  19.757  0.00  0.00    +0.000 C 
ATOM     15  C   UNL     1       2.672   4.797  20.393  0.00  0.00    +0.000 C 
ATOM     16  N   UNL     1       3.548   5.725  19.611  0.00  0.00    +0.000 NA
ATOM     17  C   UNL     1       4.896   5.084  19.426  0.00  0.00    +0.000 C 
ATOM     18  C   UNL     1       4.780   3.708  18.742  0.00  0.00    +0.000 C 
ENDBRANCH   1  16
TORSDOF 2
ENDMDL
MODEL 8
REMARK VINA RESULT:      -5.8      3.110      3.396
REMARK  Name = 
REMARK  3 active torsions:
REMARK  status: ('A' for Active; 'I' for Inactive)
REMARK    1  A    between atoms: C_1  and  N_2
REMARK    2  A    between atoms: N_5  and  S_6
REMARK    3  A    between atoms: S_6  and  C_9
REMARK                            x       y       z     vdW  Elec       q    Type
REMARK                         _______ _______ _______ _____ _____    ______ ____
ROOT
ATOM      1  S   UNL     1       3.661   3.721  17.460  0.00  0.00    +0.000 S 
ATOM      2  O   UNL     1       4.039   2.679  18.388  0.00  0.00    +0.000 OA
ATOM      3  O   UNL     1       3.466   3.424  16.056  0.00  0.00    +0.000 OA
ENDROOT
BRANCH   1   4
ATOM      4  C   UNL     1       4.899   4.968  17.580  0.00  0.00    +0.000 A 
ATOM      5  C   UNL     1       4.924   6.011  16.671  0.00  0.00    +0.000 A 
ATOM      6  N   UNL     1       5.879   6.973  16.675  0.00  0.00    +0.000 NA
ATOM      7  C   UNL     1       6.851   6.871  17.616  0.00  0.00    +0.000 A 
ATOM      8 CL   UNL     1       8.012   8.136  17.509  0.00  0.00    +0.000 Cl
ATOM      9  C   UNL     1       6.908   5.850  18.562  0.00  0.00    +0.000 A 
ATOM     10 BR   UNL     1       8.259   5.727  19.882  0.00  0.00    +0.000 Br
ATOM     11  C   UNL     1       5.912   4.872  18.535  0.00  0.00    +0.000 A 
ENDBRANCH   1   4
BRANCH   1  16
ATOM     12  C   UNL     1       1.459   2.627  21.851  0.00  0.00    +0.000 C 
ATOM     13  N   UNL     1       1.328   3.529  20.706  0.00  0.00    +0.000 NA
ATOM     14  C   UNL     1       1.071   2.759  19.471  0.00  0.00    +0.000 C 
ATOM     15  C   UNL     1       1.033   3.640  18.202  0.00  0.00    +0.000 C 
ATOM     16  N   UNL     1       2.261   4.483  18.061  0.00  0.00    +0.000 NA
ATOM     17  C   UNL     1       2.457   5.275  19.325  0.00  0.00    +0.000 C 
ATOM     18  C   UNL     1       2.542   4.358  20.560  0.00  0.00    +0.000 C 
ENDBRANCH   1  16
TORSDOF 2
ENDMDL
MODEL 9
REMARK VINA RESULT:      -5.8      4.709      5.533
REMARK  Name = 
REMARK  3 active torsions:
REMARK  status: ('A' for Active; 'I' for Inactive)
REMARK    1  A    between atoms: C_1  and  N_2
REMARK    2  A    between atoms: N_5  and  S_6
REMARK    3  A    between atoms: S_6  and  C_9
REMARK                            x       y       z     vdW  Elec       q    Type
REMARK                         _______ _______ _______ _____ _____    ______ ____
ROOT
ATOM      1  S   UNL     1       3.997   5.741  18.369  0.00  0.00    +0.000 S 
ATOM      2  O   UNL     1       4.458   5.426  19.703  0.00  0.00    +0.000 OA
ATOM      3  O   UNL     1       4.941   6.050  17.315  0.00  0.00    +0.000 OA
ENDROOT
BRANCH   1   4
ATOM      4  C   UNL     1       2.902   7.112  18.531  0.00  0.00    +0.000 A 
ATOM      5  C   UNL     1       2.709   7.975  17.467  0.00  0.00    +0.000 A 
ATOM      6  N   UNL     1       1.923   9.077  17.541  0.00  0.00    +0.000 NA
ATOM      7  C   UNL     1       1.325   9.326  18.734  0.00  0.00    +0.000 A 
ATOM      8 CL   UNL     1       0.371  10.757  18.710  0.00  0.00    +0.000 Cl
ATOM      9  C   UNL     1       1.473   8.517  19.857  0.00  0.00    +0.000 A 
ATOM     10 BR   UNL     1       0.621   8.865  21.512  0.00  0.00    +0.000 Br
ATOM     11  C   UNL     1       2.289   7.388  19.753  0.00  0.00    +0.000 A 
ENDBRANCH   1   4
BRANCH   1  16
ATOM     12  C   UNL     1       1.731   2.436  21.414  0.00  0.00    +0.000 C 
ATOM     13  N   UNL     1       1.847   2.784  19.997  0.00  0.00    +0.000 NA
ATOM     14  C   UNL     1       3.243   2.621  19.540  0.00  0.00    +0.000 C 
ATOM     15  C   UNL     1       3.463   3.077  18.081  0.00  0.00    +0.000 C 
ATOM     16  N   UNL     1       2.983   4.475  17.846  0.00  0.00    +0.000 NA
ATOM     17  C   UNL     1       1.550   4.580  18.290  0.00  0.00    +0.000 C 
ATOM     18  C   UNL     1       1.381   4.167  19.764  0.00  0.00    +0.000 C 
ENDBRANCH   1  16
TORSDOF 2
ENDMDL
