MODEL 1
REMARK VINA RESULT:      -7.8      0.000      0.000
REMARK  Name = 
REMARK  1 active torsions:
REMARK  status: ('A' for Active; 'I' for Inactive)
REMARK    1  A    between atoms: N_11  and  C_12
REMARK                            x       y       z     vdW  Elec       q    Type
REMARK                         _______ _______ _______ _____ _____    ______ ____
ROOT
ATOM      1  O   UNL     1       6.686   5.397  17.773  0.00  0.00    +0.000 OA
ATOM      2  C   UNL     1       6.555   5.205  16.587  0.00  0.00    +0.000 C 
ATOM      3  N   UNL     1       7.419   5.616  15.596  0.00  0.00    +0.000 N 
ATOM      4  C   UNL     1       7.094   5.030  14.382  0.00  0.00    +0.000 A 
ATOM      5  C   UNL     1       7.804   5.121  13.203  0.00  0.00    +0.000 A 
ATOM      6  C   UNL     1       7.337   4.381  12.114  0.00  0.00    +0.000 A 
ATOM      7  C   UNL     1       6.183   3.576  12.225  0.00  0.00    +0.000 A 
ATOM      8  C   UNL     1       5.462   3.515  13.423  0.00  0.00    +0.000 A 
ATOM      9  C   UNL     1       5.937   4.257  14.483  0.00  0.00    +0.000 A 
ATOM     10  C   UNL     1       5.440   4.417  15.856  0.00  0.00    +0.000 C 
ATOM     11  N   UNL     1       4.269   4.016  16.251  0.00  0.00    +0.000 NA
ATOM     12  H   UNL     1       8.245   6.161  15.786  0.00  0.00    +0.000 HD
ENDROOT
BRANCH  11  13
ATOM     13  C   UNL     1       3.779   4.250  17.547  0.00  0.00    +0.000 A 
ATOM     14  C   UNL     1       3.076   5.402  17.920  0.00  0.00    +0.000 A 
ATOM     15  C   UNL     1       2.664   5.603  19.241  0.00  0.00    +0.000 A 
ATOM     16  C   UNL     1       2.863   4.599  20.176  0.00  0.00    +0.000 A 
ATOM     17  F   UNL     1       2.463   4.786  21.441  0.00  0.00    +0.000 F 
ATOM     18  C   UNL     1       3.456   3.399  19.810  0.00  0.00    +0.000 A 
ATOM     19  C   UNL     1       3.919   3.231  18.500  0.00  0.00    +0.000 A 
ENDBRANCH  11  13
TORSDOF 1
ENDMDL
MODEL 2
REMARK VINA RESULT:      -7.8      0.116      1.138
REMARK  Name = 
REMARK  1 active torsions:
REMARK  status: ('A' for Active; 'I' for Inactive)
REMARK    1  A    between atoms: N_11  and  C_12
REMARK                            x       y       z     vdW  Elec       q    Type
REMARK                         _______ _______ _______ _____ _____    ______ ____
ROOT
ATOM      1  O   UNL     1       6.746   5.225  17.813  0.00  0.00    +0.000 OA
ATOM      2  C   UNL     1       6.593   5.073  16.625  0.00  0.00    +0.000 C 
ATOM      3  N   UNL     1       7.444   5.507  15.632  0.00  0.00    +0.000 N 
ATOM      4  C   UNL     1       7.093   4.963  14.406  0.00  0.00    +0.000 A 
ATOM      5  C   UNL     1       7.784   5.086  13.219  0.00  0.00    +0.000 A 
ATOM      6  C   UNL     1       7.291   4.385  12.114  0.00  0.00    +0.000 A 
ATOM      7  C   UNL     1       6.132   3.588  12.219  0.00  0.00    +0.000 A 
ATOM      8  C   UNL     1       5.431   3.495  13.427  0.00  0.00    +0.000 A 
ATOM      9  C   UNL     1       5.931   4.198  14.502  0.00  0.00    +0.000 A 
ATOM     10  C   UNL     1       5.458   4.318  15.888  0.00  0.00    +0.000 C 
ATOM     11  N   UNL     1       4.291   3.915  16.290  0.00  0.00    +0.000 NA
ATOM     12  H   UNL     1       8.279   6.039  15.826  0.00  0.00    +0.000 HD
ENDROOT
BRANCH  11  13
ATOM     13  C   UNL     1       3.825   4.112  17.601  0.00  0.00    +0.000 A 
ATOM     14  C   UNL     1       4.049   3.216  18.653  0.00  0.00    +0.000 A 
ATOM     15  C   UNL     1       3.509   3.441  19.923  0.00  0.00    +0.000 A 
ATOM     16  C   UNL     1       2.828   4.621  20.173  0.00  0.00    +0.000 A 
ATOM     17  F   UNL     1       2.315   4.842  21.391  0.00  0.00    +0.000 F 
ATOM     18  C   UNL     1       2.686   5.581  19.181  0.00  0.00    +0.000 A 
ATOM     19  C   UNL     1       3.178   5.321  17.897  0.00  0.00    +0.000 A 
ENDBRANCH  11  13
TORSDOF 1
ENDMDL
MODEL 3
REMARK VINA RESULT:      -7.4      1.589      1.865
REMARK  Name = 
REMARK  1 active torsions:
REMARK  status: ('A' for Active; 'I' for Inactive)
REMARK    1  A    between atoms: N_11  and  C_12
REMARK                            x       y       z     vdW  Elec       q    Type
REMARK                         _______ _______ _______ _____ _____    ______ ____
ROOT
ATOM      1  O   UNL     1       5.612   4.051  19.335  0.00  0.00    +0.000 OA
ATOM      2  C   UNL     1       5.703   4.275  18.152  0.00  0.00    +0.000 C 
ATOM      3  N   UNL     1       6.769   4.872  17.516  0.00  0.00    +0.000 N 
ATOM      4  C   UNL     1       6.651   4.760  16.139  0.00  0.00    +0.000 A 
ATOM      5  C   UNL     1       7.581   5.139  15.195  0.00  0.00    +0.000 A 
ATOM      6  C   UNL     1       7.289   4.861  13.857  0.00  0.00    +0.000 A 
ATOM      7  C   UNL     1       6.086   4.218  13.496  0.00  0.00    +0.000 A 
ATOM      8  C   UNL     1       5.142   3.862  14.466  0.00  0.00    +0.000 A 
ATOM      9  C   UNL     1       5.448   4.151  15.779  0.00  0.00    +0.000 A 
ATOM     10  C   UNL     1       4.703   3.917  17.023  0.00  0.00    +0.000 C 
ATOM     11  N   UNL     1       3.455   3.562  17.061  0.00  0.00    +0.000 NA
ATOM     12  H   UNL     1       7.576   5.215  18.013  0.00  0.00    +0.000 HD
ENDROOT
BRANCH  11  13
ATOM     13  C   UNL     1       2.736   3.421  18.261  0.00  0.00    +0.000 A 
ATOM     14  C   UNL     1       2.045   4.466  18.885  0.00  0.00    +0.000 A 
ATOM     15  C   UNL     1       1.397   4.277  20.109  0.00  0.00    +0.000 A 
ATOM     16  C   UNL     1       1.349   3.009  20.664  0.00  0.00    +0.000 A 
ATOM     17  F   UNL     1       0.723   2.823  21.834  0.00  0.00    +0.000 F 
ATOM     18  C   UNL     1       1.928   1.929  20.013  0.00  0.00    +0.000 A 
ATOM     19  C   UNL     1       2.626   2.139  18.818  0.00  0.00    +0.000 A 
ENDBRANCH  11  13
TORSDOF 1
ENDMDL
MODEL 4
REMARK VINA RESULT:      -7.4      2.814      6.447
REMARK  Name = 
REMARK  1 active torsions:
REMARK  status: ('A' for Active; 'I' for Inactive)
REMARK    1  A    between atoms: N_11  and  C_12
REMARK                            x       y       z     vdW  Elec       q    Type
REMARK                         _______ _______ _______ _____ _____    ______ ____
ROOT
ATOM      1  O   UNL     1       4.129   6.666  17.078  0.00  0.00    +0.000 OA
ATOM      2  C   UNL     1       3.708   5.846  17.859  0.00  0.00    +0.000 C 
ATOM      3  N   UNL     1       2.999   6.108  19.010  0.00  0.00    +0.000 N 
ATOM      4  C   UNL     1       2.469   4.942  19.542  0.00  0.00    +0.000 A 
ATOM      5  C   UNL     1       1.615   4.838  20.620  0.00  0.00    +0.000 A 
ATOM      6  C   UNL     1       1.136   3.564  20.939  0.00  0.00    +0.000 A 
ATOM      7  C   UNL     1       1.520   2.435  20.183  0.00  0.00    +0.000 A 
ATOM      8  C   UNL     1       2.407   2.557  19.108  0.00  0.00    +0.000 A 
ATOM      9  C   UNL     1       2.870   3.822  18.814  0.00  0.00    +0.000 A 
ATOM     10  C   UNL     1       3.789   4.301  17.772  0.00  0.00    +0.000 C 
ATOM     11  N   UNL     1       4.524   3.517  17.042  0.00  0.00    +0.000 NA
ATOM     12  H   UNL     1       2.797   7.045  19.323  0.00  0.00    +0.000 HD
ENDROOT
BRANCH  11  13
ATOM     13  C   UNL     1       5.457   3.998  16.107  0.00  0.00    +0.000 A 
ATOM     14  C   UNL     1       6.708   4.522  16.450  0.00  0.00    +0.000 A 
ATOM     15  C   UNL     1       7.569   5.038  15.478  0.00  0.00    +0.000 A 
ATOM     16  C   UNL     1       7.223   4.935  14.140  0.00  0.00    +0.000 A 
ATOM     17  F   UNL     1       8.050   5.422  13.204  0.00  0.00    +0.000 F 
ATOM     18  C   UNL     1       6.039   4.319  13.760  0.00  0.00    +0.000 A 
ATOM     19  C   UNL     1       5.157   3.859  14.744  0.00  0.00    +0.000 A 
ENDBRANCH  11  13
TORSDOF 1
ENDMDL
MODEL 5
REMARK VINA RESULT:      -7.3      2.846      6.450
REMARK  Name = 
REMARK  1 active torsions:
REMARK  status: ('A' for Active; 'I' for Inactive)
REMARK    1  A    between atoms: N_11  and  C_12
REMARK                            x       y       z     vdW  Elec       q    Type
REMARK                         _______ _______ _______ _____ _____    ______ ____
ROOT
ATOM      1  O   UNL     1       6.282   4.062  18.901  0.00  0.00    +0.000 OA
ATOM      2  C   UNL     1       5.150   3.739  19.171  0.00  0.00    +0.000 C 
ATOM      3  N   UNL     1       4.745   3.062  20.300  0.00  0.00    +0.000 N 
ATOM      4  C   UNL     1       3.363   3.061  20.408  0.00  0.00    +0.000 A 
ATOM      5  C   UNL     1       2.615   2.580  21.462  0.00  0.00    +0.000 A 
ATOM      6  C   UNL     1       1.230   2.754  21.400  0.00  0.00    +0.000 A 
ATOM      7  C   UNL     1       0.629   3.398  20.297  0.00  0.00    +0.000 A 
ATOM      8  C   UNL     1       1.402   3.859  19.225  0.00  0.00    +0.000 A 
ATOM      9  C   UNL     1       2.766   3.672  19.305  0.00  0.00    +0.000 A 
ATOM     10  C   UNL     1       3.850   4.029  18.380  0.00  0.00    +0.000 C 
ATOM     11  N   UNL     1       3.656   4.421  17.157  0.00  0.00    +0.000 NA
ATOM     12  H   UNL     1       5.393   2.738  21.002  0.00  0.00    +0.000 HD
ENDROOT
BRANCH  11  13
ATOM     13  C   UNL     1       4.708   4.680  16.263  0.00  0.00    +0.000 A 
ATOM     14  C   UNL     1       5.316   5.932  16.113  0.00  0.00    +0.000 A 
ATOM     15  C   UNL     1       6.320   6.141  15.163  0.00  0.00    +0.000 A 
ATOM     16  C   UNL     1       6.796   5.066  14.429  0.00  0.00    +0.000 A 
ATOM     17  F   UNL     1       7.763   5.261  13.522  0.00  0.00    +0.000 F 
ATOM     18  C   UNL     1       6.291   3.790  14.634  0.00  0.00    +0.000 A 
ATOM     19  C   UNL     1       5.245   3.602  15.544  0.00  0.00    +0.000 A 
ENDBRANCH  11  13
TORSDOF 1
ENDMDL
MODEL 6
REMARK VINA RESULT:      -7.3      2.836      6.519
REMARK  Name = 
REMARK  1 active torsions:
REMARK  status: ('A' for Active; 'I' for Inactive)
REMARK    1  A    between atoms: N_11  and  C_12
REMARK                            x       y       z     vdW  Elec       q    Type
REMARK                         _______ _______ _______ _____ _____    ______ ____
ROOT
ATOM      1  O   UNL     1       6.284   4.021  18.853  0.00  0.00    +0.000 OA
ATOM      2  C   UNL     1       5.151   3.702  19.125  0.00  0.00    +0.000 C 
ATOM      3  N   UNL     1       4.739   3.071  20.279  0.00  0.00    +0.000 N 
ATOM      4  C   UNL     1       3.356   3.066  20.374  0.00  0.00    +0.000 A 
ATOM      5  C   UNL     1       2.602   2.625  21.440  0.00  0.00    +0.000 A 
ATOM      6  C   UNL     1       1.216   2.787  21.357  0.00  0.00    +0.000 A 
ATOM      7  C   UNL     1       0.622   3.378  20.222  0.00  0.00    +0.000 A 
ATOM      8  C   UNL     1       1.402   3.798  19.139  0.00  0.00    +0.000 A 
ATOM      9  C   UNL     1       2.766   3.624  19.240  0.00  0.00    +0.000 A 
ATOM     10  C   UNL     1       3.857   3.949  18.311  0.00  0.00    +0.000 C 
ATOM     11  N   UNL     1       3.672   4.286  17.070  0.00  0.00    +0.000 NA
ATOM     12  H   UNL     1       5.382   2.782  21.000  0.00  0.00    +0.000 HD
ENDROOT
BRANCH  11  13
ATOM     13  C   UNL     1       4.731   4.514  16.175  0.00  0.00    +0.000 A 
ATOM     14  C   UNL     1       5.246   3.542  15.310  0.00  0.00    +0.000 A 
ATOM     15  C   UNL     1       6.340   3.814  14.483  0.00  0.00    +0.000 A 
ATOM     16  C   UNL     1       6.859   5.098  14.443  0.00  0.00    +0.000 A 
ATOM     17  F   UNL     1       7.904   5.363  13.647  0.00  0.00    +0.000 F 
ATOM     18  C   UNL     1       6.299   6.113  15.206  0.00  0.00    +0.000 A 
ATOM     19  C   UNL     1       5.242   5.816  16.074  0.00  0.00    +0.000 A 
ENDBRANCH  11  13
TORSDOF 1
ENDMDL
MODEL 7
REMARK VINA RESULT:      -7.2      2.803      6.423
REMARK  Name = 
REMARK  1 active torsions:
REMARK  status: ('A' for Active; 'I' for Inactive)
REMARK    1  A    between atoms: N_11  and  C_12
REMARK                            x       y       z     vdW  Elec       q    Type
REMARK                         _______ _______ _______ _____ _____    ______ ____
ROOT
ATOM      1  O   UNL     1       4.099   6.653  17.075  0.00  0.00    +0.000 OA
ATOM      2  C   UNL     1       3.707   5.832  17.870  0.00  0.00    +0.000 C 
ATOM      3  N   UNL     1       3.036   6.093  19.045  0.00  0.00    +0.000 N 
ATOM      4  C   UNL     1       2.528   4.926  19.594  0.00  0.00    +0.000 A 
ATOM      5  C   UNL     1       1.711   4.820  20.700  0.00  0.00    +0.000 A 
ATOM      6  C   UNL     1       1.246   3.545  21.035  0.00  0.00    +0.000 A 
ATOM      7  C   UNL     1       1.605   2.417  20.267  0.00  0.00    +0.000 A 
ATOM      8  C   UNL     1       2.455   2.541  19.162  0.00  0.00    +0.000 A 
ATOM      9  C   UNL     1       2.906   3.807  18.852  0.00  0.00    +0.000 A 
ATOM     10  C   UNL     1       3.787   4.288  17.780  0.00  0.00    +0.000 C 
ATOM     11  N   UNL     1       4.498   3.506  17.025  0.00  0.00    +0.000 NA
ATOM     12  H   UNL     1       2.844   7.030  19.365  0.00  0.00    +0.000 HD
ENDROOT
BRANCH  11  13
ATOM     13  C   UNL     1       5.397   3.988  16.059  0.00  0.00    +0.000 A 
ATOM     14  C   UNL     1       5.102   4.084  14.694  0.00  0.00    +0.000 A 
ATOM     15  C   UNL     1       6.060   4.518  13.773  0.00  0.00    +0.000 A 
ATOM     16  C   UNL     1       7.291   4.961  14.231  0.00  0.00    +0.000 A 
ATOM     17  F   UNL     1       8.209   5.384  13.351  0.00  0.00    +0.000 F 
ATOM     18  C   UNL     1       7.574   4.985  15.589  0.00  0.00    +0.000 A 
ATOM     19  C   UNL     1       6.631   4.492  16.498  0.00  0.00    +0.000 A 
ENDBRANCH  11  13
TORSDOF 1
ENDMDL
MODEL 8
REMARK VINA RESULT:      -7.1      1.744      2.516
REMARK  Name = 
REMARK  1 active torsions:
REMARK  status: ('A' for Active; 'I' for Inactive)
REMARK    1  A    between atoms: N_11  and  C_12
REMARK                            x       y       z     vdW  Elec       q    Type
REMARK                         _______ _______ _______ _____ _____    ______ ____
ROOT
ATOM      1  O   UNL     1       5.189   5.236  19.803  0.00  0.00    +0.000 OA
ATOM      2  C   UNL     1       5.332   5.118  18.609  0.00  0.00    +0.000 C 
ATOM      3  N   UNL     1       6.081   5.940  17.795  0.00  0.00    +0.000 N 
ATOM      4  C   UNL     1       6.222   5.389  16.531  0.00  0.00    +0.000 A 
ATOM      5  C   UNL     1       6.996   5.875  15.498  0.00  0.00    +0.000 A 
ATOM      6  C   UNL     1       7.057   5.113  14.328  0.00  0.00    +0.000 A 
ATOM      7  C   UNL     1       6.350   3.897  14.216  0.00  0.00    +0.000 A 
ATOM      8  C   UNL     1       5.551   3.432  15.266  0.00  0.00    +0.000 A 
ATOM      9  C   UNL     1       5.501   4.201  16.409  0.00  0.00    +0.000 A 
ATOM     10  C   UNL     1       4.781   4.012  17.676  0.00  0.00    +0.000 C 
ATOM     11  N   UNL     1       3.845   3.128  17.849  0.00  0.00    +0.000 NA
ATOM     12  H   UNL     1       6.559   6.758  18.140  0.00  0.00    +0.000 HD
ENDROOT
BRANCH  11  13
ATOM     13  C   UNL     1       3.112   3.016  19.042  0.00  0.00    +0.000 A 
ATOM     14  C   UNL     1       3.624   2.474  20.227  0.00  0.00    +0.000 A 
ATOM     15  C   UNL     1       2.826   2.338  21.366  0.00  0.00    +0.000 A 
ATOM     16  C   UNL     1       1.535   2.841  21.356  0.00  0.00    +0.000 A 
ATOM     17  F   UNL     1       0.769   2.718  22.449  0.00  0.00    +0.000 F 
ATOM     18  C   UNL     1       1.035   3.485  20.233  0.00  0.00    +0.000 A 
ATOM     19  C   UNL     1       1.821   3.564  19.078  0.00  0.00    +0.000 A 
ENDBRANCH  11  13
TORSDOF 1
ENDMDL
MODEL 9
REMARK VINA RESULT:      -7.1      1.948      2.696
REMARK  Name = 
REMARK  1 active torsions:
REMARK  status: ('A' for Active; 'I' for Inactive)
REMARK    1  A    between atoms: N_11  and  C_12
REMARK                            x       y       z     vdW  Elec       q    Type
REMARK                         _______ _______ _______ _____ _____    ______ ____
ROOT
ATOM      1  O   UNL     1       3.676   5.963  19.294  0.00  0.00    +0.000 OA
ATOM      2  C   UNL     1       4.084   5.619  18.211  0.00  0.00    +0.000 C 
ATOM      3  N   UNL     1       4.548   6.450  17.215  0.00  0.00    +0.000 N 
ATOM      4  C   UNL     1       5.155   5.721  16.204  0.00  0.00    +0.000 A 
ATOM      5  C   UNL     1       5.828   6.224  15.110  0.00  0.00    +0.000 A 
ATOM      6  C   UNL     1       6.436   5.304  14.251  0.00  0.00    +0.000 A 
ATOM      7  C   UNL     1       6.357   3.917  14.501  0.00  0.00    +0.000 A 
ATOM      8  C   UNL     1       5.649   3.424  15.602  0.00  0.00    +0.000 A 
ATOM      9  C   UNL     1       5.053   4.349  16.434  0.00  0.00    +0.000 A 
ATOM     10  C   UNL     1       4.254   4.182  17.656  0.00  0.00    +0.000 C 
ATOM     11  N   UNL     1       3.775   3.043  18.055  0.00  0.00    +0.000 NA
ATOM     12  H   UNL     1       4.552   7.454  17.303  0.00  0.00    +0.000 HD
ENDROOT
BRANCH  11  13
ATOM     13  C   UNL     1       2.945   2.917  19.183  0.00  0.00    +0.000 A 
ATOM     14  C   UNL     1       1.550   3.022  19.142  0.00  0.00    +0.000 A 
ATOM     15  C   UNL     1       0.783   2.944  20.307  0.00  0.00    +0.000 A 
ATOM     16  C   UNL     1       1.404   2.656  21.512  0.00  0.00    +0.000 A 
ATOM     17  F   UNL     1       0.671   2.574  22.631  0.00  0.00    +0.000 F 
ATOM     18  C   UNL     1       2.773   2.435  21.568  0.00  0.00    +0.000 A 
ATOM     19  C   UNL     1       3.540   2.573  20.405  0.00  0.00    +0.000 A 
ENDBRANCH  11  13
TORSDOF 1
ENDMDL
