MODEL 1
REMARK VINA RESULT:      -7.9      0.000      0.000
REMARK  Name = 
REMARK  10 active torsions:
REMARK  status: ('A' for Active; 'I' for Inactive)
REMARK    1  A    between atoms: C_1  and  C_2
REMARK    2  A    between atoms: C_5  and  C_6
REMARK    3  A    between atoms: C_6  and  N_7
REMARK    4  A    between atoms: C_8  and  C_9
REMARK    5  A    between atoms: C_9  and  O_10
REMARK    6  A    between atoms: C_13  and  S_14
REMARK    7  A    between atoms: S_14  and  C_15
REMARK    8  A    between atoms: C_15  and  C_16
REMARK    9  A    between atoms: N_18  and  C_19
REMARK   10  A    between atoms: C_22  and  C_23
REMARK                            x       y       z     vdW  Elec       q    Type
REMARK                         _______ _______ _______ _____ _____    ______ ____
ROOT
ATOM      1  N   UNL     1       6.123   5.847  17.705  0.00  0.00    +0.000 N 
ATOM      2  C   UNL     1       7.194   6.603  18.148  0.00  0.00    +0.000 A 
ATOM      3  C   UNL     1       7.605   5.972  19.305  0.00  0.00    +0.000 A 
ATOM      4  N   UNL     1       6.764   4.940  19.637  0.00  0.00    +0.000 NA
ATOM      5  C   UNL     1       5.914   4.859  18.640  0.00  0.00    +0.000 A 
ENDROOT
BRANCH   1   6
ATOM      6  C   UNL     1       5.347   6.085  16.491  0.00  0.00    +0.000 C 
BRANCH   6  11
ATOM      7  C   UNL     1       6.933   3.291  11.632  0.00  0.00    +0.000 C 
ATOM      8  C   UNL     1       6.553   3.912  12.940  0.00  0.00    +0.000 A 
ATOM      9  C   UNL     1       5.280   3.709  13.476  0.00  0.00    +0.000 A 
ATOM     10  C   UNL     1       4.901   4.359  14.648  0.00  0.00    +0.000 A 
ATOM     11  C   UNL     1       5.770   5.237  15.311  0.00  0.00    +0.000 A 
ATOM     12  C   UNL     1       7.061   5.407  14.787  0.00  0.00    +0.000 A 
ATOM     13  C   UNL     1       7.447   4.749  13.616  0.00  0.00    +0.000 A 
ENDBRANCH   6  11
ENDBRANCH   1   6
BRANCH   2  14
ATOM     14  C   UNL     1       7.708   7.825  17.487  0.00  0.00    +0.000 C 
BRANCH  14  15
ATOM     15  O   UNL     1       8.483   8.543  18.428  0.00  0.00    +0.000 OA
ATOM     16  H   UNL     1       9.348   8.101  18.494  0.00  0.00    +0.000 HD
ENDBRANCH  14  15
ENDBRANCH   2  14
BRANCH   5  17
ATOM     17  S   UNL     1       4.728   3.606  18.469  0.00  0.00    +0.000 S 
BRANCH  17  18
ATOM     18  C   UNL     1       3.638   3.949  19.870  0.00  0.00    +0.000 C 
BRANCH  18  19
ATOM     19  C   UNL     1       2.620   4.996  19.465  0.00  0.00    +0.000 C 
ATOM     20  O   UNL     1       1.585   4.667  18.889  0.00  0.00    +0.000 OA
ATOM     21  N   UNL     1       3.012   6.295  19.757  0.00  0.00    +0.000 N 
ATOM     22  H   UNL     1       3.986   6.421  20.027  0.00  0.00    +0.000 HD
BRANCH  21  23
ATOM     23  C   UNL     1       2.268   7.459  19.469  0.00  0.00    +0.000 A 
ATOM     24  C   UNL     1       2.240   8.051  18.206  0.00  0.00    +0.000 A 
ATOM     25  C   UNL     1       1.554   9.248  17.991  0.00  0.00    +0.000 A 
ATOM     26  C   UNL     1       0.869   9.877  19.035  0.00  0.00    +0.000 A 
ATOM     27  C   UNL     1       0.201  11.197  18.780  0.00  0.00    +0.000 C 
ATOM     28  C   UNL     1       0.858   9.254  20.292  0.00  0.00    +0.000 A 
ATOM     29 CL   UNL     1       0.028   9.959  21.635  0.00  0.00    +0.000 Cl
ATOM     30  C   UNL     1       1.541   8.048  20.506  0.00  0.00    +0.000 A 
ENDBRANCH  21  23
ENDBRANCH  18  19
ENDBRANCH  17  18
ENDBRANCH   5  17
TORSDOF 8
ENDMDL
MODEL 2
REMARK VINA RESULT:      -7.3      2.857      5.400
REMARK  Name = 
REMARK  10 active torsions:
REMARK  status: ('A' for Active; 'I' for Inactive)
REMARK    1  A    between atoms: C_1  and  C_2
REMARK    2  A    between atoms: C_5  and  C_6
REMARK    3  A    between atoms: C_6  and  N_7
REMARK    4  A    between atoms: C_8  and  C_9
REMARK    5  A    between atoms: C_9  and  O_10
REMARK    6  A    between atoms: C_13  and  S_14
REMARK    7  A    between atoms: S_14  and  C_15
REMARK    8  A    between atoms: C_15  and  C_16
REMARK    9  A    between atoms: N_18  and  C_19
REMARK   10  A    between atoms: C_22  and  C_23
REMARK                            x       y       z     vdW  Elec       q    Type
REMARK                         _______ _______ _______ _____ _____    ______ ____
ROOT
ATOM      1  N   UNL     1       4.489   5.210  16.973  0.00  0.00    +0.000 N 
ATOM      2  C   UNL     1       5.835   5.241  16.651  0.00  0.00    +0.000 A 
ATOM      3  C   UNL     1       6.245   6.509  17.014  0.00  0.00    +0.000 A 
ATOM      4  N   UNL     1       5.188   7.274  17.434  0.00  0.00    +0.000 NA
ATOM      5  C   UNL     1       4.158   6.460  17.443  0.00  0.00    +0.000 A 
ENDROOT
BRANCH   1   6
ATOM      6  C   UNL     1       3.593   4.069  16.806  0.00  0.00    +0.000 C 
BRANCH   6  11
ATOM      7  C   UNL     1       1.303   2.470  21.918  0.00  0.00    +0.000 C 
ATOM      8  C   UNL     1       1.910   2.768  20.583  0.00  0.00    +0.000 A 
ATOM      9  C   UNL     1       3.294   2.870  20.442  0.00  0.00    +0.000 A 
ATOM     10  C   UNL     1       3.850   3.234  19.217  0.00  0.00    +0.000 A 
ATOM     11  C   UNL     1       3.045   3.517  18.105  0.00  0.00    +0.000 A 
ATOM     12  C   UNL     1       1.656   3.375  18.244  0.00  0.00    +0.000 A 
ATOM     13  C   UNL     1       1.096   3.002  19.469  0.00  0.00    +0.000 A 
ENDBRANCH   6  11
ENDBRANCH   1   6
BRANCH   2  14
ATOM     14  C   UNL     1       6.591   4.129  16.031  0.00  0.00    +0.000 C 
BRANCH  14  15
ATOM     15  O   UNL     1       7.795   4.654  15.504  0.00  0.00    +0.000 OA
ATOM     16  H   UNL     1       7.556   5.300  14.817  0.00  0.00    +0.000 HD
ENDBRANCH  14  15
ENDBRANCH   2  14
BRANCH   5  17
ATOM     17  S   UNL     1       2.591   6.875  18.055  0.00  0.00    +0.000 S 
BRANCH  17  18
ATOM     18  C   UNL     1       2.570   8.666  17.808  0.00  0.00    +0.000 C 
BRANCH  18  19
ATOM     19  C   UNL     1       1.433   9.267  18.609  0.00  0.00    +0.000 C 
ATOM     20  O   UNL     1       1.236   8.916  19.770  0.00  0.00    +0.000 OA
ATOM     21  N   UNL     1       0.657  10.162  17.886  0.00  0.00    +0.000 N 
ATOM     22  H   UNL     1       0.807  10.177  16.879  0.00  0.00    +0.000 HD
BRANCH  21  23
ATOM     23  C   UNL     1      -0.475  10.847  18.377  0.00  0.00    +0.000 A 
ATOM     24  C   UNL     1      -0.407  11.789  19.405  0.00  0.00    +0.000 A 
ATOM     25  C   UNL     1      -1.567  12.381  19.911  0.00  0.00    +0.000 A 
ATOM     26  C   UNL     1      -2.823  12.051  19.393  0.00  0.00    +0.000 A 
ATOM     27  C   UNL     1      -4.050  12.657  20.011  0.00  0.00    +0.000 C 
ATOM     28  C   UNL     1      -2.883  11.141  18.327  0.00  0.00    +0.000 A 
ATOM     29 CL   UNL     1      -4.394  10.685  17.621  0.00  0.00    +0.000 Cl
ATOM     30  C   UNL     1      -1.718  10.553  17.814  0.00  0.00    +0.000 A 
ENDBRANCH  21  23
ENDBRANCH  18  19
ENDBRANCH  17  18
ENDBRANCH   5  17
TORSDOF 8
ENDMDL
MODEL 3
REMARK VINA RESULT:      -7.3      2.855      4.609
REMARK  Name = 
REMARK  10 active torsions:
REMARK  status: ('A' for Active; 'I' for Inactive)
REMARK    1  A    between atoms: C_1  and  C_2
REMARK    2  A    between atoms: C_5  and  C_6
REMARK    3  A    between atoms: C_6  and  N_7
REMARK    4  A    between atoms: C_8  and  C_9
REMARK    5  A    between atoms: C_9  and  O_10
REMARK    6  A    between atoms: C_13  and  S_14
REMARK    7  A    between atoms: S_14  and  C_15
REMARK    8  A    between atoms: C_15  and  C_16
REMARK    9  A    between atoms: N_18  and  C_19
REMARK   10  A    between atoms: C_22  and  C_23
REMARK                            x       y       z     vdW  Elec       q    Type
REMARK                         _______ _______ _______ _____ _____    ______ ____
ROOT
ATOM      1  N   UNL     1       3.558   4.891  19.725  0.00  0.00    +0.000 N 
ATOM      2  C   UNL     1       3.290   3.551  19.941  0.00  0.00    +0.000 A 
ATOM      3  C   UNL     1       1.927   3.503  20.153  0.00  0.00    +0.000 A 
ATOM      4  N   UNL     1       1.382   4.762  20.185  0.00  0.00    +0.000 NA
ATOM      5  C   UNL     1       2.371   5.569  19.881  0.00  0.00    +0.000 A 
ENDROOT
BRANCH   1   6
ATOM      6  C   UNL     1       4.866   5.468  19.424  0.00  0.00    +0.000 C 
BRANCH   6  11
ATOM      7  C   UNL     1       7.116   4.790  14.094  0.00  0.00    +0.000 C 
ATOM      8  C   UNL     1       6.488   4.859  15.451  0.00  0.00    +0.000 A 
ATOM      9  C   UNL     1       5.174   5.305  15.600  0.00  0.00    +0.000 A 
ATOM     10  C   UNL     1       4.623   5.451  16.871  0.00  0.00    +0.000 A 
ATOM     11  C   UNL     1       5.366   5.171  18.027  0.00  0.00    +0.000 A 
ATOM     12  C   UNL     1       6.673   4.687  17.867  0.00  0.00    +0.000 A 
ATOM     13  C   UNL     1       7.226   4.530  16.593  0.00  0.00    +0.000 A 
ENDBRANCH   6  11
ENDBRANCH   1   6
BRANCH   2  14
ATOM     14  C   UNL     1       4.301   2.469  19.954  0.00  0.00    +0.000 C 
BRANCH  14  15
ATOM     15  O   UNL     1       4.201   1.756  18.736  0.00  0.00    +0.000 OA
ATOM     16  H   UNL     1       4.620   2.298  18.045  0.00  0.00    +0.000 HD
ENDBRANCH  14  15
ENDBRANCH   2  14
BRANCH   5  17
ATOM     17  S   UNL     1       2.194   7.273  19.617  0.00  0.00    +0.000 S 
BRANCH  17  18
ATOM     18  C   UNL     1       1.231   7.764  21.067  0.00  0.00    +0.000 C 
BRANCH  18  19
ATOM     19  C   UNL     1       1.122   9.275  21.106  0.00  0.00    +0.000 C 
ATOM     20  O   UNL     1       1.387   9.892  22.136  0.00  0.00    +0.000 OA
ATOM     21  N   UNL     1       0.655   9.828  19.922  0.00  0.00    +0.000 N 
ATOM     22  H   UNL     1       0.266   9.177  19.243  0.00  0.00    +0.000 HD
BRANCH  21  23
ATOM     23  C   UNL     1       0.437  11.204  19.692  0.00  0.00    +0.000 A 
ATOM     24  C   UNL     1      -0.793  11.826  19.907  0.00  0.00    +0.000 A 
ATOM     25  C   UNL     1      -0.979  13.173  19.588  0.00  0.00    +0.000 A 
ATOM     26  C   UNL     1       0.066  13.933  19.053  0.00  0.00    +0.000 A 
ATOM     27  C   UNL     1      -0.195  15.358  18.658  0.00  0.00    +0.000 C 
ATOM     28  C   UNL     1       1.314  13.317  18.884  0.00  0.00    +0.000 A 
ATOM     29 CL   UNL     1       2.662  14.186  18.238  0.00  0.00    +0.000 Cl
ATOM     30  C   UNL     1       1.504  11.967  19.212  0.00  0.00    +0.000 A 
ENDBRANCH  21  23
ENDBRANCH  18  19
ENDBRANCH  17  18
ENDBRANCH   5  17
TORSDOF 8
ENDMDL
MODEL 4
REMARK VINA RESULT:      -7.3      2.712      4.375
REMARK  Name = 
REMARK  10 active torsions:
REMARK  status: ('A' for Active; 'I' for Inactive)
REMARK    1  A    between atoms: C_1  and  C_2
REMARK    2  A    between atoms: C_5  and  C_6
REMARK    3  A    between atoms: C_6  and  N_7
REMARK    4  A    between atoms: C_8  and  C_9
REMARK    5  A    between atoms: C_9  and  O_10
REMARK    6  A    between atoms: C_13  and  S_14
REMARK    7  A    between atoms: S_14  and  C_15
REMARK    8  A    between atoms: C_15  and  C_16
REMARK    9  A    between atoms: N_18  and  C_19
REMARK   10  A    between atoms: C_22  and  C_23
REMARK                            x       y       z     vdW  Elec       q    Type
REMARK                         _______ _______ _______ _____ _____    ______ ____
ROOT
ATOM      1  N   UNL     1       3.619   4.624  19.723  0.00  0.00    +0.000 N 
ATOM      2  C   UNL     1       3.340   3.293  19.980  0.00  0.00    +0.000 A 
ATOM      3  C   UNL     1       1.984   3.269  20.236  0.00  0.00    +0.000 A 
ATOM      4  N   UNL     1       1.457   4.535  20.253  0.00  0.00    +0.000 NA
ATOM      5  C   UNL     1       2.446   5.322  19.899  0.00  0.00    +0.000 A 
ENDROOT
BRANCH   1   6
ATOM      6  C   UNL     1       4.923   5.175  19.368  0.00  0.00    +0.000 C 
BRANCH   6  11
ATOM      7  C   UNL     1       6.802   4.457  13.901  0.00  0.00    +0.000 C 
ATOM      8  C   UNL     1       6.307   4.526  15.311  0.00  0.00    +0.000 A 
ATOM      9  C   UNL     1       4.937   4.549  15.579  0.00  0.00    +0.000 A 
ATOM     10  C   UNL     1       4.481   4.702  16.887  0.00  0.00    +0.000 A 
ATOM     11  C   UNL     1       5.371   4.848  17.960  0.00  0.00    +0.000 A 
ATOM     12  C   UNL     1       6.746   4.785  17.687  0.00  0.00    +0.000 A 
ATOM     13  C   UNL     1       7.207   4.623  16.378  0.00  0.00    +0.000 A 
ENDBRANCH   6  11
ENDBRANCH   1   6
BRANCH   2  14
ATOM     14  C   UNL     1       4.337   2.198  19.988  0.00  0.00    +0.000 C 
BRANCH  14  15
ATOM     15  O   UNL     1       4.166   1.436  18.808  0.00  0.00    +0.000 OA
ATOM     16  H   UNL     1       4.312   2.032  18.052  0.00  0.00    +0.000 HD
ENDBRANCH  14  15
ENDBRANCH   2  14
BRANCH   5  17
ATOM     17  S   UNL     1       2.282   7.021  19.599  0.00  0.00    +0.000 S 
BRANCH  17  18
ATOM     18  C   UNL     1       1.357   7.556  21.057  0.00  0.00    +0.000 C 
BRANCH  18  19
ATOM     19  C   UNL     1       1.193   9.062  21.020  0.00  0.00    +0.000 C 
ATOM     20  O   UNL     1       1.337   9.730  22.042  0.00  0.00    +0.000 OA
ATOM     21  N   UNL     1       0.825   9.550  19.774  0.00  0.00    +0.000 N 
ATOM     22  H   UNL     1       0.526   8.858  19.090  0.00  0.00    +0.000 HD
BRANCH  21  23
ATOM     23  C   UNL     1       0.584  10.906  19.464  0.00  0.00    +0.000 A 
ATOM     24  C   UNL     1       1.492  11.698  18.762  0.00  0.00    +0.000 A 
ATOM     25  C   UNL     1       1.244  13.056  18.550  0.00  0.00    +0.000 A 
ATOM     26  C   UNL     1       0.073  13.652  19.029  0.00  0.00    +0.000 A 
ATOM     27  C   UNL     1      -0.125  15.128  18.841  0.00  0.00    +0.000 C 
ATOM     28  C   UNL     1      -0.861  12.841  19.692  0.00  0.00    +0.000 A 
ATOM     29 CL   UNL     1      -2.339  13.495  20.307  0.00  0.00    +0.000 Cl
ATOM     30  C   UNL     1      -0.615  11.477  19.897  0.00  0.00    +0.000 A 
ENDBRANCH  21  23
ENDBRANCH  18  19
ENDBRANCH  17  18
ENDBRANCH   5  17
TORSDOF 8
ENDMDL
MODEL 5
REMARK VINA RESULT:      -7.3      2.576      4.422
REMARK  Name = 
REMARK  10 active torsions:
REMARK  status: ('A' for Active; 'I' for Inactive)
REMARK    1  A    between atoms: C_1  and  C_2
REMARK    2  A    between atoms: C_5  and  C_6
REMARK    3  A    between atoms: C_6  and  N_7
REMARK    4  A    between atoms: C_8  and  C_9
REMARK    5  A    between atoms: C_9  and  O_10
REMARK    6  A    between atoms: C_13  and  S_14
REMARK    7  A    between atoms: S_14  and  C_15
REMARK    8  A    between atoms: C_15  and  C_16
REMARK    9  A    between atoms: N_18  and  C_19
REMARK   10  A    between atoms: C_22  and  C_23
REMARK                            x       y       z     vdW  Elec       q    Type
REMARK                         _______ _______ _______ _____ _____    ______ ____
ROOT
ATOM      1  N   UNL     1       3.363   4.248  19.640  0.00  0.00    +0.000 N 
ATOM      2  C   UNL     1       2.903   2.951  19.499  0.00  0.00    +0.000 A 
ATOM      3  C   UNL     1       1.539   3.047  19.691  0.00  0.00    +0.000 A 
ATOM      4  N   UNL     1       1.174   4.320  20.049  0.00  0.00    +0.000 NA
ATOM      5  C   UNL     1       2.276   5.027  19.967  0.00  0.00    +0.000 A 
ENDROOT
BRANCH   1   6
ATOM      6  C   UNL     1       4.748   4.688  19.500  0.00  0.00    +0.000 C 
BRANCH   6  11
ATOM      7  C   UNL     1       7.001   4.830  14.130  0.00  0.00    +0.000 C 
ATOM      8  C   UNL     1       6.408   4.679  15.496  0.00  0.00    +0.000 A 
ATOM      9  C   UNL     1       5.024   4.684  15.670  0.00  0.00    +0.000 A 
ATOM     10  C   UNL     1       4.477   4.631  16.951  0.00  0.00    +0.000 A 
ATOM     11  C   UNL     1       5.291   4.584  18.091  0.00  0.00    +0.000 A 
ATOM     12  C   UNL     1       6.682   4.541  17.907  0.00  0.00    +0.000 A 
ATOM     13  C   UNL     1       7.233   4.584  16.623  0.00  0.00    +0.000 A 
ENDBRANCH   6  11
ENDBRANCH   1   6
BRANCH   2  14
ATOM     14  C   UNL     1       3.752   1.768  19.229  0.00  0.00    +0.000 C 
BRANCH  14  15
ATOM     15  O   UNL     1       3.414   1.263  17.952  0.00  0.00    +0.000 OA
ATOM     16  H   UNL     1       3.972   0.482  17.789  0.00  0.00    +0.000 HD
ENDBRANCH  14  15
ENDBRANCH   2  14
BRANCH   5  17
ATOM     17  S   UNL     1       2.348   6.748  20.156  0.00  0.00    +0.000 S 
BRANCH  17  18
ATOM     18  C   UNL     1       2.414   7.297  18.434  0.00  0.00    +0.000 C 
BRANCH  18  19
ATOM     19  C   UNL     1       1.838   8.695  18.334  0.00  0.00    +0.000 C 
ATOM     20  O   UNL     1       2.102   9.409  17.368  0.00  0.00    +0.000 OA
ATOM     21  N   UNL     1       1.075   9.061  19.433  0.00  0.00    +0.000 N 
ATOM     22  H   UNL     1       1.135   8.453  20.247  0.00  0.00    +0.000 HD
BRANCH  21  23
ATOM     23  C   UNL     1       0.442  10.311  19.610  0.00  0.00    +0.000 A 
ATOM     24  C   UNL     1       1.041  11.379  20.277  0.00  0.00    +0.000 A 
ATOM     25  C   UNL     1       0.343  12.569  20.497  0.00  0.00    +0.000 A 
ATOM     26  C   UNL     1      -0.972  12.720  20.046  0.00  0.00    +0.000 A 
ATOM     27  C   UNL     1      -1.712  13.987  20.363  0.00  0.00    +0.000 C 
ATOM     28  C   UNL     1      -1.555  11.662  19.333  0.00  0.00    +0.000 A 
ATOM     29 CL   UNL     1      -3.172  11.769  18.730  0.00  0.00    +0.000 Cl
ATOM     30  C   UNL     1      -0.850  10.471  19.105  0.00  0.00    +0.000 A 
ENDBRANCH  21  23
ENDBRANCH  18  19
ENDBRANCH  17  18
ENDBRANCH   5  17
TORSDOF 8
ENDMDL
MODEL 6
REMARK VINA RESULT:      -7.2      2.558      4.521
REMARK  Name = 
REMARK  10 active torsions:
REMARK  status: ('A' for Active; 'I' for Inactive)
REMARK    1  A    between atoms: C_1  and  C_2
REMARK    2  A    between atoms: C_5  and  C_6
REMARK    3  A    between atoms: C_6  and  N_7
REMARK    4  A    between atoms: C_8  and  C_9
REMARK    5  A    between atoms: C_9  and  O_10
REMARK    6  A    between atoms: C_13  and  S_14
REMARK    7  A    between atoms: S_14  and  C_15
REMARK    8  A    between atoms: C_15  and  C_16
REMARK    9  A    between atoms: N_18  and  C_19
REMARK   10  A    between atoms: C_22  and  C_23
REMARK                            x       y       z     vdW  Elec       q    Type
REMARK                         _______ _______ _______ _____ _____    ______ ____
ROOT
ATOM      1  N   UNL     1       3.471   4.623  19.370  0.00  0.00    +0.000 N 
ATOM      2  C   UNL     1       3.132   3.307  19.106  0.00  0.00    +0.000 A 
ATOM      3  C   UNL     1       1.754   3.285  19.185  0.00  0.00    +0.000 A 
ATOM      4  N   UNL     1       1.258   4.498  19.593  0.00  0.00    +0.000 NA
ATOM      5  C   UNL     1       2.302   5.291  19.652  0.00  0.00    +0.000 A 
ENDROOT
BRANCH   1   6
ATOM      6  C   UNL     1       4.823   5.175  19.379  0.00  0.00    +0.000 C 
BRANCH   6  11
ATOM      7  C   UNL     1       7.061   4.800  14.014  0.00  0.00    +0.000 C 
ATOM      8  C   UNL     1       6.550   4.993  15.407  0.00  0.00    +0.000 A 
ATOM      9  C   UNL     1       7.273   4.509  16.499  0.00  0.00    +0.000 A 
ATOM     10  C   UNL     1       6.752   4.612  17.787  0.00  0.00    +0.000 A 
ATOM     11  C   UNL     1       5.496   5.186  18.023  0.00  0.00    +0.000 A 
ATOM     12  C   UNL     1       4.792   5.705  16.925  0.00  0.00    +0.000 A 
ATOM     13  C   UNL     1       5.316   5.611  15.633  0.00  0.00    +0.000 A 
ENDBRANCH   6  11
ENDBRANCH   1   6
BRANCH   2  14
ATOM     14  C   UNL     1       4.094   2.214  18.834  0.00  0.00    +0.000 C 
BRANCH  14  15
ATOM     15  O   UNL     1       3.362   1.068  18.445  0.00  0.00    +0.000 OA
ATOM     16  H   UNL     1       3.583   0.354  19.069  0.00  0.00    +0.000 HD
ENDBRANCH  14  15
ENDBRANCH   2  14
BRANCH   5  17
ATOM     17  S   UNL     1       2.217   6.995  19.958  0.00  0.00    +0.000 S 
BRANCH  17  18
ATOM     18  C   UNL     1       2.274   7.665  18.280  0.00  0.00    +0.000 C 
BRANCH  18  19
ATOM     19  C   UNL     1       1.723   9.077  18.287  0.00  0.00    +0.000 C 
ATOM     20  O   UNL     1       2.078   9.888  17.435  0.00  0.00    +0.000 OA
ATOM     21  N   UNL     1       0.868   9.334  19.350  0.00  0.00    +0.000 N 
ATOM     22  H   UNL     1       0.850   8.637  20.092  0.00  0.00    +0.000 HD
BRANCH  21  23
ATOM     23  C   UNL     1       0.234  10.568  19.611  0.00  0.00    +0.000 A 
ATOM     24  C   UNL     1       0.870  11.627  20.259  0.00  0.00    +0.000 A 
ATOM     25  C   UNL     1       0.175  12.799  20.566  0.00  0.00    +0.000 A 
ATOM     26  C   UNL     1      -1.172  12.942  20.223  0.00  0.00    +0.000 A 
ATOM     27  C   UNL     1      -1.902  14.189  20.632  0.00  0.00    +0.000 C 
ATOM     28  C   UNL     1      -1.795  11.895  19.528  0.00  0.00    +0.000 A 
ATOM     29 CL   UNL     1      -3.456  11.993  19.057  0.00  0.00    +0.000 Cl
ATOM     30  C   UNL     1      -1.095  10.722  19.213  0.00  0.00    +0.000 A 
ENDBRANCH  21  23
ENDBRANCH  18  19
ENDBRANCH  17  18
ENDBRANCH   5  17
TORSDOF 8
ENDMDL
MODEL 7
REMARK VINA RESULT:      -7.2      4.940      9.349
REMARK  Name = 
REMARK  10 active torsions:
REMARK  status: ('A' for Active; 'I' for Inactive)
REMARK    1  A    between atoms: C_1  and  C_2
REMARK    2  A    between atoms: C_5  and  C_6
REMARK    3  A    between atoms: C_6  and  N_7
REMARK    4  A    between atoms: C_8  and  C_9
REMARK    5  A    between atoms: C_9  and  O_10
REMARK    6  A    between atoms: C_13  and  S_14
REMARK    7  A    between atoms: S_14  and  C_15
REMARK    8  A    between atoms: C_15  and  C_16
REMARK    9  A    between atoms: N_18  and  C_19
REMARK   10  A    between atoms: C_22  and  C_23
REMARK                            x       y       z     vdW  Elec       q    Type
REMARK                         _______ _______ _______ _____ _____    ______ ____
ROOT
ATOM      1  N   UNL     1      -1.692  12.268  21.354  0.00  0.00    +0.000 N 
ATOM      2  C   UNL     1      -2.743  12.451  22.237  0.00  0.00    +0.000 A 
ATOM      3  C   UNL     1      -2.358  11.772  23.375  0.00  0.00    +0.000 A 
ATOM      4  N   UNL     1      -1.179  11.098  23.180  0.00  0.00    +0.000 NA
ATOM      5  C   UNL     1      -0.780  11.448  21.980  0.00  0.00    +0.000 A 
ENDROOT
BRANCH   1   6
ATOM      6  C   UNL     1      -1.599  12.816  20.005  0.00  0.00    +0.000 C 
BRANCH   6  11
ATOM      7  C   UNL     1      -3.296   9.585  15.465  0.00  0.00    +0.000 C 
ATOM      8  C   UNL     1      -2.899  10.330  16.701  0.00  0.00    +0.000 A 
ATOM      9  C   UNL     1      -3.829  11.119  17.380  0.00  0.00    +0.000 A 
ATOM     10  C   UNL     1      -3.434  11.880  18.478  0.00  0.00    +0.000 A 
ATOM     11  C   UNL     1      -2.104  11.887  18.922  0.00  0.00    +0.000 A 
ATOM     12  C   UNL     1      -1.184  11.062  18.258  0.00  0.00    +0.000 A 
ATOM     13  C   UNL     1      -1.579  10.290  17.162  0.00  0.00    +0.000 A 
ENDBRANCH   6  11
ENDBRANCH   1   6
BRANCH   2  14
ATOM     14  C   UNL     1      -3.985  13.201  21.941  0.00  0.00    +0.000 C 
BRANCH  14  15
ATOM     15  O   UNL     1      -3.769  14.560  22.268  0.00  0.00    +0.000 OA
ATOM     16  H   UNL     1      -3.794  15.068  21.438  0.00  0.00    +0.000 HD
ENDBRANCH  14  15
ENDBRANCH   2  14
BRANCH   5  17
ATOM     17  S   UNL     1       0.750  11.011  21.293  0.00  0.00    +0.000 S 
BRANCH  17  18
ATOM     18  C   UNL     1       1.187   9.563  22.284  0.00  0.00    +0.000 C 
BRANCH  18  19
ATOM     19  C   UNL     1       0.930   8.308  21.474  0.00  0.00    +0.000 C 
ATOM     20  O   UNL     1      -0.196   7.816  21.429  0.00  0.00    +0.000 OA
ATOM     21  N   UNL     1       2.071   7.787  20.880  0.00  0.00    +0.000 N 
ATOM     22  H   UNL     1       2.959   8.174  21.193  0.00  0.00    +0.000 HD
BRANCH  21  23
ATOM     23  C   UNL     1       2.122   6.617  20.092  0.00  0.00    +0.000 A 
ATOM     24  C   UNL     1       2.507   6.619  18.751  0.00  0.00    +0.000 A 
ATOM     25  C   UNL     1       2.464   5.447  17.992  0.00  0.00    +0.000 A 
ATOM     26  C   UNL     1       2.043   4.241  18.561  0.00  0.00    +0.000 A 
ATOM     27  C   UNL     1       1.945   3.019  17.694  0.00  0.00    +0.000 C 
ATOM     28  C   UNL     1       1.703   4.233  19.922  0.00  0.00    +0.000 A 
ATOM     29 CL   UNL     1       1.181   2.784  20.707  0.00  0.00    +0.000 Cl
ATOM     30  C   UNL     1       1.754   5.407  20.686  0.00  0.00    +0.000 A 
ENDBRANCH  21  23
ENDBRANCH  18  19
ENDBRANCH  17  18
ENDBRANCH   5  17
TORSDOF 8
ENDMDL
MODEL 8
REMARK VINA RESULT:      -7.2      2.858      4.472
REMARK  Name = 
REMARK  10 active torsions:
REMARK  status: ('A' for Active; 'I' for Inactive)
REMARK    1  A    between atoms: C_1  and  C_2
REMARK    2  A    between atoms: C_5  and  C_6
REMARK    3  A    between atoms: C_6  and  N_7
REMARK    4  A    between atoms: C_8  and  C_9
REMARK    5  A    between atoms: C_9  and  O_10
REMARK    6  A    between atoms: C_13  and  S_14
REMARK    7  A    between atoms: S_14  and  C_15
REMARK    8  A    between atoms: C_15  and  C_16
REMARK    9  A    between atoms: N_18  and  C_19
REMARK   10  A    between atoms: C_22  and  C_23
REMARK                            x       y       z     vdW  Elec       q    Type
REMARK                         _______ _______ _______ _____ _____    ______ ____
ROOT
ATOM      1  N   UNL     1       3.548   3.500  19.000  0.00  0.00    +0.000 N 
ATOM      2  C   UNL     1       3.724   2.629  20.062  0.00  0.00    +0.000 A 
ATOM      3  C   UNL     1       2.780   3.024  20.990  0.00  0.00    +0.000 A 
ATOM      4  N   UNL     1       2.124   4.157  20.582  0.00  0.00    +0.000 NA
ATOM      5  C   UNL     1       2.570   4.394  19.371  0.00  0.00    +0.000 A 
ENDROOT
BRANCH   1   6
ATOM      6  C   UNL     1       4.293   3.483  17.745  0.00  0.00    +0.000 C 
BRANCH   6  11
ATOM      7  C   UNL     1       7.892   8.062  17.629  0.00  0.00    +0.000 C 
ATOM      8  C   UNL     1       7.041   6.831  17.587  0.00  0.00    +0.000 A 
ATOM      9  C   UNL     1       6.125   6.639  16.552  0.00  0.00    +0.000 A 
ATOM     10  C   UNL     1       5.274   5.536  16.563  0.00  0.00    +0.000 A 
ATOM     11  C   UNL     1       5.302   4.603  17.608  0.00  0.00    +0.000 A 
ATOM     12  C   UNL     1       6.252   4.782  18.626  0.00  0.00    +0.000 A 
ATOM     13  C   UNL     1       7.113   5.882  18.613  0.00  0.00    +0.000 A 
ENDBRANCH   6  11
ENDBRANCH   1   6
BRANCH   2  14
ATOM     14  C   UNL     1       4.740   1.554  20.126  0.00  0.00    +0.000 C 
BRANCH  14  15
ATOM     15  O   UNL     1       5.305   1.558  21.424  0.00  0.00    +0.000 OA
ATOM     16  H   UNL     1       5.677   2.444  21.578  0.00  0.00    +0.000 HD
ENDBRANCH  14  15
ENDBRANCH   2  14
BRANCH   5  17
ATOM     17  S   UNL     1       1.944   5.624  18.323  0.00  0.00    +0.000 S 
BRANCH  17  18
ATOM     18  C   UNL     1       2.832   7.085  18.914  0.00  0.00    +0.000 C 
BRANCH  18  19
ATOM     19  C   UNL     1       1.857   8.013  19.610  0.00  0.00    +0.000 C 
ATOM     20  O   UNL     1       1.435   7.744  20.733  0.00  0.00    +0.000 OA
ATOM     21  N   UNL     1       1.482   9.104  18.838  0.00  0.00    +0.000 N 
ATOM     22  H   UNL     1       1.739   9.069  17.854  0.00  0.00    +0.000 HD
BRANCH  21  23
ATOM     23  C   UNL     1       0.572  10.110  19.230  0.00  0.00    +0.000 A 
ATOM     24  C   UNL     1      -0.761  10.133  18.820  0.00  0.00    +0.000 A 
ATOM     25  C   UNL     1      -1.600  11.193  19.169  0.00  0.00    +0.000 A 
ATOM     26  C   UNL     1      -1.126  12.253  19.948  0.00  0.00    +0.000 A 
ATOM     27  C   UNL     1      -2.039  13.408  20.243  0.00  0.00    +0.000 C 
ATOM     28  C   UNL     1       0.201  12.203  20.400  0.00  0.00    +0.000 A 
ATOM     29 CL   UNL     1       0.864  13.468  21.375  0.00  0.00    +0.000 Cl
ATOM     30  C   UNL     1       1.041  11.135  20.056  0.00  0.00    +0.000 A 
ENDBRANCH  21  23
ENDBRANCH  18  19
ENDBRANCH  17  18
ENDBRANCH   5  17
TORSDOF 8
ENDMDL
MODEL 9
REMARK VINA RESULT:      -7.2      2.751      5.238
REMARK  Name = 
REMARK  10 active torsions:
REMARK  status: ('A' for Active; 'I' for Inactive)
REMARK    1  A    between atoms: C_1  and  C_2
REMARK    2  A    between atoms: C_5  and  C_6
REMARK    3  A    between atoms: C_6  and  N_7
REMARK    4  A    between atoms: C_8  and  C_9
REMARK    5  A    between atoms: C_9  and  O_10
REMARK    6  A    between atoms: C_13  and  S_14
REMARK    7  A    between atoms: S_14  and  C_15
REMARK    8  A    between atoms: C_15  and  C_16
REMARK    9  A    between atoms: N_18  and  C_19
REMARK   10  A    between atoms: C_22  and  C_23
REMARK                            x       y       z     vdW  Elec       q    Type
REMARK                         _______ _______ _______ _____ _____    ______ ____
ROOT
ATOM      1  N   UNL     1       4.446   5.260  17.014  0.00  0.00    +0.000 N 
ATOM      2  C   UNL     1       5.774   5.282  16.624  0.00  0.00    +0.000 A 
ATOM      3  C   UNL     1       6.228   6.524  17.023  0.00  0.00    +0.000 A 
ATOM      4  N   UNL     1       5.209   7.288  17.533  0.00  0.00    +0.000 NA
ATOM      5  C   UNL     1       4.165   6.492  17.558  0.00  0.00    +0.000 A 
ENDROOT
BRANCH   1   6
ATOM      6  C   UNL     1       3.520   4.144  16.842  0.00  0.00    +0.000 C 
BRANCH   6  11
ATOM      7  C   UNL     1       1.364   2.399  21.965  0.00  0.00    +0.000 C 
ATOM      8  C   UNL     1       1.940   2.735  20.625  0.00  0.00    +0.000 A 
ATOM      9  C   UNL     1       3.318   2.886  20.465  0.00  0.00    +0.000 A 
ATOM     10  C   UNL     1       3.842   3.285  19.237  0.00  0.00    +0.000 A 
ATOM     11  C   UNL     1       3.011   3.556  18.141  0.00  0.00    +0.000 A 
ATOM     12  C   UNL     1       1.630   3.365  18.299  0.00  0.00    +0.000 A 
ATOM     13  C   UNL     1       1.102   2.956  19.526  0.00  0.00    +0.000 A 
ENDBRANCH   6  11
ENDBRANCH   1   6
BRANCH   2  14
ATOM     14  C   UNL     1       6.475   4.188  15.914  0.00  0.00    +0.000 C 
BRANCH  14  15
ATOM     15  O   UNL     1       7.611   4.734  15.273  0.00  0.00    +0.000 OA
ATOM     16  H   UNL     1       7.511   5.702  15.275  0.00  0.00    +0.000 HD
ENDBRANCH  14  15
ENDBRANCH   2  14
BRANCH   5  17
ATOM     17  S   UNL     1       2.640   6.905  18.270  0.00  0.00    +0.000 S 
BRANCH  17  18
ATOM     18  C   UNL     1       2.391   8.582  17.640  0.00  0.00    +0.000 C 
BRANCH  18  19
ATOM     19  C   UNL     1       1.291   9.255  18.435  0.00  0.00    +0.000 C 
ATOM     20  O   UNL     1       0.287   9.684  17.870  0.00  0.00    +0.000 OA
ATOM     21  N   UNL     1       1.574   9.370  19.789  0.00  0.00    +0.000 N 
ATOM     22  H   UNL     1       2.534   9.173  20.066  0.00  0.00    +0.000 HD
BRANCH  21  23
ATOM     23  C   UNL     1       0.738   9.974  20.752  0.00  0.00    +0.000 A 
ATOM     24  C   UNL     1       0.133   9.261  21.789  0.00  0.00    +0.000 A 
ATOM     25  C   UNL     1      -0.751   9.889  22.669  0.00  0.00    +0.000 A 
ATOM     26  C   UNL     1      -1.044  11.250  22.539  0.00  0.00    +0.000 A 
ATOM     27  C   UNL     1      -2.052  11.871  23.461  0.00  0.00    +0.000 C 
ATOM     28  C   UNL     1      -0.397  11.974  21.526  0.00  0.00    +0.000 A 
ATOM     29 CL   UNL     1      -0.695  13.662  21.301  0.00  0.00    +0.000 Cl
ATOM     30  C   UNL     1       0.497  11.345  20.648  0.00  0.00    +0.000 A 
ENDBRANCH  21  23
ENDBRANCH  18  19
ENDBRANCH  17  18
ENDBRANCH   5  17
TORSDOF 8
ENDMDL
