MODEL 1
REMARK VINA RESULT:      -9.4      0.000      0.000
REMARK  Name = 
REMARK  5 active torsions:
REMARK  status: ('A' for Active; 'I' for Inactive)
REMARK    1  A    between atoms: C_1  and  C_2
REMARK    2  A    between atoms: C_2  and  C_3
REMARK    3  A    between atoms: C_2  and  C_4
REMARK    4  A    between atoms: C_7  and  N_8
REMARK    5  A    between atoms: C_9  and  C_11
REMARK                            x       y       z     vdW  Elec       q    Type
REMARK                         _______ _______ _______ _____ _____    ______ ____
ROOT
ATOM      1  C   UNL     1       3.555   6.215  17.689  0.00  0.00    +0.000 C 
ATOM      2  C   UNL     1       4.604   6.331  16.592  0.00  0.00    +0.000 C 
ATOM      3  C   UNL     1       5.813   5.545  17.090  0.00  0.00    +0.000 C 
ATOM      4  C   UNL     1       6.978   6.486  17.311  0.00  0.00    +0.000 C 
ATOM      5  C   UNL     1       7.473   6.178  18.698  0.00  0.00    +0.000 C 
ATOM      6  C   UNL     1       6.349   5.385  19.391  0.00  0.00    +0.000 C 
ATOM      7  N   UNL     1       5.466   4.846  18.351  0.00  0.00    +0.000 NA
ATOM      8  C   UNL     1       3.975   4.912  18.457  0.00  0.00    +0.000 C 
ATOM      9  C   UNL     1       3.334   3.905  17.384  0.00  0.00    +0.000 C 
ATOM     10  O   UNL     1       3.842   3.374  16.408  0.00  0.00    +0.000 OA
ATOM     11  N   UNL     1       1.967   3.871  17.704  0.00  0.00    +0.000 N 
ATOM     12  C   UNL     1       1.854   4.018  19.078  0.00  0.00    +0.000 A 
ATOM     13  C   UNL     1       0.798   3.419  19.745  0.00  0.00    +0.000 A 
ATOM     14  C   UNL     1       1.107   2.813  20.936  0.00  0.00    +0.000 A 
ATOM     15  C   UNL     1       2.427   2.887  21.430  0.00  0.00    +0.000 A 
ATOM     16  C   UNL     1       3.432   3.668  20.794  0.00  0.00    +0.000 A 
ATOM     17  C   UNL     1       3.131   4.325  19.605  0.00  0.00    +0.000 A 
ATOM     18  H   UNL     1       1.329   3.313  17.154  0.00  0.00    +0.000 HD
ENDROOT
BRANCH   1  20
ATOM     19  N   UNL     1       2.705   8.554  17.618  0.00  0.00    +0.000 N 
ATOM     20  C   UNL     1       2.972   7.434  18.390  0.00  0.00    +0.000 C 
ATOM     21  O   UNL     1       2.632   7.302  19.568  0.00  0.00    +0.000 OA
ATOM     22  H   UNL     1       3.123   8.622  16.713  0.00  0.00    +0.000 HD
BRANCH  19  26
ATOM     23  C   UNL     1      -0.161  11.567  18.699  0.00  0.00    +0.000 A 
ATOM     24  C   UNL     1       1.203  11.829  18.726  0.00  0.00    +0.000 A 
ATOM     25  C   UNL     1       2.159  10.872  18.367  0.00  0.00    +0.000 A 
ATOM     26  C   UNL     1       1.777   9.585  17.947  0.00  0.00    +0.000 A 
ATOM     27  C   UNL     1       0.388   9.308  17.912  0.00  0.00    +0.000 A 
ATOM     28  C   UNL     1      -0.556  10.283  18.286  0.00  0.00    +0.000 A 
BRANCH  23  30
ATOM     29  C   UNL     1      -1.885  12.304  20.347  0.00  0.00    +0.000 C 
ATOM     30  C   UNL     1      -1.138  12.677  19.064  0.00  0.00    +0.000 C 
ATOM     31  C   UNL     1      -0.520  14.070  19.206  0.00  0.00    +0.000 C 
ENDBRANCH  23  30
ENDBRANCH  19  26
ENDBRANCH   1  20
TORSDOF 3
ENDMDL
MODEL 2
REMARK VINA RESULT:      -9.3      1.503      1.798
REMARK  Name = 
REMARK  5 active torsions:
REMARK  status: ('A' for Active; 'I' for Inactive)
REMARK    1  A    between atoms: C_1  and  C_2
REMARK    2  A    between atoms: C_2  and  C_3
REMARK    3  A    between atoms: C_2  and  C_4
REMARK    4  A    between atoms: C_7  and  N_8
REMARK    5  A    between atoms: C_9  and  C_11
REMARK                            x       y       z     vdW  Elec       q    Type
REMARK                         _______ _______ _______ _____ _____    ______ ____
ROOT
ATOM      1  C   UNL     1       3.930   5.919  17.330  0.00  0.00    +0.000 C 
ATOM      2  C   UNL     1       5.100   5.851  16.360  0.00  0.00    +0.000 C 
ATOM      3  C   UNL     1       6.225   5.151  17.117  0.00  0.00    +0.000 C 
ATOM      4  C   UNL     1       7.378   6.110  17.321  0.00  0.00    +0.000 C 
ATOM      5  C   UNL     1       7.702   6.029  18.788  0.00  0.00    +0.000 C 
ATOM      6  C   UNL     1       6.487   5.364  19.461  0.00  0.00    +0.000 C 
ATOM      7  N   UNL     1       5.718   4.667  18.424  0.00  0.00    +0.000 NA
ATOM      8  C   UNL     1       4.227   4.756  18.341  0.00  0.00    +0.000 C 
ATOM      9  C   UNL     1       3.691   3.591  17.375  0.00  0.00    +0.000 C 
ATOM     10  O   UNL     1       4.297   2.907  16.563  0.00  0.00    +0.000 OA
ATOM     11  N   UNL     1       2.296   3.615  17.532  0.00  0.00    +0.000 N 
ATOM     12  C   UNL     1       2.028   3.983  18.842  0.00  0.00    +0.000 A 
ATOM     13  C   UNL     1       0.888   3.504  19.467  0.00  0.00    +0.000 A 
ATOM     14  C   UNL     1       1.042   3.097  20.768  0.00  0.00    +0.000 A 
ATOM     15  C   UNL     1       2.298   3.244  21.395  0.00  0.00    +0.000 A 
ATOM     16  C   UNL     1       3.388   3.908  20.766  0.00  0.00    +0.000 A 
ATOM     17  C   UNL     1       3.242   4.365  19.460  0.00  0.00    +0.000 A 
ATOM     18  H   UNL     1       1.714   2.979  17.008  0.00  0.00    +0.000 HD
ENDROOT
BRANCH   1  20
ATOM     19  N   UNL     1       2.080   7.185  18.413  0.00  0.00    +0.000 N 
ATOM     20  C   UNL     1       3.297   7.238  17.753  0.00  0.00    +0.000 C 
ATOM     21  O   UNL     1       3.975   8.260  17.620  0.00  0.00    +0.000 OA
ATOM     22  H   UNL     1       1.547   6.341  18.367  0.00  0.00    +0.000 HD
BRANCH  19  26
ATOM     23  C   UNL     1       0.382  10.244  20.908  0.00  0.00    +0.000 A 
ATOM     24  C   UNL     1       0.888   9.070  21.453  0.00  0.00    +0.000 A 
ATOM     25  C   UNL     1       1.459   8.063  20.667  0.00  0.00    +0.000 A 
ATOM     26  C   UNL     1       1.557   8.198  19.270  0.00  0.00    +0.000 A 
ATOM     27  C   UNL     1       1.047   9.392  18.705  0.00  0.00    +0.000 A 
ATOM     28  C   UNL     1       0.470  10.389  19.513  0.00  0.00    +0.000 A 
BRANCH  23  30
ATOM     29  C   UNL     1      -1.084  12.259  21.043  0.00  0.00    +0.000 C 
ATOM     30  C   UNL     1      -0.184  11.310  21.837  0.00  0.00    +0.000 C 
ATOM     31  C   UNL     1      -0.936  10.777  23.060  0.00  0.00    +0.000 C 
ENDBRANCH  23  30
ENDBRANCH  19  26
ENDBRANCH   1  20
TORSDOF 3
ENDMDL
MODEL 3
REMARK VINA RESULT:      -9.1      1.837      4.310
REMARK  Name = 
REMARK  5 active torsions:
REMARK  status: ('A' for Active; 'I' for Inactive)
REMARK    1  A    between atoms: C_1  and  C_2
REMARK    2  A    between atoms: C_2  and  C_3
REMARK    3  A    between atoms: C_2  and  C_4
REMARK    4  A    between atoms: C_7  and  N_8
REMARK    5  A    between atoms: C_9  and  C_11
REMARK                            x       y       z     vdW  Elec       q    Type
REMARK                         _______ _______ _______ _____ _____    ______ ____
ROOT
ATOM      1  C   UNL     1       3.453   5.211  19.571  0.00  0.00    +0.000 C 
ATOM      2  C   UNL     1       2.785   4.450  20.708  0.00  0.00    +0.000 C 
ATOM      3  C   UNL     1       2.346   3.115  20.111  0.00  0.00    +0.000 C 
ATOM      4  C   UNL     1       0.835   3.025  20.120  0.00  0.00    +0.000 C 
ATOM      5  C   UNL     1       0.457   2.628  18.719  0.00  0.00    +0.000 C 
ATOM      6  C   UNL     1       1.694   2.905  17.844  0.00  0.00    +0.000 C 
ATOM      7  N   UNL     1       2.863   2.997  18.726  0.00  0.00    +0.000 NA
ATOM      8  C   UNL     1       3.890   4.074  18.580  0.00  0.00    +0.000 C 
ATOM      9  C   UNL     1       5.199   3.659  19.412  0.00  0.00    +0.000 C 
ATOM     10  O   UNL     1       5.336   2.815  20.285  0.00  0.00    +0.000 OA
ATOM     11  N   UNL     1       6.168   4.606  19.042  0.00  0.00    +0.000 N 
ATOM     12  C   UNL     1       5.933   4.950  17.719  0.00  0.00    +0.000 A 
ATOM     13  C   UNL     1       6.997   5.317  16.910  0.00  0.00    +0.000 A 
ATOM     14  C   UNL     1       6.984   4.810  15.636  0.00  0.00    +0.000 A 
ATOM     15  C   UNL     1       5.893   4.020  15.215  0.00  0.00    +0.000 A 
ATOM     16  C   UNL     1       4.741   3.823  16.027  0.00  0.00    +0.000 A 
ATOM     17  C   UNL     1       4.714   4.361  17.310  0.00  0.00    +0.000 A 
ATOM     18  H   UNL     1       7.091   4.574  19.449  0.00  0.00    +0.000 HD
ENDROOT
BRANCH   1  20
ATOM     19  N   UNL     1       1.845   7.104  19.731  0.00  0.00    +0.000 N 
ATOM     20  C   UNL     1       2.956   6.571  19.099  0.00  0.00    +0.000 C 
ATOM     21  O   UNL     1       3.659   7.182  18.291  0.00  0.00    +0.000 OA
ATOM     22  H   UNL     1       1.268   6.498  20.278  0.00  0.00    +0.000 HD
BRANCH  19  26
ATOM     23  C   UNL     1       0.716  11.250  19.763  0.00  0.00    +0.000 A 
ATOM     24  C   UNL     1       0.749  10.504  20.935  0.00  0.00    +0.000 A 
ATOM     25  C   UNL     1       1.126   9.157  20.958  0.00  0.00    +0.000 A 
ATOM     26  C   UNL     1       1.502   8.487  19.778  0.00  0.00    +0.000 A 
ATOM     27  C   UNL     1       1.474   9.239  18.579  0.00  0.00    +0.000 A 
ATOM     28  C   UNL     1       1.084  10.591  18.577  0.00  0.00    +0.000 A 
BRANCH  23  30
ATOM     29  C   UNL     1       1.546  13.548  20.274  0.00  0.00    +0.000 C 
ATOM     30  C   UNL     1       0.336  12.723  19.830  0.00  0.00    +0.000 C 
ATOM     31  C   UNL     1      -0.248  13.306  18.540  0.00  0.00    +0.000 C 
ENDBRANCH  23  30
ENDBRANCH  19  26
ENDBRANCH   1  20
TORSDOF 3
ENDMDL
MODEL 4
REMARK VINA RESULT:      -8.9      1.415      1.539
REMARK  Name = 
REMARK  5 active torsions:
REMARK  status: ('A' for Active; 'I' for Inactive)
REMARK    1  A    between atoms: C_1  and  C_2
REMARK    2  A    between atoms: C_2  and  C_3
REMARK    3  A    between atoms: C_2  and  C_4
REMARK    4  A    between atoms: C_7  and  N_8
REMARK    5  A    between atoms: C_9  and  C_11
REMARK                            x       y       z     vdW  Elec       q    Type
REMARK                         _______ _______ _______ _____ _____    ______ ____
ROOT
ATOM      1  C   UNL     1       4.053   6.008  17.259  0.00  0.00    +0.000 C 
ATOM      2  C   UNL     1       5.246   5.895  16.321  0.00  0.00    +0.000 C 
ATOM      3  C   UNL     1       6.339   5.194  17.123  0.00  0.00    +0.000 C 
ATOM      4  C   UNL     1       7.504   6.137  17.332  0.00  0.00    +0.000 C 
ATOM      5  C   UNL     1       7.789   6.085  18.809  0.00  0.00    +0.000 C 
ATOM      6  C   UNL     1       6.546   5.458  19.466  0.00  0.00    +0.000 C 
ATOM      7  N   UNL     1       5.790   4.751  18.427  0.00  0.00    +0.000 NA
ATOM      8  C   UNL     1       4.304   4.864  18.304  0.00  0.00    +0.000 C 
ATOM      9  C   UNL     1       3.770   3.686  17.353  0.00  0.00    +0.000 C 
ATOM     10  O   UNL     1       4.383   2.972  16.573  0.00  0.00    +0.000 OA
ATOM     11  N   UNL     1       2.372   3.739  17.474  0.00  0.00    +0.000 N 
ATOM     12  C   UNL     1       2.079   4.143  18.768  0.00  0.00    +0.000 A 
ATOM     13  C   UNL     1       0.915   3.700  19.374  0.00  0.00    +0.000 A 
ATOM     14  C   UNL     1       1.029   3.323  20.688  0.00  0.00    +0.000 A 
ATOM     15  C   UNL     1       2.271   3.462  21.344  0.00  0.00    +0.000 A 
ATOM     16  C   UNL     1       3.388   4.091  20.727  0.00  0.00    +0.000 A 
ATOM     17  C   UNL     1       3.284   4.518  19.407  0.00  0.00    +0.000 A 
ATOM     18  H   UNL     1       1.792   3.101  16.950  0.00  0.00    +0.000 HD
ENDROOT
BRANCH   1  20
ATOM     19  N   UNL     1       2.094   7.363  17.982  0.00  0.00    +0.000 N 
ATOM     20  C   UNL     1       3.435   7.348  17.634  0.00  0.00    +0.000 C 
ATOM     21  O   UNL     1       4.197   8.310  17.753  0.00  0.00    +0.000 OA
ATOM     22  H   UNL     1       1.528   6.576  17.739  0.00  0.00    +0.000 HD
BRANCH  19  26
ATOM     23  C   UNL     1       0.288  10.373  20.459  0.00  0.00    +0.000 A 
ATOM     24  C   UNL     1       0.288  10.486  19.074  0.00  0.00    +0.000 A 
ATOM     25  C   UNL     1       0.856   9.516  18.242  0.00  0.00    +0.000 A 
ATOM     26  C   UNL     1       1.454   8.359  18.776  0.00  0.00    +0.000 A 
ATOM     27  C   UNL     1       1.457   8.233  20.187  0.00  0.00    +0.000 A 
ATOM     28  C   UNL     1       0.887   9.225  21.006  0.00  0.00    +0.000 A 
BRANCH  23  30
ATOM     29  C   UNL     1      -0.670  10.919  22.699  0.00  0.00    +0.000 C 
ATOM     30  C   UNL     1      -0.390  11.453  21.292  0.00  0.00    +0.000 C 
ATOM     31  C   UNL     1       0.367  12.781  21.379  0.00  0.00    +0.000 C 
ENDBRANCH  23  30
ENDBRANCH  19  26
ENDBRANCH   1  20
TORSDOF 3
ENDMDL
MODEL 5
REMARK VINA RESULT:      -8.9      1.970      4.354
REMARK  Name = 
REMARK  5 active torsions:
REMARK  status: ('A' for Active; 'I' for Inactive)
REMARK    1  A    between atoms: C_1  and  C_2
REMARK    2  A    between atoms: C_2  and  C_3
REMARK    3  A    between atoms: C_2  and  C_4
REMARK    4  A    between atoms: C_7  and  N_8
REMARK    5  A    between atoms: C_9  and  C_11
REMARK                            x       y       z     vdW  Elec       q    Type
REMARK                         _______ _______ _______ _____ _____    ______ ____
ROOT
ATOM      1  C   UNL     1       3.390   5.193  19.667  0.00  0.00    +0.000 C 
ATOM      2  C   UNL     1       2.770   4.354  20.775  0.00  0.00    +0.000 C 
ATOM      3  C   UNL     1       2.369   3.034  20.120  0.00  0.00    +0.000 C 
ATOM      4  C   UNL     1       0.863   2.888  20.148  0.00  0.00    +0.000 C 
ATOM      5  C   UNL     1       0.476   2.546  18.735  0.00  0.00    +0.000 C 
ATOM      6  C   UNL     1       1.687   2.910  17.856  0.00  0.00    +0.000 C 
ATOM      7  N   UNL     1       2.866   3.002  18.723  0.00  0.00    +0.000 NA
ATOM      8  C   UNL     1       3.851   4.123  18.615  0.00  0.00    +0.000 C 
ATOM      9  C   UNL     1       5.188   3.717  19.406  0.00  0.00    +0.000 C 
ATOM     10  O   UNL     1       5.370   2.837  20.234  0.00  0.00    +0.000 OA
ATOM     11  N   UNL     1       6.116   4.716  19.068  0.00  0.00    +0.000 N 
ATOM     12  C   UNL     1       5.847   5.115  17.767  0.00  0.00    +0.000 A 
ATOM     13  C   UNL     1       6.882   5.559  16.961  0.00  0.00    +0.000 A 
ATOM     14  C   UNL     1       6.867   5.114  15.664  0.00  0.00    +0.000 A 
ATOM     15  C   UNL     1       5.798   4.305  15.222  0.00  0.00    +0.000 A 
ATOM     16  C   UNL     1       4.668   4.027  16.041  0.00  0.00    +0.000 A 
ATOM     17  C   UNL     1       4.643   4.501  17.348  0.00  0.00    +0.000 A 
ATOM     18  H   UNL     1       7.047   4.699  19.459  0.00  0.00    +0.000 HD
ENDROOT
BRANCH   1  20
ATOM     19  N   UNL     1       1.759   7.046  19.989  0.00  0.00    +0.000 N 
ATOM     20  C   UNL     1       2.836   6.555  19.269  0.00  0.00    +0.000 C 
ATOM     21  O   UNL     1       3.472   7.204  18.435  0.00  0.00    +0.000 OA
ATOM     22  H   UNL     1       1.231   6.412  20.553  0.00  0.00    +0.000 HD
BRANCH  19  26
ATOM     23  C   UNL     1       0.757  11.201  20.430  0.00  0.00    +0.000 A 
ATOM     24  C   UNL     1       1.018  10.652  19.180  0.00  0.00    +0.000 A 
ATOM     25  C   UNL     1       1.333   9.301  19.004  0.00  0.00    +0.000 A 
ATOM     26  C   UNL     1       1.393   8.419  20.100  0.00  0.00    +0.000 A 
ATOM     27  C   UNL     1       1.126   8.967  21.378  0.00  0.00    +0.000 A 
ATOM     28  C   UNL     1       0.818  10.332  21.533  0.00  0.00    +0.000 A 
BRANCH  23  30
ATOM     29  C   UNL     1      -0.258  12.948  21.895  0.00  0.00    +0.000 C 
ATOM     30  C   UNL     1       0.379  12.673  20.531  0.00  0.00    +0.000 C 
ATOM     31  C   UNL     1       1.523  13.659  20.280  0.00  0.00    +0.000 C 
ENDBRANCH  23  30
ENDBRANCH  19  26
ENDBRANCH   1  20
TORSDOF 3
ENDMDL
MODEL 6
REMARK VINA RESULT:      -8.7      0.675      1.276
REMARK  Name = 
REMARK  5 active torsions:
REMARK  status: ('A' for Active; 'I' for Inactive)
REMARK    1  A    between atoms: C_1  and  C_2
REMARK    2  A    between atoms: C_2  and  C_3
REMARK    3  A    between atoms: C_2  and  C_4
REMARK    4  A    between atoms: C_7  and  N_8
REMARK    5  A    between atoms: C_9  and  C_11
REMARK                            x       y       z     vdW  Elec       q    Type
REMARK                         _______ _______ _______ _____ _____    ______ ____
ROOT
ATOM      1  C   UNL     1       3.974   6.285  17.470  0.00  0.00    +0.000 C 
ATOM      2  C   UNL     1       5.099   6.599  16.493  0.00  0.00    +0.000 C 
ATOM      3  C   UNL     1       6.315   5.830  17.001  0.00  0.00    +0.000 C 
ATOM      4  C   UNL     1       7.389   6.803  17.437  0.00  0.00    +0.000 C 
ATOM      5  C   UNL     1       7.788   6.354  18.816  0.00  0.00    +0.000 C 
ATOM      6  C   UNL     1       6.670   5.415  19.305  0.00  0.00    +0.000 C 
ATOM      7  N   UNL     1       5.915   4.959  18.133  0.00  0.00    +0.000 NA
ATOM      8  C   UNL     1       4.420   4.923  18.111  0.00  0.00    +0.000 C 
ATOM      9  C   UNL     1       3.941   4.022  16.871  0.00  0.00    +0.000 C 
ATOM     10  O   UNL     1       4.564   3.649  15.889  0.00  0.00    +0.000 OA
ATOM     11  N   UNL     1       2.558   3.868  17.061  0.00  0.00    +0.000 N 
ATOM     12  C   UNL     1       2.322   3.834  18.427  0.00  0.00    +0.000 A 
ATOM     13  C   UNL     1       1.259   3.094  18.919  0.00  0.00    +0.000 A 
ATOM     14  C   UNL     1       1.511   2.364  20.052  0.00  0.00    +0.000 A 
ATOM     15  C   UNL     1       2.777   2.453  20.668  0.00  0.00    +0.000 A 
ATOM     16  C   UNL     1       3.774   3.366  20.224  0.00  0.00    +0.000 A 
ATOM     17  C   UNL     1       3.527   4.147  19.099  0.00  0.00    +0.000 A 
ATOM     18  H   UNL     1       2.008   3.346  16.393  0.00  0.00    +0.000 HD
ENDROOT
BRANCH   1  20
ATOM     19  N   UNL     1       2.886   8.521  17.578  0.00  0.00    +0.000 N 
ATOM     20  C   UNL     1       3.251   7.370  18.257  0.00  0.00    +0.000 C 
ATOM     21  O   UNL     1       2.901   7.098  19.407  0.00  0.00    +0.000 OA
ATOM     22  H   UNL     1       3.314   8.713  16.695  0.00  0.00    +0.000 HD
BRANCH  19  26
ATOM     23  C   UNL     1      -0.183  11.327  18.660  0.00  0.00    +0.000 A 
ATOM     24  C   UNL     1      -0.499  10.038  18.250  0.00  0.00    +0.000 A 
ATOM     25  C   UNL     1       0.478   9.099  17.905  0.00  0.00    +0.000 A 
ATOM     26  C   UNL     1       1.848   9.418  17.966  0.00  0.00    +0.000 A 
ATOM     27  C   UNL     1       2.181  10.728  18.386  0.00  0.00    +0.000 A 
ATOM     28  C   UNL     1       1.182  11.661  18.720  0.00  0.00    +0.000 A 
BRANCH  23  30
ATOM     29  C   UNL     1      -0.848  13.724  18.867  0.00  0.00    +0.000 C 
ATOM     30  C   UNL     1      -1.305  12.277  19.059  0.00  0.00    +0.000 C 
ATOM     31  C   UNL     1      -2.638  12.050  18.341  0.00  0.00    +0.000 C 
ENDBRANCH  23  30
ENDBRANCH  19  26
ENDBRANCH   1  20
TORSDOF 3
ENDMDL
MODEL 7
REMARK VINA RESULT:      -8.1      1.381      1.586
REMARK  Name = 
REMARK  5 active torsions:
REMARK  status: ('A' for Active; 'I' for Inactive)
REMARK    1  A    between atoms: C_1  and  C_2
REMARK    2  A    between atoms: C_2  and  C_3
REMARK    3  A    between atoms: C_2  and  C_4
REMARK    4  A    between atoms: C_7  and  N_8
REMARK    5  A    between atoms: C_9  and  C_11
REMARK                            x       y       z     vdW  Elec       q    Type
REMARK                         _______ _______ _______ _____ _____    ______ ____
ROOT
ATOM      1  C   UNL     1       4.150   6.297  17.396  0.00  0.00    +0.000 C 
ATOM      2  C   UNL     1       5.170   6.972  16.490  0.00  0.00    +0.000 C 
ATOM      3  C   UNL     1       6.516   6.344  16.841  0.00  0.00    +0.000 C 
ATOM      4  C   UNL     1       7.426   7.392  17.446  0.00  0.00    +0.000 C 
ATOM      5  C   UNL     1       7.944   6.775  18.716  0.00  0.00    +0.000 C 
ATOM      6  C   UNL     1       7.018   5.585  19.027  0.00  0.00    +0.000 C 
ATOM      7  N   UNL     1       6.309   5.226  17.794  0.00  0.00    +0.000 NA
ATOM      8  C   UNL     1       4.841   4.938  17.772  0.00  0.00    +0.000 C 
ATOM      9  C   UNL     1       4.476   4.208  16.388  0.00  0.00    +0.000 C 
ATOM     10  O   UNL     1       5.118   4.133  15.351  0.00  0.00    +0.000 OA
ATOM     11  N   UNL     1       3.147   3.787  16.552  0.00  0.00    +0.000 N 
ATOM     12  C   UNL     1       2.969   3.466  17.889  0.00  0.00    +0.000 A 
ATOM     13  C   UNL     1       2.065   2.477  18.239  0.00  0.00    +0.000 A 
ATOM     14  C   UNL     1       2.476   1.607  19.217  0.00  0.00    +0.000 A 
ATOM     15  C   UNL     1       3.730   1.799  19.833  0.00  0.00    +0.000 A 
ATOM     16  C   UNL     1       4.543   2.936  19.562  0.00  0.00    +0.000 A 
ATOM     17  C   UNL     1       4.128   3.854  18.602  0.00  0.00    +0.000 A 
ATOM     18  H   UNL     1       2.669   3.309  15.801  0.00  0.00    +0.000 HD
ENDROOT
BRANCH   1  20
ATOM     19  N   UNL     1       2.977   8.392  18.051  0.00  0.00    +0.000 N 
ATOM     20  C   UNL     1       3.283   7.080  18.373  0.00  0.00    +0.000 C 
ATOM     21  O   UNL     1       2.783   6.456  19.312  0.00  0.00    +0.000 OA
ATOM     22  H   UNL     1       3.519   8.852  17.349  0.00  0.00    +0.000 HD
BRANCH  19  26
ATOM     23  C   UNL     1      -0.301  10.652  19.668  0.00  0.00    +0.000 A 
ATOM     24  C   UNL     1       0.100  10.809  18.346  0.00  0.00    +0.000 A 
ATOM     25  C   UNL     1       1.153  10.078  17.789  0.00  0.00    +0.000 A 
ATOM     26  C   UNL     1       1.862   9.128  18.548  0.00  0.00    +0.000 A 
ATOM     27  C   UNL     1       1.460   8.958  19.895  0.00  0.00    +0.000 A 
ATOM     28  C   UNL     1       0.402   9.710  20.439  0.00  0.00    +0.000 A 
BRANCH  23  30
ATOM     29  C   UNL     1      -0.985  12.735  20.861  0.00  0.00    +0.000 C 
ATOM     30  C   UNL     1      -1.486  11.456  20.186  0.00  0.00    +0.000 C 
ATOM     31  C   UNL     1      -2.549  11.799  19.140  0.00  0.00    +0.000 C 
ENDBRANCH  23  30
ENDBRANCH  19  26
ENDBRANCH   1  20
TORSDOF 3
ENDMDL
