MODEL 1
REMARK VINA RESULT:      -8.4      0.000      0.000
REMARK  Name = 
REMARK  7 active torsions:
REMARK  status: ('A' for Active; 'I' for Inactive)
REMARK    1  A    between atoms: C_1  and  O_2
REMARK    2  A    between atoms: O_2  and  C_3
REMARK    3  A    between atoms: C_7  and  C_8
REMARK    4  A    between atoms: C_8  and  C_9
REMARK    5  A    between atoms: C_8  and  N_10
REMARK    6  A    between atoms: C_11  and  C_13
REMARK    7  A    between atoms: C_19  and  C_20
REMARK                            x       y       z     vdW  Elec       q    Type
REMARK                         _______ _______ _______ _____ _____    ______ ____
ROOT
ATOM      1  C   UNL     1       6.191   5.222  17.238  0.00  0.00    +0.000 A 
ATOM      2  C   UNL     1       6.613   5.168  18.574  0.00  0.00    +0.000 A 
ATOM      3  C   UNL     1       5.648   4.947  19.578  0.00  0.00    +0.000 A 
ATOM      4  C   UNL     1       4.312   4.950  19.213  0.00  0.00    +0.000 A 
ATOM      5  C   UNL     1       3.998   5.673  18.051  0.00  0.00    +0.000 A 
ATOM      6  C   UNL     1       4.863   5.562  16.970  0.00  0.00    +0.000 A 
ATOM      7  C   UNL     1       2.597   6.189  18.152  0.00  0.00    +0.000 C 
ATOM      8  O   UNL     1       1.744   5.076  17.914  0.00  0.00    +0.000 OA
ATOM      9  C   UNL     1       1.902   4.259  19.014  0.00  0.00    +0.000 A 
ATOM     10  C   UNL     1       0.780   3.545  19.386  0.00  0.00    +0.000 A 
ATOM     11  N   UNL     1       0.742   2.791  20.507  0.00  0.00    +0.000 NA
ATOM     12  C   UNL     1       1.883   2.758  21.225  0.00  0.00    +0.000 A 
ATOM     13  C   UNL     1       3.087   3.409  20.915  0.00  0.00    +0.000 A 
ATOM     14  C   UNL     1       3.128   4.207  19.781  0.00  0.00    +0.000 A 
ENDROOT
BRANCH   1  16
ATOM     15  N   UNL     1       6.706   5.115  14.874  0.00  0.00    +0.000 N 
ATOM     16  C   UNL     1       7.133   4.805  16.159  0.00  0.00    +0.000 C 
ATOM     17  O   UNL     1       8.131   4.157  16.415  0.00  0.00    +0.000 OA
ATOM     18  H   UNL     1       5.769   5.479  14.764  0.00  0.00    +0.000 HD
BRANCH  15  19
ATOM     19  C   UNL     1       7.377   4.633  13.666  0.00  0.00    +0.000 C 
ATOM     20  C   UNL     1       7.966   5.788  12.852  0.00  0.00    +0.000 C 
BRANCH  19  25
ATOM     21  C   UNL     1       6.003   1.869  11.354  0.00  0.00    +0.000 A 
ATOM     22  C   UNL     1       4.668   2.263  11.227  0.00  0.00    +0.000 A 
ATOM     23  C   UNL     1       4.211   3.406  11.885  0.00  0.00    +0.000 A 
ATOM     24  C   UNL     1       5.081   4.163  12.662  0.00  0.00    +0.000 A 
ATOM     25  C   UNL     1       6.433   3.794  12.804  0.00  0.00    +0.000 A 
ATOM     26  C   UNL     1       6.875   2.629  12.142  0.00  0.00    +0.000 A 
BRANCH  21  28
ATOM     27  C   UNL     1       6.038  -0.511  11.287  0.00  0.00    +0.000 C 
ATOM     28  O   UNL     1       6.323   0.734  10.661  0.00  0.00    +0.000 OA
ENDBRANCH  21  28
ENDBRANCH  19  25
ENDBRANCH  15  19
ENDBRANCH   1  16
BRANCH   7  29
ATOM     29  C   UNL     1       2.136   7.440  17.498  0.00  0.00    +0.000 C 
ATOM     30  C   UNL     1       1.581   8.499  18.453  0.00  0.00    +0.000 C 
ATOM     31  C   UNL     1       2.754   8.810  17.574  0.00  0.00    +0.000 C 
ENDBRANCH   7  29
TORSDOF 5
ENDMDL
MODEL 2
REMARK VINA RESULT:      -7.8      3.749      6.605
REMARK  Name = 
REMARK  7 active torsions:
REMARK  status: ('A' for Active; 'I' for Inactive)
REMARK    1  A    between atoms: C_1  and  O_2
REMARK    2  A    between atoms: O_2  and  C_3
REMARK    3  A    between atoms: C_7  and  C_8
REMARK    4  A    between atoms: C_8  and  C_9
REMARK    5  A    between atoms: C_8  and  N_10
REMARK    6  A    between atoms: C_11  and  C_13
REMARK    7  A    between atoms: C_19  and  C_20
REMARK                            x       y       z     vdW  Elec       q    Type
REMARK                         _______ _______ _______ _____ _____    ______ ____
ROOT
ATOM      1  C   UNL     1       2.177   7.466  19.170  0.00  0.00    +0.000 A 
ATOM      2  C   UNL     1       1.884   7.903  17.870  0.00  0.00    +0.000 A 
ATOM      3  C   UNL     1       1.612   9.270  17.663  0.00  0.00    +0.000 A 
ATOM      4  C   UNL     1       1.492  10.089  18.774  0.00  0.00    +0.000 A 
ATOM      5  C   UNL     1       1.126   9.448  19.968  0.00  0.00    +0.000 A 
ATOM      6  C   UNL     1       1.714   8.223  20.249  0.00  0.00    +0.000 A 
ATOM      7  C   UNL     1       0.371  10.408  20.834  0.00  0.00    +0.000 C 
ATOM      8  O   UNL     1       1.337  11.292  21.387  0.00  0.00    +0.000 OA
ATOM      9  C   UNL     1       1.786  12.048  20.325  0.00  0.00    +0.000 A 
ATOM     10  C   UNL     1       2.143  13.346  20.632  0.00  0.00    +0.000 A 
ATOM     11  N   UNL     1       2.492  14.243  19.682  0.00  0.00    +0.000 NA
ATOM     12  C   UNL     1       2.495  13.779  18.417  0.00  0.00    +0.000 A 
ATOM     13  C   UNL     1       2.190  12.474  18.001  0.00  0.00    +0.000 A 
ATOM     14  C   UNL     1       1.805  11.553  18.965  0.00  0.00    +0.000 A 
ENDROOT
BRANCH   1  16
ATOM     15  N   UNL     1       4.284   6.369  18.696  0.00  0.00    +0.000 N 
ATOM     16  C   UNL     1       3.066   6.282  19.358  0.00  0.00    +0.000 C 
ATOM     17  O   UNL     1       2.678   5.298  19.960  0.00  0.00    +0.000 OA
ATOM     18  H   UNL     1       4.423   7.146  18.064  0.00  0.00    +0.000 HD
BRANCH  15  19
ATOM     19  C   UNL     1       5.221   5.251  18.588  0.00  0.00    +0.000 C 
ATOM     20  C   UNL     1       6.517   5.526  19.355  0.00  0.00    +0.000 C 
BRANCH  19  25
ATOM     21  C   UNL     1       6.905   5.151  15.119  0.00  0.00    +0.000 A 
ATOM     22  C   UNL     1       6.053   4.283  14.431  0.00  0.00    +0.000 A 
ATOM     23  C   UNL     1       4.948   3.728  15.080  0.00  0.00    +0.000 A 
ATOM     24  C   UNL     1       4.684   4.042  16.409  0.00  0.00    +0.000 A 
ATOM     25  C   UNL     1       5.521   4.918  17.126  0.00  0.00    +0.000 A 
ATOM     26  C   UNL     1       6.640   5.460  16.458  0.00  0.00    +0.000 A 
BRANCH  21  28
ATOM     27  C   UNL     1       7.963   5.288  12.991  0.00  0.00    +0.000 C 
ATOM     28  O   UNL     1       7.949   5.623  14.373  0.00  0.00    +0.000 OA
ENDBRANCH  21  28
ENDBRANCH  19  25
ENDBRANCH  15  19
ENDBRANCH   1  16
BRANCH   7  29
ATOM     29  C   UNL     1      -0.674   9.990  21.803  0.00  0.00    +0.000 C 
ATOM     30  C   UNL     1      -0.144   9.525  23.161  0.00  0.00    +0.000 C 
ATOM     31  C   UNL     1      -1.094  10.681  23.072  0.00  0.00    +0.000 C 
ENDBRANCH   7  29
TORSDOF 5
ENDMDL
MODEL 3
REMARK VINA RESULT:      -7.7      1.125      1.711
REMARK  Name = 
REMARK  7 active torsions:
REMARK  status: ('A' for Active; 'I' for Inactive)
REMARK    1  A    between atoms: C_1  and  O_2
REMARK    2  A    between atoms: O_2  and  C_3
REMARK    3  A    between atoms: C_7  and  C_8
REMARK    4  A    between atoms: C_8  and  C_9
REMARK    5  A    between atoms: C_8  and  N_10
REMARK    6  A    between atoms: C_11  and  C_13
REMARK    7  A    between atoms: C_19  and  C_20
REMARK                            x       y       z     vdW  Elec       q    Type
REMARK                         _______ _______ _______ _____ _____    ______ ____
ROOT
ATOM      1  C   UNL     1       5.979   5.735  16.895  0.00  0.00    +0.000 A 
ATOM      2  C   UNL     1       6.506   5.467  18.166  0.00  0.00    +0.000 A 
ATOM      3  C   UNL     1       5.636   5.000  19.173  0.00  0.00    +0.000 A 
ATOM      4  C   UNL     1       4.277   4.978  18.904  0.00  0.00    +0.000 A 
ATOM      5  C   UNL     1       3.835   5.878  17.922  0.00  0.00    +0.000 A 
ATOM      6  C   UNL     1       4.617   6.027  16.785  0.00  0.00    +0.000 A 
ATOM      7  C   UNL     1       2.419   6.268  18.210  0.00  0.00    +0.000 C 
ATOM      8  O   UNL     1       1.613   5.162  17.826  0.00  0.00    +0.000 OA
ATOM      9  C   UNL     1       1.901   4.170  18.739  0.00  0.00    +0.000 A 
ATOM     10  C   UNL     1       0.853   3.325  19.045  0.00  0.00    +0.000 A 
ATOM     11  N   UNL     1       0.945   2.377  20.005  0.00  0.00    +0.000 NA
ATOM     12  C   UNL     1       2.138   2.293  20.626  0.00  0.00    +0.000 A 
ATOM     13  C   UNL     1       3.276   3.071  20.366  0.00  0.00    +0.000 A 
ATOM     14  C   UNL     1       3.184   4.064  19.400  0.00  0.00    +0.000 A 
ENDROOT
BRANCH   1  16
ATOM     15  N   UNL     1       6.355   4.737  14.721  0.00  0.00    +0.000 N 
ATOM     16  C   UNL     1       6.856   5.589  15.697  0.00  0.00    +0.000 C 
ATOM     17  O   UNL     1       7.957   6.106  15.661  0.00  0.00    +0.000 OA
ATOM     18  H   UNL     1       5.522   4.207  14.940  0.00  0.00    +0.000 HD
BRANCH  15  19
ATOM     19  C   UNL     1       7.130   4.303  13.559  0.00  0.00    +0.000 C 
ATOM     20  C   UNL     1       7.775   5.490  12.837  0.00  0.00    +0.000 C 
BRANCH  19  25
ATOM     21  C   UNL     1       4.217   3.179  11.295  0.00  0.00    +0.000 A 
ATOM     22  C   UNL     1       4.710   1.967  10.803  0.00  0.00    +0.000 A 
ATOM     23  C   UNL     1       5.974   1.517  11.192  0.00  0.00    +0.000 A 
ATOM     24  C   UNL     1       6.743   2.267  12.075  0.00  0.00    +0.000 A 
ATOM     25  C   UNL     1       6.270   3.488  12.592  0.00  0.00    +0.000 A 
ATOM     26  C   UNL     1       4.997   3.933  12.179  0.00  0.00    +0.000 A 
BRANCH  21  28
ATOM     27  C   UNL     1       2.890   4.140   9.567  0.00  0.00    +0.000 C 
ATOM     28  O   UNL     1       2.970   3.506  10.837  0.00  0.00    +0.000 OA
ENDBRANCH  21  28
ENDBRANCH  19  25
ENDBRANCH  15  19
ENDBRANCH   1  16
BRANCH   7  29
ATOM     29  C   UNL     1       1.839   7.584  17.835  0.00  0.00    +0.000 C 
ATOM     30  C   UNL     1       1.687   8.574  18.991  0.00  0.00    +0.000 C 
ATOM     31  C   UNL     1       2.524   8.923  17.797  0.00  0.00    +0.000 C 
ENDBRANCH   7  29
TORSDOF 5
ENDMDL
MODEL 4
REMARK VINA RESULT:      -7.7      3.833      6.574
REMARK  Name = 
REMARK  7 active torsions:
REMARK  status: ('A' for Active; 'I' for Inactive)
REMARK    1  A    between atoms: C_1  and  O_2
REMARK    2  A    between atoms: O_2  and  C_3
REMARK    3  A    between atoms: C_7  and  C_8
REMARK    4  A    between atoms: C_8  and  C_9
REMARK    5  A    between atoms: C_8  and  N_10
REMARK    6  A    between atoms: C_11  and  C_13
REMARK    7  A    between atoms: C_19  and  C_20
REMARK                            x       y       z     vdW  Elec       q    Type
REMARK                         _______ _______ _______ _____ _____    ______ ____
ROOT
ATOM      1  C   UNL     1       2.125   7.543  19.193  0.00  0.00    +0.000 A 
ATOM      2  C   UNL     1       1.841   7.988  17.894  0.00  0.00    +0.000 A 
ATOM      3  C   UNL     1       1.574   9.358  17.694  0.00  0.00    +0.000 A 
ATOM      4  C   UNL     1       1.451  10.170  18.810  0.00  0.00    +0.000 A 
ATOM      5  C   UNL     1       1.075   9.523  19.997  0.00  0.00    +0.000 A 
ATOM      6  C   UNL     1       1.658   8.294  20.274  0.00  0.00    +0.000 A 
ATOM      7  C   UNL     1       0.318  10.480  20.865  0.00  0.00    +0.000 C 
ATOM      8  O   UNL     1       1.284  11.356  21.429  0.00  0.00    +0.000 OA
ATOM      9  C   UNL     1       1.741  12.118  20.375  0.00  0.00    +0.000 A 
ATOM     10  C   UNL     1       2.101  13.413  20.692  0.00  0.00    +0.000 A 
ATOM     11  N   UNL     1       2.458  14.315  19.751  0.00  0.00    +0.000 NA
ATOM     12  C   UNL     1       2.468  13.859  18.482  0.00  0.00    +0.000 A 
ATOM     13  C   UNL     1       2.161  12.558  18.056  0.00  0.00    +0.000 A 
ATOM     14  C   UNL     1       1.767  11.631  19.012  0.00  0.00    +0.000 A 
ENDROOT
BRANCH   1  16
ATOM     15  N   UNL     1       3.899   6.134  18.335  0.00  0.00    +0.000 N 
ATOM     16  C   UNL     1       3.008   6.355  19.378  0.00  0.00    +0.000 C 
ATOM     17  O   UNL     1       2.860   5.606  20.327  0.00  0.00    +0.000 OA
ATOM     18  H   UNL     1       3.803   6.704  17.505  0.00  0.00    +0.000 HD
BRANCH  15  19
ATOM     19  C   UNL     1       4.719   4.928  18.221  0.00  0.00    +0.000 C 
ATOM     20  C   UNL     1       5.698   4.800  19.391  0.00  0.00    +0.000 C 
BRANCH  19  25
ATOM     21  C   UNL     1       5.550   4.379  14.494  0.00  0.00    +0.000 A 
ATOM     22  C   UNL     1       6.868   4.839  14.442  0.00  0.00    +0.000 A 
ATOM     23  C   UNL     1       7.484   5.329  15.595  0.00  0.00    +0.000 A 
ATOM     24  C   UNL     1       6.794   5.354  16.802  0.00  0.00    +0.000 A 
ATOM     25  C   UNL     1       5.467   4.891  16.887  0.00  0.00    +0.000 A 
ATOM     26  C   UNL     1       4.856   4.410  15.710  0.00  0.00    +0.000 A 
BRANCH  21  28
ATOM     27  C   UNL     1       5.981   3.273  12.430  0.00  0.00    +0.000 C 
ATOM     28  O   UNL     1       5.064   3.927  13.298  0.00  0.00    +0.000 OA
ENDBRANCH  21  28
ENDBRANCH  19  25
ENDBRANCH  15  19
ENDBRANCH   1  16
BRANCH   7  29
ATOM     29  C   UNL     1      -0.734  10.058  21.825  0.00  0.00    +0.000 C 
ATOM     30  C   UNL     1      -0.213   9.573  23.179  0.00  0.00    +0.000 C 
ATOM     31  C   UNL     1      -1.153  10.738  23.100  0.00  0.00    +0.000 C 
ENDBRANCH   7  29
TORSDOF 5
ENDMDL
MODEL 5
REMARK VINA RESULT:      -7.5      4.357      7.227
REMARK  Name = 
REMARK  7 active torsions:
REMARK  status: ('A' for Active; 'I' for Inactive)
REMARK    1  A    between atoms: C_1  and  O_2
REMARK    2  A    between atoms: O_2  and  C_3
REMARK    3  A    between atoms: C_7  and  C_8
REMARK    4  A    between atoms: C_8  and  C_9
REMARK    5  A    between atoms: C_8  and  N_10
REMARK    6  A    between atoms: C_11  and  C_13
REMARK    7  A    between atoms: C_19  and  C_20
REMARK                            x       y       z     vdW  Elec       q    Type
REMARK                         _______ _______ _______ _____ _____    ______ ____
ROOT
ATOM      1  C   UNL     1       1.465   8.330  20.819  0.00  0.00    +0.000 A 
ATOM      2  C   UNL     1       1.593   8.704  22.164  0.00  0.00    +0.000 A 
ATOM      3  C   UNL     1       0.867   9.820  22.627  0.00  0.00    +0.000 A 
ATOM      4  C   UNL     1       0.185  10.588  21.697  0.00  0.00    +0.000 A 
ATOM      5  C   UNL     1       0.678  10.536  20.384  0.00  0.00    +0.000 A 
ATOM      6  C   UNL     1       1.072   9.299  19.892  0.00  0.00    +0.000 A 
ATOM      7  C   UNL     1       0.383  11.830  19.693  0.00  0.00    +0.000 C 
ATOM      8  O   UNL     1      -1.002  11.806  19.373  0.00  0.00    +0.000 OA
ATOM      9  C   UNL     1      -1.654  11.894  20.585  0.00  0.00    +0.000 A 
ATOM     10  C   UNL     1      -2.860  12.565  20.560  0.00  0.00    +0.000 A 
ATOM     11  N   UNL     1      -3.561  12.834  21.685  0.00  0.00    +0.000 NA
ATOM     12  C   UNL     1      -3.019  12.377  22.831  0.00  0.00    +0.000 A 
ATOM     13  C   UNL     1      -1.825  11.651  22.963  0.00  0.00    +0.000 A 
ATOM     14  C   UNL     1      -1.084  11.394  21.818  0.00  0.00    +0.000 A 
ENDROOT
BRANCH   1  16
ATOM     15  N   UNL     1       2.773   6.638  19.684  0.00  0.00    +0.000 N 
ATOM     16  C   UNL     1       1.637   6.898  20.441  0.00  0.00    +0.000 C 
ATOM     17  O   UNL     1       0.781   6.073  20.703  0.00  0.00    +0.000 OA
ATOM     18  H   UNL     1       3.312   7.428  19.357  0.00  0.00    +0.000 HD
BRANCH  15  19
ATOM     19  C   UNL     1       3.036   5.347  19.049  0.00  0.00    +0.000 C 
ATOM     20  C   UNL     1       3.679   4.359  20.027  0.00  0.00    +0.000 C 
BRANCH  19  25
ATOM     21  C   UNL     1       5.268   4.557  16.003  0.00  0.00    +0.000 A 
ATOM     22  C   UNL     1       5.497   5.839  15.497  0.00  0.00    +0.000 A 
ATOM     23  C   UNL     1       4.932   6.950  16.127  0.00  0.00    +0.000 A 
ATOM     24  C   UNL     1       4.148   6.788  17.264  0.00  0.00    +0.000 A 
ATOM     25  C   UNL     1       3.905   5.510  17.800  0.00  0.00    +0.000 A 
ATOM     26  C   UNL     1       4.474   4.397  17.144  0.00  0.00    +0.000 A 
BRANCH  21  28
ATOM     27  C   UNL     1       6.219   3.834  13.944  0.00  0.00    +0.000 C 
ATOM     28  O   UNL     1       5.876   3.557  15.296  0.00  0.00    +0.000 OA
ENDBRANCH  21  28
ENDBRANCH  19  25
ENDBRANCH  15  19
ENDBRANCH   1  16
BRANCH   7  29
ATOM     29  C   UNL     1       1.232  12.393  18.611  0.00  0.00    +0.000 C 
ATOM     30  C   UNL     1       1.362  13.917  18.622  0.00  0.00    +0.000 C 
ATOM     31  C   UNL     1       2.579  13.051  18.736  0.00  0.00    +0.000 C 
ENDBRANCH   7  29
TORSDOF 5
ENDMDL
MODEL 6
REMARK VINA RESULT:      -7.4      3.895      7.301
REMARK  Name = 
REMARK  7 active torsions:
REMARK  status: ('A' for Active; 'I' for Inactive)
REMARK    1  A    between atoms: C_1  and  O_2
REMARK    2  A    between atoms: O_2  and  C_3
REMARK    3  A    between atoms: C_7  and  C_8
REMARK    4  A    between atoms: C_8  and  C_9
REMARK    5  A    between atoms: C_8  and  N_10
REMARK    6  A    between atoms: C_11  and  C_13
REMARK    7  A    between atoms: C_19  and  C_20
REMARK                            x       y       z     vdW  Elec       q    Type
REMARK                         _______ _______ _______ _____ _____    ______ ____
ROOT
ATOM      1  C   UNL     1       1.874   7.830  18.921  0.00  0.00    +0.000 A 
ATOM      2  C   UNL     1       1.559   8.397  17.679  0.00  0.00    +0.000 A 
ATOM      3  C   UNL     1       1.346   9.788  17.606  0.00  0.00    +0.000 A 
ATOM      4  C   UNL     1       1.303  10.506  18.791  0.00  0.00    +0.000 A 
ATOM      5  C   UNL     1       0.945   9.774  19.934  0.00  0.00    +0.000 A 
ATOM      6  C   UNL     1       1.484   8.503  20.081  0.00  0.00    +0.000 A 
ATOM      7  C   UNL     1       0.266  10.683  20.911  0.00  0.00    +0.000 C 
ATOM      8  O   UNL     1       1.292  11.468  21.506  0.00  0.00    +0.000 OA
ATOM      9  C   UNL     1       1.740  12.298  20.500  0.00  0.00    +0.000 A 
ATOM     10  C   UNL     1       2.170  13.545  20.910  0.00  0.00    +0.000 A 
ATOM     11  N   UNL     1       2.529  14.510  20.033  0.00  0.00    +0.000 NA
ATOM     12  C   UNL     1       2.468  14.165  18.732  0.00  0.00    +0.000 A 
ATOM     13  C   UNL     1       2.088  12.918  18.211  0.00  0.00    +0.000 A 
ATOM     14  C   UNL     1       1.691  11.930  19.102  0.00  0.00    +0.000 A 
ENDROOT
BRANCH   1  16
ATOM     15  N   UNL     1       2.488   5.713  17.918  0.00  0.00    +0.000 N 
ATOM     16  C   UNL     1       2.710   6.595  18.968  0.00  0.00    +0.000 C 
ATOM     17  O   UNL     1       3.439   6.368  19.916  0.00  0.00    +0.000 OA
ATOM     18  H   UNL     1       1.720   5.910  17.291  0.00  0.00    +0.000 HD
BRANCH  15  19
ATOM     19  C   UNL     1       3.056   4.365  17.868  0.00  0.00    +0.000 C 
ATOM     20  C   UNL     1       2.968   3.666  19.227  0.00  0.00    +0.000 C 
BRANCH  19  25
ATOM     21  C   UNL     1       6.908   4.552  17.790  0.00  0.00    +0.000 A 
ATOM     22  C   UNL     1       7.155   4.429  16.420  0.00  0.00    +0.000 A 
ATOM     23  C   UNL     1       6.092   4.280  15.528  0.00  0.00    +0.000 A 
ATOM     24  C   UNL     1       4.782   4.263  15.995  0.00  0.00    +0.000 A 
ATOM     25  C   UNL     1       4.501   4.391  17.368  0.00  0.00    +0.000 A 
ATOM     26  C   UNL     1       5.588   4.528  18.257  0.00  0.00    +0.000 A 
BRANCH  21  28
ATOM     27  C   UNL     1       8.110   5.834  19.395  0.00  0.00    +0.000 C 
ATOM     28  O   UNL     1       8.033   4.690  18.555  0.00  0.00    +0.000 OA
ENDBRANCH  21  28
ENDBRANCH  19  25
ENDBRANCH  15  19
ENDBRANCH   1  16
BRANCH   7  29
ATOM     29  C   UNL     1      -0.765  10.224  21.877  0.00  0.00    +0.000 C 
ATOM     30  C   UNL     1      -0.215   9.691  23.201  0.00  0.00    +0.000 C 
ATOM     31  C   UNL     1      -1.158  10.855  23.185  0.00  0.00    +0.000 C 
ENDBRANCH   7  29
TORSDOF 5
ENDMDL
MODEL 7
REMARK VINA RESULT:      -7.4      4.799      8.468
REMARK  Name = 
REMARK  7 active torsions:
REMARK  status: ('A' for Active; 'I' for Inactive)
REMARK    1  A    between atoms: C_1  and  O_2
REMARK    2  A    between atoms: O_2  and  C_3
REMARK    3  A    between atoms: C_7  and  C_8
REMARK    4  A    between atoms: C_8  and  C_9
REMARK    5  A    between atoms: C_8  and  N_10
REMARK    6  A    between atoms: C_11  and  C_13
REMARK    7  A    between atoms: C_19  and  C_20
REMARK                            x       y       z     vdW  Elec       q    Type
REMARK                         _______ _______ _______ _____ _____    ______ ____
ROOT
ATOM      1  C   UNL     1       1.289   9.671  18.390  0.00  0.00    +0.000 A 
ATOM      2  C   UNL     1       1.871  10.921  18.136  0.00  0.00    +0.000 A 
ATOM      3  C   UNL     1       1.085  12.079  18.308  0.00  0.00    +0.000 A 
ATOM      4  C   UNL     1      -0.266  11.920  18.567  0.00  0.00    +0.000 A 
ATOM      5  C   UNL     1      -0.835  10.716  18.124  0.00  0.00    +0.000 A 
ATOM      6  C   UNL     1      -0.100   9.551  18.302  0.00  0.00    +0.000 A 
ATOM      7  C   UNL     1      -2.282  10.937  17.809  0.00  0.00    +0.000 C 
ATOM      8  O   UNL     1      -2.955  11.012  19.059  0.00  0.00    +0.000 OA
ATOM      9  C   UNL     1      -2.530  12.193  19.629  0.00  0.00    +0.000 A 
ATOM     10  C   UNL     1      -3.462  12.837  20.419  0.00  0.00    +0.000 A 
ATOM     11  N   UNL     1      -3.235  14.059  20.952  0.00  0.00    +0.000 NA
ATOM     12  C   UNL     1      -2.028  14.596  20.685  0.00  0.00    +0.000 A 
ATOM     13  C   UNL     1      -0.998  14.011  19.932  0.00  0.00    +0.000 A 
ATOM     14  C   UNL     1      -1.230  12.769  19.359  0.00  0.00    +0.000 A 
ENDROOT
BRANCH   1  16
ATOM     15  N   UNL     1       3.014   8.048  17.886  0.00  0.00    +0.000 N 
ATOM     16  C   UNL     1       2.152   8.547  18.855  0.00  0.00    +0.000 C 
ATOM     17  O   UNL     1       2.010   8.066  19.964  0.00  0.00    +0.000 OA
ATOM     18  H   UNL     1       2.911   8.392  16.941  0.00  0.00    +0.000 HD
BRANCH  15  19
ATOM     19  C   UNL     1       3.807   6.832  18.066  0.00  0.00    +0.000 C 
ATOM     20  C   UNL     1       4.534   6.438  16.778  0.00  0.00    +0.000 C 
BRANCH  19  25
ATOM     21  C   UNL     1       2.229   4.160  20.357  0.00  0.00    +0.000 A 
ATOM     22  C   UNL     1       1.333   3.546  19.478  0.00  0.00    +0.000 A 
ATOM     23  C   UNL     1       1.232   3.993  18.158  0.00  0.00    +0.000 A 
ATOM     24  C   UNL     1       2.026   5.042  17.711  0.00  0.00    +0.000 A 
ATOM     25  C   UNL     1       2.943   5.676  18.572  0.00  0.00    +0.000 A 
ATOM     26  C   UNL     1       3.023   5.219  19.905  0.00  0.00    +0.000 A 
BRANCH  21  28
ATOM     27  C   UNL     1       1.447   2.463  21.833  0.00  0.00    +0.000 C 
ATOM     28  O   UNL     1       2.231   3.630  21.618  0.00  0.00    +0.000 OA
ENDBRANCH  21  28
ENDBRANCH  19  25
ENDBRANCH  15  19
ENDBRANCH   1  16
BRANCH   7  29
ATOM     29  C   UNL     1      -3.024  10.165  16.780  0.00  0.00    +0.000 C 
ATOM     30  C   UNL     1      -3.647  11.010  15.667  0.00  0.00    +0.000 C 
ATOM     31  C   UNL     1      -2.651   9.939  15.340  0.00  0.00    +0.000 C 
ENDBRANCH   7  29
TORSDOF 5
ENDMDL
MODEL 8
REMARK VINA RESULT:      -7.4      4.295      7.471
REMARK  Name = 
REMARK  7 active torsions:
REMARK  status: ('A' for Active; 'I' for Inactive)
REMARK    1  A    between atoms: C_1  and  O_2
REMARK    2  A    between atoms: O_2  and  C_3
REMARK    3  A    between atoms: C_7  and  C_8
REMARK    4  A    between atoms: C_8  and  C_9
REMARK    5  A    between atoms: C_8  and  N_10
REMARK    6  A    between atoms: C_11  and  C_13
REMARK    7  A    between atoms: C_19  and  C_20
REMARK                            x       y       z     vdW  Elec       q    Type
REMARK                         _______ _______ _______ _____ _____    ______ ____
ROOT
ATOM      1  C   UNL     1       1.521   8.175  20.752  0.00  0.00    +0.000 A 
ATOM      2  C   UNL     1       1.690   8.560  22.089  0.00  0.00    +0.000 A 
ATOM      3  C   UNL     1       0.994   9.692  22.559  0.00  0.00    +0.000 A 
ATOM      4  C   UNL     1       0.300  10.461  21.639  0.00  0.00    +0.000 A 
ATOM      5  C   UNL     1       0.756  10.387  20.314  0.00  0.00    +0.000 A 
ATOM      6  C   UNL     1       1.118   9.139  19.825  0.00  0.00    +0.000 A 
ATOM      7  C   UNL     1       0.463  11.679  19.617  0.00  0.00    +0.000 C 
ATOM      8  O   UNL     1      -0.930  11.673  19.334  0.00  0.00    +0.000 OA
ATOM      9  C   UNL     1      -1.548  11.783  20.561  0.00  0.00    +0.000 A 
ATOM     10  C   UNL     1      -2.745  12.473  20.561  0.00  0.00    +0.000 A 
ATOM     11  N   UNL     1      -3.412  12.764  21.701  0.00  0.00    +0.000 NA
ATOM     12  C   UNL     1      -2.846  12.311  22.837  0.00  0.00    +0.000 A 
ATOM     13  C   UNL     1      -1.660  11.568  22.945  0.00  0.00    +0.000 A 
ATOM     14  C   UNL     1      -0.954  11.287  21.784  0.00  0.00    +0.000 A 
ENDROOT
BRANCH   1  16
ATOM     15  N   UNL     1       2.796   6.443  19.638  0.00  0.00    +0.000 N 
ATOM     16  C   UNL     1       1.662   6.735  20.385  0.00  0.00    +0.000 C 
ATOM     17  O   UNL     1       0.784   5.934  20.646  0.00  0.00    +0.000 OA
ATOM     18  H   UNL     1       3.357   7.218  19.310  0.00  0.00    +0.000 HD
BRANCH  15  19
ATOM     19  C   UNL     1       3.033   5.141  19.013  0.00  0.00    +0.000 C 
ATOM     20  C   UNL     1       3.453   4.091  20.045  0.00  0.00    +0.000 C 
BRANCH  19  25
ATOM     21  C   UNL     1       5.919   6.412  16.792  0.00  0.00    +0.000 A 
ATOM     22  C   UNL     1       5.981   5.403  15.827  0.00  0.00    +0.000 A 
ATOM     23  C   UNL     1       5.105   4.317  15.894  0.00  0.00    +0.000 A 
ATOM     24  C   UNL     1       4.162   4.239  16.913  0.00  0.00    +0.000 A 
ATOM     25  C   UNL     1       4.072   5.244  17.896  0.00  0.00    +0.000 A 
ATOM     26  C   UNL     1       4.973   6.327  17.820  0.00  0.00    +0.000 A 
BRANCH  21  28
ATOM     27  C   UNL     1       7.695   7.709  17.705  0.00  0.00    +0.000 C 
ATOM     28  O   UNL     1       6.831   7.416  16.615  0.00  0.00    +0.000 OA
ENDBRANCH  21  28
ENDBRANCH  19  25
ENDBRANCH  15  19
ENDBRANCH   1  16
BRANCH   7  29
ATOM     29  C   UNL     1       1.292  12.217  18.507  0.00  0.00    +0.000 C 
ATOM     30  C   UNL     1       1.447  13.739  18.500  0.00  0.00    +0.000 C 
ATOM     31  C   UNL     1       2.653  12.853  18.589  0.00  0.00    +0.000 C 
ENDBRANCH   7  29
TORSDOF 5
ENDMDL
MODEL 9
REMARK VINA RESULT:      -7.4      4.618      8.150
REMARK  Name = 
REMARK  7 active torsions:
REMARK  status: ('A' for Active; 'I' for Inactive)
REMARK    1  A    between atoms: C_1  and  O_2
REMARK    2  A    between atoms: O_2  and  C_3
REMARK    3  A    between atoms: C_7  and  C_8
REMARK    4  A    between atoms: C_8  and  C_9
REMARK    5  A    between atoms: C_8  and  N_10
REMARK    6  A    between atoms: C_11  and  C_13
REMARK    7  A    between atoms: C_19  and  C_20
REMARK                            x       y       z     vdW  Elec       q    Type
REMARK                         _______ _______ _______ _____ _____    ______ ____
ROOT
ATOM      1  C   UNL     1       1.371   9.283  18.323  0.00  0.00    +0.000 A 
ATOM      2  C   UNL     1       2.087  10.461  18.070  0.00  0.00    +0.000 A 
ATOM      3  C   UNL     1       1.449  11.699  18.290  0.00  0.00    +0.000 A 
ATOM      4  C   UNL     1       0.097  11.693  18.596  0.00  0.00    +0.000 A 
ATOM      5  C   UNL     1      -0.623  10.573  18.152  0.00  0.00    +0.000 A 
ATOM      6  C   UNL     1      -0.024   9.327  18.284  0.00  0.00    +0.000 A 
ATOM      7  C   UNL     1      -2.044  10.968  17.894  0.00  0.00    +0.000 C 
ATOM      8  O   UNL     1      -2.661  11.094  19.168  0.00  0.00    +0.000 OA
ATOM      9  C   UNL     1      -2.081  12.205  19.743  0.00  0.00    +0.000 A 
ATOM     10  C   UNL     1      -2.904  12.937  20.577  0.00  0.00    +0.000 A 
ATOM     11  N   UNL     1      -2.518  14.113  21.122  0.00  0.00    +0.000 NA
ATOM     12  C   UNL     1      -1.266  14.511  20.821  0.00  0.00    +0.000 A 
ATOM     13  C   UNL     1      -0.338  13.826  20.022  0.00  0.00    +0.000 A 
ATOM     14  C   UNL     1      -0.733  12.631  19.436  0.00  0.00    +0.000 A 
ENDROOT
BRANCH   1  16
ATOM     15  N   UNL     1       2.539   7.261  17.681  0.00  0.00    +0.000 N 
ATOM     16  C   UNL     1       2.112   8.056  18.737  0.00  0.00    +0.000 C 
ATOM     17  O   UNL     1       2.221   7.757  19.912  0.00  0.00    +0.000 OA
ATOM     18  H   UNL     1       2.224   7.503  16.752  0.00  0.00    +0.000 HD
BRANCH  15  19
ATOM     19  C   UNL     1       3.113   5.927  17.861  0.00  0.00    +0.000 C 
ATOM     20  C   UNL     1       2.414   5.161  18.987  0.00  0.00    +0.000 C 
BRANCH  19  25
ATOM     21  C   UNL     1       6.821   6.969  17.656  0.00  0.00    +0.000 A 
ATOM     22  C   UNL     1       7.392   6.119  18.607  0.00  0.00    +0.000 A 
ATOM     23  C   UNL     1       6.590   5.221  19.314  0.00  0.00    +0.000 A 
ATOM     24  C   UNL     1       5.222   5.161  19.071  0.00  0.00    +0.000 A 
ATOM     25  C   UNL     1       4.619   6.001  18.115  0.00  0.00    +0.000 A 
ATOM     26  C   UNL     1       5.443   6.910  17.418  0.00  0.00    +0.000 A 
BRANCH  21  28
ATOM     27  C   UNL     1       8.182   8.918  17.777  0.00  0.00    +0.000 C 
ATOM     28  O   UNL     1       7.713   7.799  17.036  0.00  0.00    +0.000 OA
ENDBRANCH  21  28
ENDBRANCH  19  25
ENDBRANCH  15  19
ENDBRANCH   1  16
BRANCH   7  29
ATOM     29  C   UNL     1      -2.906  10.310  16.879  0.00  0.00    +0.000 C 
ATOM     30  C   UNL     1      -3.513  11.254  15.840  0.00  0.00    +0.000 C 
ATOM     31  C   UNL     1      -2.633  10.120  15.412  0.00  0.00    +0.000 C 
ENDBRANCH   7  29
TORSDOF 5
ENDMDL
