MODEL 1
REMARK VINA RESULT:      -8.8      0.000      0.000
REMARK  Name = 
REMARK  9 active torsions:
REMARK  status: ('A' for Active; 'I' for Inactive)
REMARK    1  A    between atoms: C_2  and  C_3
REMARK    2  A    between atoms: C_6  and  C_7
REMARK    3  A    between atoms: C_7  and  O_8
REMARK    4  A    between atoms: O_8  and  C_9
REMARK    5  A    between atoms: C_14  and  S_15
REMARK    6  A    between atoms: S_15  and  N_18
REMARK    7  A    between atoms: N_18  and  C_19
REMARK    8  A    between atoms: C_24  and  C_25
REMARK    9  A    between atoms: C_25  and  O_27
REMARK                            x       y       z     vdW  Elec       q    Type
REMARK                         _______ _______ _______ _____ _____    ______ ____
ROOT
ATOM      1  C   UNL     1       0.895  10.403  19.729  0.00  0.00    +0.000 A 
ATOM      2  C   UNL     1       1.425  10.380  18.440  0.00  0.00    +0.000 A 
ATOM      3  C   UNL     1       1.900   9.182  17.889  0.00  0.00    +0.000 A 
ATOM      4  C   UNL     1       1.893   7.989  18.637  0.00  0.00    +0.000 A 
ATOM      5  C   UNL     1       2.303   6.748  18.102  0.00  0.00    +0.000 A 
ATOM      6  C   UNL     1       2.313   5.601  18.908  0.00  0.00    +0.000 A 
ATOM      7  C   UNL     1       2.002   5.697  20.267  0.00  0.00    +0.000 A 
ATOM      8  C   UNL     1       1.548   6.907  20.789  0.00  0.00    +0.000 A 
ATOM      9  C   UNL     1       1.456   8.047  19.982  0.00  0.00    +0.000 A 
ATOM     10  C   UNL     1       0.940   9.244  20.503  0.00  0.00    +0.000 A 
ENDROOT
BRANCH   6  11
ATOM     11  S   UNL     1       2.799   4.022  18.233  0.00  0.00    +0.000 S 
ATOM     12  O   UNL     1       3.042   3.145  19.358  0.00  0.00    +0.000 OA
ATOM     13  O   UNL     1       1.864   3.665  17.188  0.00  0.00    +0.000 OA
BRANCH  11  14
ATOM     14  N   UNL     1       4.300   4.281  17.508  0.00  0.00    +0.000 NA
ATOM     15  H   UNL     1       4.340   3.945  16.546  0.00  0.00    +0.000 HD
BRANCH  14  16
ATOM     16  C   UNL     1       5.220   5.355  17.954  0.00  0.00    +0.000 C 
ATOM     17  C   UNL     1       6.065   4.847  19.128  0.00  0.00    +0.000 C 
ATOM     18  C   UNL     1       7.191   5.781  19.546  0.00  0.00    +0.000 C 
ATOM     19  C   UNL     1       8.041   6.177  18.356  0.00  0.00    +0.000 C 
ATOM     20  C   UNL     1       7.170   6.906  17.337  0.00  0.00    +0.000 C 
ATOM     21  C   UNL     1       6.051   5.986  16.797  0.00  0.00    +0.000 C 
BRANCH  21  22
ATOM     22  C   UNL     1       6.696   5.027  15.814  0.00  0.00    +0.000 C 
ATOM     23  O   UNL     1       6.497   3.832  15.689  0.00  0.00    +0.000 OA
BRANCH  22  24
ATOM     24  O   UNL     1       7.600   5.656  15.026  0.00  0.00    +0.000 OA
ATOM     25  H   UNL     1       8.297   4.996  14.832  0.00  0.00    +0.000 HD
ENDBRANCH  22  24
ENDBRANCH  21  22
ENDBRANCH  14  16
ENDBRANCH  11  14
ENDBRANCH   6  11
BRANCH   1  26
ATOM     26  O   UNL     1       0.383  11.601  20.149  0.00  0.00    +0.000 OA
BRANCH  26  27
ATOM     27  C   UNL     1      -0.237  12.393  19.126  0.00  0.00    +0.000 C 
BRANCH  27  31
ATOM     28  C   UNL     1      -4.516  11.851  18.952  0.00  0.00    +0.000 A 
ATOM     29  C   UNL     1      -3.961  12.601  19.997  0.00  0.00    +0.000 A 
ATOM     30  C   UNL     1      -2.573  12.776  20.073  0.00  0.00    +0.000 A 
ATOM     31  C   UNL     1      -1.732  12.191  19.117  0.00  0.00    +0.000 A 
ATOM     32  C   UNL     1      -2.315  11.462  18.085  0.00  0.00    +0.000 A 
ATOM     33  F   UNL     1      -1.533  10.915  17.130  0.00  0.00    +0.000 F 
ATOM     34  C   UNL     1      -3.689  11.277  17.991  0.00  0.00    +0.000 A 
BRANCH  28  36
ATOM     35  N   UNL     1      -7.083  11.539  18.812  0.00  0.00    +0.000 NA
ATOM     36  C   UNL     1      -5.937  11.677  18.880  0.00  0.00    +0.000 C 
ENDBRANCH  28  36
ENDBRANCH  27  31
ENDBRANCH  26  27
ENDBRANCH   1  26
TORSDOF 9
ENDMDL
MODEL 2
REMARK VINA RESULT:      -8.6      3.185      9.939
REMARK  Name = 
REMARK  9 active torsions:
REMARK  status: ('A' for Active; 'I' for Inactive)
REMARK    1  A    between atoms: C_2  and  C_3
REMARK    2  A    between atoms: C_6  and  C_7
REMARK    3  A    between atoms: C_7  and  O_8
REMARK    4  A    between atoms: O_8  and  C_9
REMARK    5  A    between atoms: C_14  and  S_15
REMARK    6  A    between atoms: S_15  and  N_18
REMARK    7  A    between atoms: N_18  and  C_19
REMARK    8  A    between atoms: C_24  and  C_25
REMARK    9  A    between atoms: C_25  and  O_27
REMARK                            x       y       z     vdW  Elec       q    Type
REMARK                         _______ _______ _______ _____ _____    ______ ____
ROOT
ATOM      1  C   UNL     1       2.444   5.355  19.407  0.00  0.00    +0.000 A 
ATOM      2  C   UNL     1       1.888   5.713  20.634  0.00  0.00    +0.000 A 
ATOM      3  C   UNL     1       1.409   7.014  20.843  0.00  0.00    +0.000 A 
ATOM      4  C   UNL     1       1.518   7.995  19.839  0.00  0.00    +0.000 A 
ATOM      5  C   UNL     1       0.993   9.299  19.982  0.00  0.00    +0.000 A 
ATOM      6  C   UNL     1       1.168  10.245  18.963  0.00  0.00    +0.000 A 
ATOM      7  C   UNL     1       1.937   9.931  17.839  0.00  0.00    +0.000 A 
ATOM      8  C   UNL     1       2.413   8.633  17.667  0.00  0.00    +0.000 A 
ATOM      9  C   UNL     1       2.183   7.650  18.638  0.00  0.00    +0.000 A 
ATOM     10  C   UNL     1       2.615   6.331  18.426  0.00  0.00    +0.000 A 
ENDROOT
BRANCH   6  11
ATOM     11  S   UNL     1       0.483  11.885  19.120  0.00  0.00    +0.000 S 
ATOM     12  O   UNL     1       0.034  12.020  20.488  0.00  0.00    +0.000 OA
ATOM     13  O   UNL     1       1.414  12.827  18.535  0.00  0.00    +0.000 OA
BRANCH  11  14
ATOM     14  N   UNL     1      -0.910  11.888  18.167  0.00  0.00    +0.000 NA
ATOM     15  H   UNL     1      -0.712  11.998  17.173  0.00  0.00    +0.000 HD
BRANCH  14  16
ATOM     16  C   UNL     1      -2.167  11.231  18.601  0.00  0.00    +0.000 C 
ATOM     17  C   UNL     1      -3.209  12.301  18.944  0.00  0.00    +0.000 C 
ATOM     18  C   UNL     1      -4.607  11.761  19.206  0.00  0.00    +0.000 C 
ATOM     19  C   UNL     1      -5.062  10.857  18.078  0.00  0.00    +0.000 C 
ATOM     20  C   UNL     1      -4.105   9.673  17.965  0.00  0.00    +0.000 C 
ATOM     21  C   UNL     1      -2.675  10.141  17.610  0.00  0.00    +0.000 C 
BRANCH  21  22
ATOM     22  C   UNL     1      -2.675  10.500  16.136  0.00  0.00    +0.000 C 
ATOM     23  O   UNL     1      -2.559  11.602  15.631  0.00  0.00    +0.000 OA
BRANCH  22  24
ATOM     24  O   UNL     1      -2.842   9.405  15.357  0.00  0.00    +0.000 OA
ATOM     25  H   UNL     1      -3.532   8.864  15.794  0.00  0.00    +0.000 HD
ENDBRANCH  22  24
ENDBRANCH  21  22
ENDBRANCH  14  16
ENDBRANCH  11  14
ENDBRANCH   6  11
BRANCH   1  26
ATOM     26  O   UNL     1       2.809   4.042  19.272  0.00  0.00    +0.000 OA
BRANCH  26  27
ATOM     27  C   UNL     1       4.205   3.773  19.464  0.00  0.00    +0.000 C 
BRANCH  27  31
ATOM     28  C   UNL     1       6.462   4.759  15.920  0.00  0.00    +0.000 A 
ATOM     29  C   UNL     1       5.301   3.985  15.801  0.00  0.00    +0.000 A 
ATOM     30  C   UNL     1       4.564   3.647  16.943  0.00  0.00    +0.000 A 
ATOM     31  C   UNL     1       4.991   4.066  18.211  0.00  0.00    +0.000 A 
ATOM     32  C   UNL     1       6.141   4.844  18.295  0.00  0.00    +0.000 A 
ATOM     33  F   UNL     1       6.559   5.291  19.498  0.00  0.00    +0.000 F 
ATOM     34  C   UNL     1       6.887   5.190  17.174  0.00  0.00    +0.000 A 
BRANCH  28  36
ATOM     35  N   UNL     1       7.816   5.366  13.798  0.00  0.00    +0.000 NA
ATOM     36  C   UNL     1       7.211   5.101  14.747  0.00  0.00    +0.000 C 
ENDBRANCH  28  36
ENDBRANCH  27  31
ENDBRANCH  26  27
ENDBRANCH   1  26
TORSDOF 9
ENDMDL
MODEL 3
REMARK VINA RESULT:      -8.5      1.011      1.305
REMARK  Name = 
REMARK  9 active torsions:
REMARK  status: ('A' for Active; 'I' for Inactive)
REMARK    1  A    between atoms: C_2  and  C_3
REMARK    2  A    between atoms: C_6  and  C_7
REMARK    3  A    between atoms: C_7  and  O_8
REMARK    4  A    between atoms: O_8  and  C_9
REMARK    5  A    between atoms: C_14  and  S_15
REMARK    6  A    between atoms: S_15  and  N_18
REMARK    7  A    between atoms: N_18  and  C_19
REMARK    8  A    between atoms: C_24  and  C_25
REMARK    9  A    between atoms: C_25  and  O_27
REMARK                            x       y       z     vdW  Elec       q    Type
REMARK                         _______ _______ _______ _____ _____    ______ ____
ROOT
ATOM      1  C   UNL     1       0.893   9.783  19.713  0.00  0.00    +0.000 A 
ATOM      2  C   UNL     1       1.449   9.739  18.436  0.00  0.00    +0.000 A 
ATOM      3  C   UNL     1       1.996   8.547  17.941  0.00  0.00    +0.000 A 
ATOM      4  C   UNL     1       2.037   7.385  18.735  0.00  0.00    +0.000 A 
ATOM      5  C   UNL     1       2.520   6.147  18.257  0.00  0.00    +0.000 A 
ATOM      6  C   UNL     1       2.573   5.035  19.107  0.00  0.00    +0.000 A 
ATOM      7  C   UNL     1       2.231   5.166  20.455  0.00  0.00    +0.000 A 
ATOM      8  C   UNL     1       1.704   6.370  20.922  0.00  0.00    +0.000 A 
ATOM      9  C   UNL     1       1.570   7.472  20.069  0.00  0.00    +0.000 A 
ATOM     10  C   UNL     1       0.982   8.660  20.533  0.00  0.00    +0.000 A 
ENDROOT
BRANCH   6  11
ATOM     11  S   UNL     1       3.153   3.458  18.504  0.00  0.00    +0.000 S 
ATOM     12  O   UNL     1       3.018   2.519  19.596  0.00  0.00    +0.000 OA
ATOM     13  O   UNL     1       2.542   3.210  17.216  0.00  0.00    +0.000 OA
BRANCH  11  14
ATOM     14  N   UNL     1       4.811   3.650  18.254  0.00  0.00    +0.000 NA
ATOM     15  H   UNL     1       5.201   2.949  17.625  0.00  0.00    +0.000 HD
BRANCH  14  16
ATOM     16  C   UNL     1       5.489   4.960  18.414  0.00  0.00    +0.000 C 
ATOM     17  C   UNL     1       6.852   4.748  19.081  0.00  0.00    +0.000 C 
ATOM     18  C   UNL     1       7.737   5.986  19.116  0.00  0.00    +0.000 C 
ATOM     19  C   UNL     1       7.861   6.606  17.739  0.00  0.00    +0.000 C 
ATOM     20  C   UNL     1       6.477   7.021  17.248  0.00  0.00    +0.000 C 
ATOM     21  C   UNL     1       5.544   5.798  17.101  0.00  0.00    +0.000 C 
BRANCH  21  22
ATOM     22  C   UNL     1       5.961   5.067  15.838  0.00  0.00    +0.000 C 
ATOM     23  O   UNL     1       6.219   3.885  15.704  0.00  0.00    +0.000 OA
BRANCH  22  24
ATOM     24  O   UNL     1       6.042   5.909  14.781  0.00  0.00    +0.000 OA
ATOM     25  H   UNL     1       5.806   5.379  13.992  0.00  0.00    +0.000 HD
ENDBRANCH  22  24
ENDBRANCH  21  22
ENDBRANCH  14  16
ENDBRANCH  11  14
ENDBRANCH   6  11
BRANCH   1  26
ATOM     26  O   UNL     1       0.312  10.969  20.077  0.00  0.00    +0.000 OA
BRANCH  26  27
ATOM     27  C   UNL     1      -0.099  11.807  18.988  0.00  0.00    +0.000 C 
BRANCH  27  31
ATOM     28  C   UNL     1      -4.362  11.427  18.428  0.00  0.00    +0.000 A 
ATOM     29  C   UNL     1      -3.493  10.759  17.556  0.00  0.00    +0.000 A 
ATOM     30  C   UNL     1      -2.107  10.882  17.718  0.00  0.00    +0.000 A 
ATOM     31  C   UNL     1      -1.581  11.684  18.740  0.00  0.00    +0.000 A 
ATOM     32  C   UNL     1      -2.471  12.324  19.597  0.00  0.00    +0.000 A 
ATOM     33  F   UNL     1      -1.995  13.076  20.612  0.00  0.00    +0.000 F 
ATOM     34  C   UNL     1      -3.849  12.216  19.454  0.00  0.00    +0.000 A 
BRANCH  28  36
ATOM     35  N   UNL     1      -6.921  11.197  18.110  0.00  0.00    +0.000 NA
ATOM     36  C   UNL     1      -5.778  11.296  18.257  0.00  0.00    +0.000 C 
ENDBRANCH  28  36
ENDBRANCH  27  31
ENDBRANCH  26  27
ENDBRANCH   1  26
TORSDOF 9
ENDMDL
MODEL 4
REMARK VINA RESULT:      -8.4      2.193      2.504
REMARK  Name = 
REMARK  9 active torsions:
REMARK  status: ('A' for Active; 'I' for Inactive)
REMARK    1  A    between atoms: C_2  and  C_3
REMARK    2  A    between atoms: C_6  and  C_7
REMARK    3  A    between atoms: C_7  and  O_8
REMARK    4  A    between atoms: O_8  and  C_9
REMARK    5  A    between atoms: C_14  and  S_15
REMARK    6  A    between atoms: S_15  and  N_18
REMARK    7  A    between atoms: N_18  and  C_19
REMARK    8  A    between atoms: C_24  and  C_25
REMARK    9  A    between atoms: C_25  and  O_27
REMARK                            x       y       z     vdW  Elec       q    Type
REMARK                         _______ _______ _______ _____ _____    ______ ____
ROOT
ATOM      1  C   UNL     1       0.879   9.621  19.370  0.00  0.00    +0.000 A 
ATOM      2  C   UNL     1       1.621   9.596  18.190  0.00  0.00    +0.000 A 
ATOM      3  C   UNL     1       2.352   8.454  17.835  0.00  0.00    +0.000 A 
ATOM      4  C   UNL     1       2.388   7.327  18.679  0.00  0.00    +0.000 A 
ATOM      5  C   UNL     1       3.058   6.133  18.333  0.00  0.00    +0.000 A 
ATOM      6  C   UNL     1       3.094   5.058  19.232  0.00  0.00    +0.000 A 
ATOM      7  C   UNL     1       2.543   5.194  20.508  0.00  0.00    +0.000 A 
ATOM      8  C   UNL     1       1.835   6.349  20.838  0.00  0.00    +0.000 A 
ATOM      9  C   UNL     1       1.721   7.405  19.925  0.00  0.00    +0.000 A 
ATOM     10  C   UNL     1       0.956   8.538  20.244  0.00  0.00    +0.000 A 
ENDROOT
BRANCH   6  11
ATOM     11  S   UNL     1       3.911   3.534  18.793  0.00  0.00    +0.000 S 
ATOM     12  O   UNL     1       3.790   2.653  19.933  0.00  0.00    +0.000 OA
ATOM     13  O   UNL     1       3.455   3.134  17.478  0.00  0.00    +0.000 OA
BRANCH  11  14
ATOM     14  N   UNL     1       5.550   3.917  18.668  0.00  0.00    +0.000 NA
ATOM     15  H   UNL     1       6.096   3.186  18.214  0.00  0.00    +0.000 HD
BRANCH  14  16
ATOM     16  C   UNL     1       6.036   5.319  18.655  0.00  0.00    +0.000 C 
ATOM     17  C   UNL     1       7.504   5.352  19.097  0.00  0.00    +0.000 C 
ATOM     18  C   UNL     1       8.183   6.704  18.930  0.00  0.00    +0.000 C 
ATOM     19  C   UNL     1       7.994   7.238  17.524  0.00  0.00    +0.000 C 
ATOM     20  C   UNL     1       6.503   7.415  17.250  0.00  0.00    +0.000 C 
ATOM     21  C   UNL     1       5.757   6.063  17.315  0.00  0.00    +0.000 C 
BRANCH  21  22
ATOM     22  C   UNL     1       6.078   5.314  16.034  0.00  0.00    +0.000 C 
ATOM     23  O   UNL     1       6.597   4.219  15.914  0.00  0.00    +0.000 OA
BRANCH  22  24
ATOM     24  O   UNL     1       5.721   6.026  14.939  0.00  0.00    +0.000 OA
ATOM     25  H   UNL     1       4.934   6.547  15.198  0.00  0.00    +0.000 HD
ENDBRANCH  22  24
ENDBRANCH  21  22
ENDBRANCH  14  16
ENDBRANCH  11  14
ENDBRANCH   6  11
BRANCH   1  26
ATOM     26  O   UNL     1       0.135  10.749  19.590  0.00  0.00    +0.000 OA
BRANCH  26  27
ATOM     27  C   UNL     1       0.428  11.445  20.809  0.00  0.00    +0.000 C 
BRANCH  27  31
ATOM     28  C   UNL     1      -3.230  12.589  22.793  0.00  0.00    +0.000 A 
ATOM     29  C   UNL     1      -2.914  13.160  21.553  0.00  0.00    +0.000 A 
ATOM     30  C   UNL     1      -1.725  12.807  20.903  0.00  0.00    +0.000 A 
ATOM     31  C   UNL     1      -0.838  11.896  21.493  0.00  0.00    +0.000 A 
ATOM     32  C   UNL     1      -1.187  11.337  22.719  0.00  0.00    +0.000 A 
ATOM     33  F   UNL     1      -0.369  10.431  23.296  0.00  0.00    +0.000 F 
ATOM     34  C   UNL     1      -2.362  11.673  23.380  0.00  0.00    +0.000 A 
BRANCH  28  36
ATOM     35  N   UNL     1      -5.438  13.240  23.980  0.00  0.00    +0.000 NA
ATOM     36  C   UNL     1      -4.449  12.954  23.452  0.00  0.00    +0.000 C 
ENDBRANCH  28  36
ENDBRANCH  27  31
ENDBRANCH  26  27
ENDBRANCH   1  26
TORSDOF 9
ENDMDL
MODEL 5
REMARK VINA RESULT:      -8.4      1.115      1.362
REMARK  Name = 
REMARK  9 active torsions:
REMARK  status: ('A' for Active; 'I' for Inactive)
REMARK    1  A    between atoms: C_2  and  C_3
REMARK    2  A    between atoms: C_6  and  C_7
REMARK    3  A    between atoms: C_7  and  O_8
REMARK    4  A    between atoms: O_8  and  C_9
REMARK    5  A    between atoms: C_14  and  S_15
REMARK    6  A    between atoms: S_15  and  N_18
REMARK    7  A    between atoms: N_18  and  C_19
REMARK    8  A    between atoms: C_24  and  C_25
REMARK    9  A    between atoms: C_25  and  O_27
REMARK                            x       y       z     vdW  Elec       q    Type
REMARK                         _______ _______ _______ _____ _____    ______ ____
ROOT
ATOM      1  C   UNL     1       0.994  10.445  19.777  0.00  0.00    +0.000 A 
ATOM      2  C   UNL     1       1.485  10.417  18.473  0.00  0.00    +0.000 A 
ATOM      3  C   UNL     1       1.921   9.212  17.904  0.00  0.00    +0.000 A 
ATOM      4  C   UNL     1       1.912   8.017  18.649  0.00  0.00    +0.000 A 
ATOM      5  C   UNL     1       2.281   6.769  18.098  0.00  0.00    +0.000 A 
ATOM      6  C   UNL     1       2.291   5.620  18.900  0.00  0.00    +0.000 A 
ATOM      7  C   UNL     1       2.022   5.717  20.267  0.00  0.00    +0.000 A 
ATOM      8  C   UNL     1       1.607   6.933  20.806  0.00  0.00    +0.000 A 
ATOM      9  C   UNL     1       1.515   8.079  20.006  0.00  0.00    +0.000 A 
ATOM     10  C   UNL     1       1.038   9.284  20.545  0.00  0.00    +0.000 A 
ENDROOT
BRANCH   6  11
ATOM     11  S   UNL     1       2.726   4.034  18.207  0.00  0.00    +0.000 S 
ATOM     12  O   UNL     1       2.940   3.137  19.320  0.00  0.00    +0.000 OA
ATOM     13  O   UNL     1       1.780   3.720  17.157  0.00  0.00    +0.000 OA
BRANCH  11  14
ATOM     14  N   UNL     1       4.235   4.252  17.484  0.00  0.00    +0.000 NA
ATOM     15  H   UNL     1       4.272   3.904  16.526  0.00  0.00    +0.000 HD
BRANCH  14  16
ATOM     16  C   UNL     1       5.176   5.313  17.920  0.00  0.00    +0.000 C 
ATOM     17  C   UNL     1       6.017   4.797  19.093  0.00  0.00    +0.000 C 
ATOM     18  C   UNL     1       7.161   5.713  19.501  0.00  0.00    +0.000 C 
ATOM     19  C   UNL     1       8.011   6.089  18.305  0.00  0.00    +0.000 C 
ATOM     20  C   UNL     1       7.148   6.827  17.286  0.00  0.00    +0.000 C 
ATOM     21  C   UNL     1       6.011   5.924  16.756  0.00  0.00    +0.000 C 
BRANCH  21  22
ATOM     22  C   UNL     1       6.635   4.949  15.775  0.00  0.00    +0.000 C 
ATOM     23  O   UNL     1       6.370   3.771  15.614  0.00  0.00    +0.000 OA
BRANCH  22  24
ATOM     24  O   UNL     1       7.606   5.538  15.037  0.00  0.00    +0.000 OA
ATOM     25  H   UNL     1       7.644   5.043  14.193  0.00  0.00    +0.000 HD
ENDBRANCH  22  24
ENDBRANCH  21  22
ENDBRANCH  14  16
ENDBRANCH  11  14
ENDBRANCH   6  11
BRANCH   1  26
ATOM     26  O   UNL     1       0.518  11.653  20.215  0.00  0.00    +0.000 OA
BRANCH  26  27
ATOM     27  C   UNL     1      -0.509  12.236  19.402  0.00  0.00    +0.000 C 
BRANCH  27  31
ATOM     28  C   UNL     1      -4.235  12.765  21.515  0.00  0.00    +0.000 A 
ATOM     29  C   UNL     1      -3.027  12.889  22.213  0.00  0.00    +0.000 A 
ATOM     30  C   UNL     1      -1.810  12.708  21.543  0.00  0.00    +0.000 A 
ATOM     31  C   UNL     1      -1.793  12.388  20.179  0.00  0.00    +0.000 A 
ATOM     32  C   UNL     1      -3.010  12.285  19.511  0.00  0.00    +0.000 A 
ATOM     33  F   UNL     1      -3.024  12.011  18.190  0.00  0.00    +0.000 F 
ATOM     34  C   UNL     1      -4.228  12.460  20.157  0.00  0.00    +0.000 A 
BRANCH  28  36
ATOM     35  N   UNL     1      -6.479  13.112  22.761  0.00  0.00    +0.000 NA
ATOM     36  C   UNL     1      -5.477  12.952  22.207  0.00  0.00    +0.000 C 
ENDBRANCH  28  36
ENDBRANCH  27  31
ENDBRANCH  26  27
ENDBRANCH   1  26
TORSDOF 9
ENDMDL
MODEL 6
REMARK VINA RESULT:      -8.3      3.113      9.888
REMARK  Name = 
REMARK  9 active torsions:
REMARK  status: ('A' for Active; 'I' for Inactive)
REMARK    1  A    between atoms: C_2  and  C_3
REMARK    2  A    between atoms: C_6  and  C_7
REMARK    3  A    between atoms: C_7  and  O_8
REMARK    4  A    between atoms: O_8  and  C_9
REMARK    5  A    between atoms: C_14  and  S_15
REMARK    6  A    between atoms: S_15  and  N_18
REMARK    7  A    between atoms: N_18  and  C_19
REMARK    8  A    between atoms: C_24  and  C_25
REMARK    9  A    between atoms: C_25  and  O_27
REMARK                            x       y       z     vdW  Elec       q    Type
REMARK                         _______ _______ _______ _____ _____    ______ ____
ROOT
ATOM      1  C   UNL     1       2.558   5.285  19.442  0.00  0.00    +0.000 A 
ATOM      2  C   UNL     1       2.018   5.642  20.676  0.00  0.00    +0.000 A 
ATOM      3  C   UNL     1       1.526   6.938  20.886  0.00  0.00    +0.000 A 
ATOM      4  C   UNL     1       1.606   7.915  19.875  0.00  0.00    +0.000 A 
ATOM      5  C   UNL     1       1.066   9.213  20.020  0.00  0.00    +0.000 A 
ATOM      6  C   UNL     1       1.213  10.156  18.994  0.00  0.00    +0.000 A 
ATOM      7  C   UNL     1       1.967   9.846  17.860  0.00  0.00    +0.000 A 
ATOM      8  C   UNL     1       2.458   8.552  17.686  0.00  0.00    +0.000 A 
ATOM      9  C   UNL     1       2.256   7.572  18.666  0.00  0.00    +0.000 A 
ATOM     10  C   UNL     1       2.701   6.257  18.454  0.00  0.00    +0.000 A 
ENDROOT
BRANCH   6  11
ATOM     11  S   UNL     1       0.508  11.788  19.154  0.00  0.00    +0.000 S 
ATOM     12  O   UNL     1       0.024  11.902  20.511  0.00  0.00    +0.000 OA
ATOM     13  O   UNL     1       1.445  12.745  18.604  0.00  0.00    +0.000 OA
BRANCH  11  14
ATOM     14  N   UNL     1      -0.860  11.790  18.166  0.00  0.00    +0.000 NA
ATOM     15  H   UNL     1      -0.636  11.879  17.176  0.00  0.00    +0.000 HD
BRANCH  14  16
ATOM     16  C   UNL     1      -2.136  11.157  18.581  0.00  0.00    +0.000 C 
ATOM     17  C   UNL     1      -3.163  12.247  18.906  0.00  0.00    +0.000 C 
ATOM     18  C   UNL     1      -4.575  11.733  19.146  0.00  0.00    +0.000 C 
ATOM     19  C   UNL     1      -5.028  10.836  18.012  0.00  0.00    +0.000 C 
ATOM     20  C   UNL     1      -4.092   9.635  17.915  0.00  0.00    +0.000 C 
ATOM     21  C   UNL     1      -2.648  10.075  17.583  0.00  0.00    +0.000 C 
BRANCH  21  22
ATOM     22  C   UNL     1      -2.618  10.432  16.109  0.00  0.00    +0.000 C 
ATOM     23  O   UNL     1      -2.366  11.510  15.601  0.00  0.00    +0.000 OA
BRANCH  22  24
ATOM     24  O   UNL     1      -2.933   9.368  15.333  0.00  0.00    +0.000 OA
ATOM     25  H   UNL     1      -2.226   9.306  14.657  0.00  0.00    +0.000 HD
ENDBRANCH  22  24
ENDBRANCH  21  22
ENDBRANCH  14  16
ENDBRANCH  11  14
ENDBRANCH   6  11
BRANCH   1  26
ATOM     26  O   UNL     1       2.939   3.976  19.308  0.00  0.00    +0.000 OA
BRANCH  26  27
ATOM     27  C   UNL     1       4.343   3.728  19.464  0.00  0.00    +0.000 C 
BRANCH  27  31
ATOM     28  C   UNL     1       6.514   4.750  15.877  0.00  0.00    +0.000 A 
ATOM     29  C   UNL     1       7.008   5.166  17.120  0.00  0.00    +0.000 A 
ATOM     30  C   UNL     1       6.308   4.852  18.292  0.00  0.00    +0.000 A 
ATOM     31  C   UNL     1       5.105   4.136  18.229  0.00  0.00    +0.000 A 
ATOM     32  C   UNL     1       4.647   3.727  16.980  0.00  0.00    +0.000 A 
ATOM     33  F   UNL     1       3.509   3.007  16.889  0.00  0.00    +0.000 F 
ATOM     34  C   UNL     1       5.326   4.028  15.805  0.00  0.00    +0.000 A 
BRANCH  28  36
ATOM     35  N   UNL     1       7.808   5.338  13.712  0.00  0.00    +0.000 NA
ATOM     36  C   UNL     1       7.235   5.075  14.682  0.00  0.00    +0.000 C 
ENDBRANCH  28  36
ENDBRANCH  27  31
ENDBRANCH  26  27
ENDBRANCH   1  26
TORSDOF 9
ENDMDL
MODEL 7
REMARK VINA RESULT:      -8.3      1.603      1.926
REMARK  Name = 
REMARK  9 active torsions:
REMARK  status: ('A' for Active; 'I' for Inactive)
REMARK    1  A    between atoms: C_2  and  C_3
REMARK    2  A    between atoms: C_6  and  C_7
REMARK    3  A    between atoms: C_7  and  O_8
REMARK    4  A    between atoms: O_8  and  C_9
REMARK    5  A    between atoms: C_14  and  S_15
REMARK    6  A    between atoms: S_15  and  N_18
REMARK    7  A    between atoms: N_18  and  C_19
REMARK    8  A    between atoms: C_24  and  C_25
REMARK    9  A    between atoms: C_25  and  O_27
REMARK                            x       y       z     vdW  Elec       q    Type
REMARK                         _______ _______ _______ _____ _____    ______ ____
ROOT
ATOM      1  C   UNL     1       0.981  10.289  19.637  0.00  0.00    +0.000 A 
ATOM      2  C   UNL     1       1.474  10.192  18.337  0.00  0.00    +0.000 A 
ATOM      3  C   UNL     1       1.920   8.961  17.837  0.00  0.00    +0.000 A 
ATOM      4  C   UNL     1       1.920   7.809  18.646  0.00  0.00    +0.000 A 
ATOM      5  C   UNL     1       2.300   6.536  18.166  0.00  0.00    +0.000 A 
ATOM      6  C   UNL     1       2.319   5.433  19.031  0.00  0.00    +0.000 A 
ATOM      7  C   UNL     1       2.047   5.603  20.390  0.00  0.00    +0.000 A 
ATOM      8  C   UNL     1       1.621   6.845  20.861  0.00  0.00    +0.000 A 
ATOM      9  C   UNL     1       1.521   7.943  19.997  0.00  0.00    +0.000 A 
ATOM     10  C   UNL     1       1.033   9.172  20.469  0.00  0.00    +0.000 A 
ENDROOT
BRANCH   6  11
ATOM     11  S   UNL     1       2.767   3.814  18.427  0.00  0.00    +0.000 S 
ATOM     12  O   UNL     1       2.501   2.881  19.499  0.00  0.00    +0.000 OA
ATOM     13  O   UNL     1       2.185   3.640  17.113  0.00  0.00    +0.000 OA
BRANCH  11  14
ATOM     14  N   UNL     1       4.444   3.848  18.241  0.00  0.00    +0.000 NA
ATOM     15  H   UNL     1       4.794   3.093  17.651  0.00  0.00    +0.000 HD
BRANCH  14  16
ATOM     16  C   UNL     1       5.232   5.096  18.388  0.00  0.00    +0.000 C 
ATOM     17  C   UNL     1       6.509   4.801  19.182  0.00  0.00    +0.000 C 
ATOM     18  C   UNL     1       7.505   5.951  19.227  0.00  0.00    +0.000 C 
ATOM     19  C   UNL     1       7.801   6.470  17.835  0.00  0.00    +0.000 C 
ATOM     20  C   UNL     1       6.509   6.980  17.203  0.00  0.00    +0.000 C 
ATOM     21  C   UNL     1       5.476   5.842  17.042  0.00  0.00    +0.000 C 
BRANCH  21  22
ATOM     22  C   UNL     1       5.920   4.999  15.861  0.00  0.00    +0.000 C 
ATOM     23  O   UNL     1       6.055   3.790  15.809  0.00  0.00    +0.000 OA
BRANCH  22  24
ATOM     24  O   UNL     1       6.191   5.764  14.778  0.00  0.00    +0.000 OA
ATOM     25  H   UNL     1       5.708   5.357  14.030  0.00  0.00    +0.000 HD
ENDBRANCH  22  24
ENDBRANCH  21  22
ENDBRANCH  14  16
ENDBRANCH  11  14
ENDBRANCH   6  11
BRANCH   1  26
ATOM     26  O   UNL     1       0.495  11.515  20.007  0.00  0.00    +0.000 OA
BRANCH  26  27
ATOM     27  C   UNL     1      -0.087  11.571  21.317  0.00  0.00    +0.000 C 
BRANCH  27  31
ATOM     28  C   UNL     1      -4.216  12.824  21.241  0.00  0.00    +0.000 A 
ATOM     29  C   UNL     1      -3.533  12.636  20.032  0.00  0.00    +0.000 A 
ATOM     30  C   UNL     1      -2.190  12.241  20.041  0.00  0.00    +0.000 A 
ATOM     31  C   UNL     1      -1.516  12.046  21.254  0.00  0.00    +0.000 A 
ATOM     32  C   UNL     1      -2.226  12.229  22.438  0.00  0.00    +0.000 A 
ATOM     33  F   UNL     1      -1.614  12.017  23.622  0.00  0.00    +0.000 F 
ATOM     34  C   UNL     1      -3.559  12.621  22.451  0.00  0.00    +0.000 A 
BRANCH  28  36
ATOM     35  N   UNL     1      -6.701  13.551  21.200  0.00  0.00    +0.000 NA
ATOM     36  C   UNL     1      -5.591  13.228  21.224  0.00  0.00    +0.000 C 
ENDBRANCH  28  36
ENDBRANCH  27  31
ENDBRANCH  26  27
ENDBRANCH   1  26
TORSDOF 9
ENDMDL
MODEL 8
REMARK VINA RESULT:      -8.2      3.110      3.726
REMARK  Name = 
REMARK  9 active torsions:
REMARK  status: ('A' for Active; 'I' for Inactive)
REMARK    1  A    between atoms: C_2  and  C_3
REMARK    2  A    between atoms: C_6  and  C_7
REMARK    3  A    between atoms: C_7  and  O_8
REMARK    4  A    between atoms: O_8  and  C_9
REMARK    5  A    between atoms: C_14  and  S_15
REMARK    6  A    between atoms: S_15  and  N_18
REMARK    7  A    between atoms: N_18  and  C_19
REMARK    8  A    between atoms: C_24  and  C_25
REMARK    9  A    between atoms: C_25  and  O_27
REMARK                            x       y       z     vdW  Elec       q    Type
REMARK                         _______ _______ _______ _____ _____    ______ ____
ROOT
ATOM      1  C   UNL     1       0.920  10.655  19.768  0.00  0.00    +0.000 A 
ATOM      2  C   UNL     1       1.418  10.633  18.466  0.00  0.00    +0.000 A 
ATOM      3  C   UNL     1       1.857   9.430  17.895  0.00  0.00    +0.000 A 
ATOM      4  C   UNL     1       1.846   8.232  18.634  0.00  0.00    +0.000 A 
ATOM      5  C   UNL     1       2.219   6.987  18.080  0.00  0.00    +0.000 A 
ATOM      6  C   UNL     1       2.226   5.835  18.876  0.00  0.00    +0.000 A 
ATOM      7  C   UNL     1       1.949   5.925  20.243  0.00  0.00    +0.000 A 
ATOM      8  C   UNL     1       1.531   7.139  20.785  0.00  0.00    +0.000 A 
ATOM      9  C   UNL     1       1.441   8.288  19.989  0.00  0.00    +0.000 A 
ATOM     10  C   UNL     1       0.961   9.490  20.532  0.00  0.00    +0.000 A 
ENDROOT
BRANCH   6  11
ATOM     11  S   UNL     1       2.665   4.252  18.178  0.00  0.00    +0.000 S 
ATOM     12  O   UNL     1       2.963   3.375  19.289  0.00  0.00    +0.000 OA
ATOM     13  O   UNL     1       1.674   3.900  17.184  0.00  0.00    +0.000 OA
BRANCH  11  14
ATOM     14  N   UNL     1       4.127   4.501  17.373  0.00  0.00    +0.000 NA
ATOM     15  H   UNL     1       4.082   4.260  16.384  0.00  0.00    +0.000 HD
BRANCH  14  16
ATOM     16  C   UNL     1       5.138   5.477  17.851  0.00  0.00    +0.000 C 
ATOM     17  C   UNL     1       5.873   4.895  19.063  0.00  0.00    +0.000 C 
ATOM     18  C   UNL     1       7.074   5.709  19.523  0.00  0.00    +0.000 C 
ATOM     19  C   UNL     1       8.011   5.998  18.367  0.00  0.00    +0.000 C 
ATOM     20  C   UNL     1       7.266   6.803  17.306  0.00  0.00    +0.000 C 
ATOM     21  C   UNL     1       6.079   6.002  16.725  0.00  0.00    +0.000 C 
BRANCH  21  22
ATOM     22  C   UNL     1       6.658   4.968  15.778  0.00  0.00    +0.000 C 
ATOM     23  O   UNL     1       6.404   3.778  15.717  0.00  0.00    +0.000 OA
BRANCH  22  24
ATOM     24  O   UNL     1       7.570   5.516  14.941  0.00  0.00    +0.000 OA
ATOM     25  H   UNL     1       7.815   4.812  14.306  0.00  0.00    +0.000 HD
ENDBRANCH  22  24
ENDBRANCH  21  22
ENDBRANCH  14  16
ENDBRANCH  11  14
ENDBRANCH   6  11
BRANCH   1  26
ATOM     26  O   UNL     1       0.441  11.860  20.209  0.00  0.00    +0.000 OA
BRANCH  26  27
ATOM     27  C   UNL     1       1.428  12.747  20.753  0.00  0.00    +0.000 C 
BRANCH  27  31
ATOM     28  C   UNL     1       1.428  16.426  18.495  0.00  0.00    +0.000 A 
ATOM     29  C   UNL     1       2.480  15.516  18.325  0.00  0.00    +0.000 A 
ATOM     30  C   UNL     1       2.500  14.324  19.060  0.00  0.00    +0.000 A 
ATOM     31  C   UNL     1       1.479  14.040  19.977  0.00  0.00    +0.000 A 
ATOM     32  C   UNL     1       0.442  14.957  20.113  0.00  0.00    +0.000 A 
ATOM     33  F   UNL     1      -0.573  14.696  20.964  0.00  0.00    +0.000 F 
ATOM     34  C   UNL     1       0.403  16.146  19.394  0.00  0.00    +0.000 A 
BRANCH  28  36
ATOM     35  N   UNL     1       1.409  18.631  17.137  0.00  0.00    +0.000 NA
ATOM     36  C   UNL     1       1.414  17.644  17.739  0.00  0.00    +0.000 C 
ENDBRANCH  28  36
ENDBRANCH  27  31
ENDBRANCH  26  27
ENDBRANCH   1  26
TORSDOF 9
ENDMDL
MODEL 9
REMARK VINA RESULT:      -8.2      1.837      2.246
REMARK  Name = 
REMARK  9 active torsions:
REMARK  status: ('A' for Active; 'I' for Inactive)
REMARK    1  A    between atoms: C_2  and  C_3
REMARK    2  A    between atoms: C_6  and  C_7
REMARK    3  A    between atoms: C_7  and  O_8
REMARK    4  A    between atoms: O_8  and  C_9
REMARK    5  A    between atoms: C_14  and  S_15
REMARK    6  A    between atoms: S_15  and  N_18
REMARK    7  A    between atoms: N_18  and  C_19
REMARK    8  A    between atoms: C_24  and  C_25
REMARK    9  A    between atoms: C_25  and  O_27
REMARK                            x       y       z     vdW  Elec       q    Type
REMARK                         _______ _______ _______ _____ _____    ______ ____
ROOT
ATOM      1  C   UNL     1       1.122  11.125  19.677  0.00  0.00    +0.000 A 
ATOM      2  C   UNL     1       1.646  11.013  18.390  0.00  0.00    +0.000 A 
ATOM      3  C   UNL     1       2.004   9.758  17.877  0.00  0.00    +0.000 A 
ATOM      4  C   UNL     1       1.884   8.595  18.660  0.00  0.00    +0.000 A 
ATOM      5  C   UNL     1       2.172   7.304  18.163  0.00  0.00    +0.000 A 
ATOM      6  C   UNL     1       2.072   6.187  19.004  0.00  0.00    +0.000 A 
ATOM      7  C   UNL     1       1.773   6.353  20.358  0.00  0.00    +0.000 A 
ATOM      8  C   UNL     1       1.437   7.616  20.843  0.00  0.00    +0.000 A 
ATOM      9  C   UNL     1       1.454   8.735  20.001  0.00  0.00    +0.000 A 
ATOM     10  C   UNL     1       1.055   9.992  20.485  0.00  0.00    +0.000 A 
ENDROOT
BRANCH   6  11
ATOM     11  S   UNL     1       2.404   4.549  18.378  0.00  0.00    +0.000 S 
ATOM     12  O   UNL     1       2.640   3.704  19.528  0.00  0.00    +0.000 OA
ATOM     13  O   UNL     1       1.391   4.221  17.397  0.00  0.00    +0.000 OA
BRANCH  11  14
ATOM     14  N   UNL     1       3.880   4.662  17.568  0.00  0.00    +0.000 NA
ATOM     15  H   UNL     1       3.816   4.398  16.586  0.00  0.00    +0.000 HD
BRANCH  14  16
ATOM     16  C   UNL     1       4.962   5.571  18.019  0.00  0.00    +0.000 C 
ATOM     17  C   UNL     1       5.790   4.876  19.106  0.00  0.00    +0.000 C 
ATOM     18  C   UNL     1       7.056   5.620  19.508  0.00  0.00    +0.000 C 
ATOM     19  C   UNL     1       7.887   5.978  18.292  0.00  0.00    +0.000 C 
ATOM     20  C   UNL     1       7.071   6.883  17.374  0.00  0.00    +0.000 C 
ATOM     21  C   UNL     1       5.808   6.161  16.852  0.00  0.00    +0.000 C 
BRANCH  21  22
ATOM     22  C   UNL     1       6.261   5.192  15.775  0.00  0.00    +0.000 C 
ATOM     23  O   UNL     1       6.623   5.444  14.640  0.00  0.00    +0.000 OA
BRANCH  22  24
ATOM     24  O   UNL     1       6.214   3.910  16.209  0.00  0.00    +0.000 OA
ATOM     25  H   UNL     1       7.058   3.752  16.681  0.00  0.00    +0.000 HD
ENDBRANCH  22  24
ENDBRANCH  21  22
ENDBRANCH  14  16
ENDBRANCH  11  14
ENDBRANCH   6  11
BRANCH   1  26
ATOM     26  O   UNL     1       0.728  12.380  20.059  0.00  0.00    +0.000 OA
BRANCH  26  27
ATOM     27  C   UNL     1      -0.617  12.731  19.705  0.00  0.00    +0.000 C 
BRANCH  27  31
ATOM     28  C   UNL     1      -3.356  12.409  23.026  0.00  0.00    +0.000 A 
ATOM     29  C   UNL     1      -1.976  12.383  23.269  0.00  0.00    +0.000 A 
ATOM     30  C   UNL     1      -1.075  12.475  22.200  0.00  0.00    +0.000 A 
ATOM     31  C   UNL     1      -1.545  12.577  20.884  0.00  0.00    +0.000 A 
ATOM     32  C   UNL     1      -2.921  12.613  20.677  0.00  0.00    +0.000 A 
ATOM     33  F   UNL     1      -3.404  12.745  19.423  0.00  0.00    +0.000 F 
ATOM     34  C   UNL     1      -3.832  12.523  21.723  0.00  0.00    +0.000 A 
BRANCH  28  36
ATOM     35  N   UNL     1      -5.013  12.250  25.009  0.00  0.00    +0.000 NA
ATOM     36  C   UNL     1      -4.271  12.315  24.124  0.00  0.00    +0.000 C 
ENDBRANCH  28  36
ENDBRANCH  27  31
ENDBRANCH  26  27
ENDBRANCH   1  26
TORSDOF 9
ENDMDL
