MODEL 1
REMARK VINA RESULT:      -7.7      0.000      0.000
REMARK  Name = 
REMARK  6 active torsions:
REMARK  status: ('A' for Active; 'I' for Inactive)
REMARK    1  A    between atoms: C_1  and  C_2
REMARK    2  A    between atoms: N_9  and  C_10
REMARK    3  A    between atoms: C_10  and  C_11
REMARK    4  A    between atoms: C_11  and  C_12
REMARK    5  A    between atoms: C_12  and  C_13
REMARK    6  A    between atoms: C_13  and  C_14
REMARK                            x       y       z     vdW  Elec       q    Type
REMARK                         _______ _______ _______ _____ _____    ______ ____
ROOT
ATOM      1  C   UNL     1       7.914   7.059  18.303  0.00  0.00    +0.000 C 
ATOM      2  C   UNL     1       6.653   6.305  18.015  0.00  0.00    +0.000 A 
ATOM      3  C   UNL     1       5.878   6.609  16.891  0.00  0.00    +0.000 A 
ATOM      4  C   UNL     1       4.766   5.835  16.567  0.00  0.00    +0.000 A 
ATOM      5  C   UNL     1       4.423   4.760  17.378  0.00  0.00    +0.000 A 
ATOM      6  C   UNL     1       5.118   4.502  18.555  0.00  0.00    +0.000 A 
ATOM      7  C   UNL     1       6.258   5.255  18.864  0.00  0.00    +0.000 A 
ATOM      8  C   UNL     1       4.679   3.352  19.409  0.00  0.00    +0.000 C 
ATOM      9  N   UNL     1       3.318   2.938  19.103  0.00  0.00    +0.000 N 
ATOM     10  C   UNL     1       2.880   2.904  17.788  0.00  0.00    +0.000 C 
ATOM     11  O   UNL     1       1.997   2.173  17.367  0.00  0.00    +0.000 OA
ATOM     12  N   UNL     1       3.413   3.887  16.991  0.00  0.00    +0.000 N 
ATOM     13  H   UNL     1       2.963   3.994  16.088  0.00  0.00    +0.000 HD
ENDROOT
BRANCH   9  14
ATOM     14  C   UNL     1       2.395   2.662  20.194  0.00  0.00    +0.000 C 
BRANCH  14  15
ATOM     15  C   UNL     1       2.207   3.902  21.086  0.00  0.00    +0.000 C 
BRANCH  15  16
ATOM     16  C   UNL     1       1.581   5.075  20.336  0.00  0.00    +0.000 C 
BRANCH  16  17
ATOM     17  C   UNL     1       2.605   6.208  20.161  0.00  0.00    +0.000 C 
BRANCH  17  18
ATOM     18  C   UNL     1       1.914   7.518  19.892  0.00  0.00    +0.000 A 
ATOM     19  C   UNL     1       2.077   8.170  18.664  0.00  0.00    +0.000 A 
ATOM     20  C   UNL     1       1.551   9.445  18.470  0.00  0.00    +0.000 A 
ATOM     21  C   UNL     1       0.854  10.076  19.499  0.00  0.00    +0.000 A 
ATOM     22  C   UNL     1       0.645   9.416  20.708  0.00  0.00    +0.000 A 
ATOM     23  C   UNL     1       1.163   8.137  20.901  0.00  0.00    +0.000 A 
ENDBRANCH  17  18
ENDBRANCH  16  17
ENDBRANCH  15  16
ENDBRANCH  14  15
ENDBRANCH   9  14
TORSDOF 5
ENDMDL
MODEL 2
REMARK VINA RESULT:      -7.6      3.389      5.172
REMARK  Name = 
REMARK  6 active torsions:
REMARK  status: ('A' for Active; 'I' for Inactive)
REMARK    1  A    between atoms: C_1  and  C_2
REMARK    2  A    between atoms: N_9  and  C_10
REMARK    3  A    between atoms: C_10  and  C_11
REMARK    4  A    between atoms: C_11  and  C_12
REMARK    5  A    between atoms: C_12  and  C_13
REMARK    6  A    between atoms: C_13  and  C_14
REMARK                            x       y       z     vdW  Elec       q    Type
REMARK                         _______ _______ _______ _____ _____    ______ ____
ROOT
ATOM      1  C   UNL     1       4.809   2.765  11.289  0.00  0.00    +0.000 C 
ATOM      2  C   UNL     1       5.599   3.442  12.365  0.00  0.00    +0.000 A 
ATOM      3  C   UNL     1       6.886   3.928  12.110  0.00  0.00    +0.000 A 
ATOM      4  C   UNL     1       7.574   4.653  13.081  0.00  0.00    +0.000 A 
ATOM      5  C   UNL     1       6.975   4.882  14.315  0.00  0.00    +0.000 A 
ATOM      6  C   UNL     1       5.740   4.321  14.624  0.00  0.00    +0.000 A 
ATOM      7  C   UNL     1       5.030   3.624  13.638  0.00  0.00    +0.000 A 
ATOM      8  C   UNL     1       5.161   4.572  15.983  0.00  0.00    +0.000 C 
ATOM      9  N   UNL     1       6.175   5.005  16.933  0.00  0.00    +0.000 N 
ATOM     10  C   UNL     1       7.168   5.888  16.538  0.00  0.00    +0.000 C 
ATOM     11  O   UNL     1       7.751   6.660  17.283  0.00  0.00    +0.000 OA
ATOM     12  N   UNL     1       7.579   5.728  15.237  0.00  0.00    +0.000 N 
ATOM     13  H   UNL     1       8.426   6.229  14.993  0.00  0.00    +0.000 HD
ENDROOT
BRANCH   9  14
ATOM     14  C   UNL     1       6.196   4.422  18.267  0.00  0.00    +0.000 C 
BRANCH  14  15
ATOM     15  C   UNL     1       4.871   4.683  19.004  0.00  0.00    +0.000 C 
BRANCH  15  16
ATOM     16  C   UNL     1       4.394   6.126  18.861  0.00  0.00    +0.000 C 
BRANCH  16  17
ATOM     17  C   UNL     1       2.902   6.164  18.493  0.00  0.00    +0.000 C 
BRANCH  17  18
ATOM     18  C   UNL     1       2.206   4.909  18.944  0.00  0.00    +0.000 A 
ATOM     19  C   UNL     1       1.872   3.909  18.022  0.00  0.00    +0.000 A 
ATOM     20  C   UNL     1       1.106   2.814  18.418  0.00  0.00    +0.000 A 
ATOM     21  C   UNL     1       0.673   2.707  19.738  0.00  0.00    +0.000 A 
ATOM     22  C   UNL     1       1.041   3.672  20.674  0.00  0.00    +0.000 A 
ATOM     23  C   UNL     1       1.814   4.763  20.282  0.00  0.00    +0.000 A 
ENDBRANCH  17  18
ENDBRANCH  16  17
ENDBRANCH  15  16
ENDBRANCH  14  15
ENDBRANCH   9  14
TORSDOF 5
ENDMDL
MODEL 3
REMARK VINA RESULT:      -7.6      0.590      1.212
REMARK  Name = 
REMARK  6 active torsions:
REMARK  status: ('A' for Active; 'I' for Inactive)
REMARK    1  A    between atoms: C_1  and  C_2
REMARK    2  A    between atoms: N_9  and  C_10
REMARK    3  A    between atoms: C_10  and  C_11
REMARK    4  A    between atoms: C_11  and  C_12
REMARK    5  A    between atoms: C_12  and  C_13
REMARK    6  A    between atoms: C_13  and  C_14
REMARK                            x       y       z     vdW  Elec       q    Type
REMARK                         _______ _______ _______ _____ _____    ______ ____
ROOT
ATOM      1  C   UNL     1       8.047   6.992  18.453  0.00  0.00    +0.000 C 
ATOM      2  C   UNL     1       6.783   6.262  18.121  0.00  0.00    +0.000 A 
ATOM      3  C   UNL     1       6.074   6.554  16.951  0.00  0.00    +0.000 A 
ATOM      4  C   UNL     1       4.960   5.799  16.592  0.00  0.00    +0.000 A 
ATOM      5  C   UNL     1       4.548   4.756  17.413  0.00  0.00    +0.000 A 
ATOM      6  C   UNL     1       5.176   4.514  18.630  0.00  0.00    +0.000 A 
ATOM      7  C   UNL     1       6.318   5.247  18.976  0.00  0.00    +0.000 A 
ATOM      8  C   UNL     1       4.664   3.400  19.490  0.00  0.00    +0.000 C 
ATOM      9  N   UNL     1       3.310   3.011  19.126  0.00  0.00    +0.000 N 
ATOM     10  C   UNL     1       2.938   2.951  17.792  0.00  0.00    +0.000 C 
ATOM     11  O   UNL     1       2.059   2.231  17.345  0.00  0.00    +0.000 OA
ATOM     12  N   UNL     1       3.536   3.898  16.997  0.00  0.00    +0.000 N 
ATOM     13  H   UNL     1       3.135   3.991  16.070  0.00  0.00    +0.000 HD
ENDROOT
BRANCH   9  14
ATOM     14  C   UNL     1       2.326   2.788  20.176  0.00  0.00    +0.000 C 
BRANCH  14  15
ATOM     15  C   UNL     1       1.475   4.048  20.412  0.00  0.00    +0.000 C 
BRANCH  15  16
ATOM     16  C   UNL     1       2.325   5.295  20.648  0.00  0.00    +0.000 C 
BRANCH  16  17
ATOM     17  C   UNL     1       1.427   6.511  20.930  0.00  0.00    +0.000 C 
BRANCH  17  18
ATOM     18  C   UNL     1       1.684   7.608  19.933  0.00  0.00    +0.000 A 
ATOM     19  C   UNL     1       1.086   8.865  20.088  0.00  0.00    +0.000 A 
ATOM     20  C   UNL     1       1.213   9.832  19.092  0.00  0.00    +0.000 A 
ATOM     21  C   UNL     1       1.941   9.552  17.937  0.00  0.00    +0.000 A 
ATOM     22  C   UNL     1       2.578   8.321  17.795  0.00  0.00    +0.000 A 
ATOM     23  C   UNL     1       2.461   7.356  18.794  0.00  0.00    +0.000 A 
ENDBRANCH  17  18
ENDBRANCH  16  17
ENDBRANCH  15  16
ENDBRANCH  14  15
ENDBRANCH   9  14
TORSDOF 5
ENDMDL
MODEL 4
REMARK VINA RESULT:      -7.6      3.310      5.182
REMARK  Name = 
REMARK  6 active torsions:
REMARK  status: ('A' for Active; 'I' for Inactive)
REMARK    1  A    between atoms: C_1  and  C_2
REMARK    2  A    between atoms: N_9  and  C_10
REMARK    3  A    between atoms: C_10  and  C_11
REMARK    4  A    between atoms: C_11  and  C_12
REMARK    5  A    between atoms: C_12  and  C_13
REMARK    6  A    between atoms: C_13  and  C_14
REMARK                            x       y       z     vdW  Elec       q    Type
REMARK                         _______ _______ _______ _____ _____    ______ ____
ROOT
ATOM      1  C   UNL     1       4.952   2.841  11.339  0.00  0.00    +0.000 C 
ATOM      2  C   UNL     1       5.691   3.516  12.452  0.00  0.00    +0.000 A 
ATOM      3  C   UNL     1       6.978   4.026  12.251  0.00  0.00    +0.000 A 
ATOM      4  C   UNL     1       7.618   4.749  13.256  0.00  0.00    +0.000 A 
ATOM      5  C   UNL     1       6.971   4.952  14.469  0.00  0.00    +0.000 A 
ATOM      6  C   UNL     1       5.735   4.368  14.726  0.00  0.00    +0.000 A 
ATOM      7  C   UNL     1       5.073   3.673  13.706  0.00  0.00    +0.000 A 
ATOM      8  C   UNL     1       5.103   4.591  16.066  0.00  0.00    +0.000 C 
ATOM      9  N   UNL     1       6.074   5.027  17.058  0.00  0.00    +0.000 N 
ATOM     10  C   UNL     1       7.066   5.932  16.711  0.00  0.00    +0.000 C 
ATOM     11  O   UNL     1       7.609   6.702  17.486  0.00  0.00    +0.000 OA
ATOM     12  N   UNL     1       7.527   5.795  15.424  0.00  0.00    +0.000 N 
ATOM     13  H   UNL     1       8.374   6.313  15.218  0.00  0.00    +0.000 HD
ENDROOT
BRANCH   9  14
ATOM     14  C   UNL     1       6.056   4.427  18.384  0.00  0.00    +0.000 C 
BRANCH  14  15
ATOM     15  C   UNL     1       4.676   4.589  19.044  0.00  0.00    +0.000 C 
BRANCH  15  16
ATOM     16  C   UNL     1       4.334   6.047  19.341  0.00  0.00    +0.000 C 
BRANCH  16  17
ATOM     17  C   UNL     1       2.833   6.302  19.126  0.00  0.00    +0.000 C 
BRANCH  17  18
ATOM     18  C   UNL     1       2.045   5.033  19.297  0.00  0.00    +0.000 A 
ATOM     19  C   UNL     1       1.645   4.610  20.571  0.00  0.00    +0.000 A 
ATOM     20  C   UNL     1       1.039   3.366  20.741  0.00  0.00    +0.000 A 
ATOM     21  C   UNL     1       0.822   2.540  19.640  0.00  0.00    +0.000 A 
ATOM     22  C   UNL     1       1.172   2.973  18.362  0.00  0.00    +0.000 A 
ATOM     23  C   UNL     1       1.771   4.219  18.189  0.00  0.00    +0.000 A 
ENDBRANCH  17  18
ENDBRANCH  16  17
ENDBRANCH  15  16
ENDBRANCH  14  15
ENDBRANCH   9  14
TORSDOF 5
ENDMDL
MODEL 5
REMARK VINA RESULT:      -7.6      0.982      1.474
REMARK  Name = 
REMARK  6 active torsions:
REMARK  status: ('A' for Active; 'I' for Inactive)
REMARK    1  A    between atoms: C_1  and  C_2
REMARK    2  A    between atoms: N_9  and  C_10
REMARK    3  A    between atoms: C_10  and  C_11
REMARK    4  A    between atoms: C_11  and  C_12
REMARK    5  A    between atoms: C_12  and  C_13
REMARK    6  A    between atoms: C_13  and  C_14
REMARK                            x       y       z     vdW  Elec       q    Type
REMARK                         _______ _______ _______ _____ _____    ______ ____
ROOT
ATOM      1  C   UNL     1       7.190   7.654  17.318  0.00  0.00    +0.000 C 
ATOM      2  C   UNL     1       6.279   6.466  17.353  0.00  0.00    +0.000 A 
ATOM      3  C   UNL     1       5.641   6.020  16.191  0.00  0.00    +0.000 A 
ATOM      4  C   UNL     1       4.881   4.851  16.204  0.00  0.00    +0.000 A 
ATOM      5  C   UNL     1       4.752   4.135  17.389  0.00  0.00    +0.000 A 
ATOM      6  C   UNL     1       5.293   4.615  18.577  0.00  0.00    +0.000 A 
ATOM      7  C   UNL     1       6.087   5.769  18.559  0.00  0.00    +0.000 A 
ATOM      8  C   UNL     1       5.090   3.819  19.829  0.00  0.00    +0.000 C 
ATOM      9  N   UNL     1       3.985   2.879  19.701  0.00  0.00    +0.000 N 
ATOM     10  C   UNL     1       3.796   2.184  18.517  0.00  0.00    +0.000 C 
ATOM     11  O   UNL     1       3.256   1.093  18.428  0.00  0.00    +0.000 OA
ATOM     12  N   UNL     1       4.129   2.893  17.388  0.00  0.00    +0.000 N 
ATOM     13  H   UNL     1       3.820   2.476  16.517  0.00  0.00    +0.000 HD
ENDROOT
BRANCH   9  14
ATOM     14  C   UNL     1       3.025   2.757  20.789  0.00  0.00    +0.000 C 
BRANCH  14  15
ATOM     15  C   UNL     1       1.629   3.229  20.349  0.00  0.00    +0.000 C 
BRANCH  15  16
ATOM     16  C   UNL     1       1.670   4.548  19.580  0.00  0.00    +0.000 C 
BRANCH  16  17
ATOM     17  C   UNL     1       2.088   5.699  20.510  0.00  0.00    +0.000 C 
BRANCH  17  18
ATOM     18  C   UNL     1       2.068   7.013  19.778  0.00  0.00    +0.000 A 
ATOM     19  C   UNL     1       1.401   8.119  20.320  0.00  0.00    +0.000 A 
ATOM     20  C   UNL     1       1.265   9.291  19.578  0.00  0.00    +0.000 A 
ATOM     21  C   UNL     1       1.798   9.368  18.292  0.00  0.00    +0.000 A 
ATOM     22  C   UNL     1       2.504   8.289  17.763  0.00  0.00    +0.000 A 
ATOM     23  C   UNL     1       2.649   7.120  18.507  0.00  0.00    +0.000 A 
ENDBRANCH  17  18
ENDBRANCH  16  17
ENDBRANCH  15  16
ENDBRANCH  14  15
ENDBRANCH   9  14
TORSDOF 5
ENDMDL
MODEL 6
REMARK VINA RESULT:      -7.5      2.001      4.322
REMARK  Name = 
REMARK  6 active torsions:
REMARK  status: ('A' for Active; 'I' for Inactive)
REMARK    1  A    between atoms: C_1  and  C_2
REMARK    2  A    between atoms: N_9  and  C_10
REMARK    3  A    between atoms: C_10  and  C_11
REMARK    4  A    between atoms: C_11  and  C_12
REMARK    5  A    between atoms: C_12  and  C_13
REMARK    6  A    between atoms: C_13  and  C_14
REMARK                            x       y       z     vdW  Elec       q    Type
REMARK                         _______ _______ _______ _____ _____    ______ ____
ROOT
ATOM      1  C   UNL     1       0.494   2.011  18.744  0.00  0.00    +0.000 C 
ATOM      2  C   UNL     1       1.866   2.600  18.844  0.00  0.00    +0.000 A 
ATOM      3  C   UNL     1       2.492   2.748  20.087  0.00  0.00    +0.000 A 
ATOM      4  C   UNL     1       3.810   3.194  20.168  0.00  0.00    +0.000 A 
ATOM      5  C   UNL     1       4.498   3.504  19.000  0.00  0.00    +0.000 A 
ATOM      6  C   UNL     1       3.863   3.462  17.763  0.00  0.00    +0.000 A 
ATOM      7  C   UNL     1       2.551   2.979  17.676  0.00  0.00    +0.000 A 
ATOM      8  C   UNL     1       4.645   3.843  16.544  0.00  0.00    +0.000 C 
ATOM      9  N   UNL     1       5.830   4.619  16.880  0.00  0.00    +0.000 N 
ATOM     10  C   UNL     1       6.587   4.287  17.993  0.00  0.00    +0.000 C 
ATOM     11  O   UNL     1       7.779   4.517  18.117  0.00  0.00    +0.000 OA
ATOM     12  N   UNL     1       5.854   3.803  19.049  0.00  0.00    +0.000 N 
ATOM     13  H   UNL     1       6.362   3.738  19.925  0.00  0.00    +0.000 HD
ENDROOT
BRANCH   9  14
ATOM     14  C   UNL     1       6.149   5.805  16.098  0.00  0.00    +0.000 C 
BRANCH  14  15
ATOM     15  C   UNL     1       4.910   6.701  15.923  0.00  0.00    +0.000 C 
BRANCH  15  16
ATOM     16  C   UNL     1       4.524   7.426  17.210  0.00  0.00    +0.000 C 
BRANCH  16  17
ATOM     17  C   UNL     1       3.313   6.745  17.868  0.00  0.00    +0.000 C 
BRANCH  17  18
ATOM     18  C   UNL     1       2.397   7.764  18.490  0.00  0.00    +0.000 A 
ATOM     19  C   UNL     1       1.998   8.895  17.768  0.00  0.00    +0.000 A 
ATOM     20  C   UNL     1       1.266   9.904  18.392  0.00  0.00    +0.000 A 
ATOM     21  C   UNL     1       0.923   9.787  19.738  0.00  0.00    +0.000 A 
ATOM     22  C   UNL     1       1.276   8.643  20.451  0.00  0.00    +0.000 A 
ATOM     23  C   UNL     1       2.000   7.629  19.827  0.00  0.00    +0.000 A 
ENDBRANCH  17  18
ENDBRANCH  16  17
ENDBRANCH  15  16
ENDBRANCH  14  15
ENDBRANCH   9  14
TORSDOF 5
ENDMDL
MODEL 7
REMARK VINA RESULT:      -7.5      3.476      6.723
REMARK  Name = 
REMARK  6 active torsions:
REMARK  status: ('A' for Active; 'I' for Inactive)
REMARK    1  A    between atoms: C_1  and  C_2
REMARK    2  A    between atoms: N_9  and  C_10
REMARK    3  A    between atoms: C_10  and  C_11
REMARK    4  A    between atoms: C_11  and  C_12
REMARK    5  A    between atoms: C_12  and  C_13
REMARK    6  A    between atoms: C_13  and  C_14
REMARK                            x       y       z     vdW  Elec       q    Type
REMARK                         _______ _______ _______ _____ _____    ______ ____
ROOT
ATOM      1  C   UNL     1       0.918   3.914  20.224  0.00  0.00    +0.000 C 
ATOM      2  C   UNL     1       2.347   3.979  19.785  0.00  0.00    +0.000 A 
ATOM      3  C   UNL     1       3.315   3.159  20.377  0.00  0.00    +0.000 A 
ATOM      4  C   UNL     1       4.621   3.143  19.893  0.00  0.00    +0.000 A 
ATOM      5  C   UNL     1       4.962   3.959  18.820  0.00  0.00    +0.000 A 
ATOM      6  C   UNL     1       4.043   4.854  18.284  0.00  0.00    +0.000 A 
ATOM      7  C   UNL     1       2.720   4.846  18.743  0.00  0.00    +0.000 A 
ATOM      8  C   UNL     1       4.479   5.735  17.153  0.00  0.00    +0.000 C 
ATOM      9  N   UNL     1       5.929   5.830  17.067  0.00  0.00    +0.000 N 
ATOM     10  C   UNL     1       6.714   4.709  17.284  0.00  0.00    +0.000 C 
ATOM     11  O   UNL     1       7.824   4.533  16.808  0.00  0.00    +0.000 OA
ATOM     12  N   UNL     1       6.214   3.845  18.228  0.00  0.00    +0.000 N 
ATOM     13  H   UNL     1       6.862   3.128  18.535  0.00  0.00    +0.000 HD
ENDROOT
BRANCH   9  14
ATOM     14  C   UNL     1       6.544   7.132  16.854  0.00  0.00    +0.000 C 
BRANCH  14  15
ATOM     15  C   UNL     1       7.604   7.425  17.931  0.00  0.00    +0.000 C 
BRANCH  15  16
ATOM     16  C   UNL     1       8.214   8.818  17.791  0.00  0.00    +0.000 C 
BRANCH  16  17
ATOM     17  C   UNL     1       8.825   9.273  19.126  0.00  0.00    +0.000 C 
BRANCH  17  18
ATOM     18  C   UNL     1       9.463  10.628  18.989  0.00  0.00    +0.000 A 
ATOM     19  C   UNL     1      10.374  11.087  19.949  0.00  0.00    +0.000 A 
ATOM     20  C   UNL     1      10.855  12.394  19.894  0.00  0.00    +0.000 A 
ATOM     21  C   UNL     1      10.434  13.250  18.877  0.00  0.00    +0.000 A 
ATOM     22  C   UNL     1       9.565  12.788  17.891  0.00  0.00    +0.000 A 
ATOM     23  C   UNL     1       9.090  11.478  17.939  0.00  0.00    +0.000 A 
ENDBRANCH  17  18
ENDBRANCH  16  17
ENDBRANCH  15  16
ENDBRANCH  14  15
ENDBRANCH   9  14
TORSDOF 5
ENDMDL
MODEL 8
REMARK VINA RESULT:      -7.3      3.214      4.349
REMARK  Name = 
REMARK  6 active torsions:
REMARK  status: ('A' for Active; 'I' for Inactive)
REMARK    1  A    between atoms: C_1  and  C_2
REMARK    2  A    between atoms: N_9  and  C_10
REMARK    3  A    between atoms: C_10  and  C_11
REMARK    4  A    between atoms: C_11  and  C_12
REMARK    5  A    between atoms: C_12  and  C_13
REMARK    6  A    between atoms: C_13  and  C_14
REMARK                            x       y       z     vdW  Elec       q    Type
REMARK                         _______ _______ _______ _____ _____    ______ ____
ROOT
ATOM      1  C   UNL     1       5.044   2.874  11.346  0.00  0.00    +0.000 C 
ATOM      2  C   UNL     1       5.753   3.558  12.473  0.00  0.00    +0.000 A 
ATOM      3  C   UNL     1       7.016   4.128  12.283  0.00  0.00    +0.000 A 
ATOM      4  C   UNL     1       7.624   4.858  13.303  0.00  0.00    +0.000 A 
ATOM      5  C   UNL     1       6.970   5.006  14.520  0.00  0.00    +0.000 A 
ATOM      6  C   UNL     1       5.761   4.362  14.765  0.00  0.00    +0.000 A 
ATOM      7  C   UNL     1       5.130   3.660  13.730  0.00  0.00    +0.000 A 
ATOM      8  C   UNL     1       5.121   4.528  16.109  0.00  0.00    +0.000 C 
ATOM      9  N   UNL     1       6.073   4.987  17.110  0.00  0.00    +0.000 N 
ATOM     10  C   UNL     1       7.023   5.942  16.782  0.00  0.00    +0.000 C 
ATOM     11  O   UNL     1       7.531   6.719  17.573  0.00  0.00    +0.000 OA
ATOM     12  N   UNL     1       7.488   5.853  15.492  0.00  0.00    +0.000 N 
ATOM     13  H   UNL     1       8.311   6.413  15.297  0.00  0.00    +0.000 HD
ENDROOT
BRANCH   9  14
ATOM     14  C   UNL     1       6.083   4.358  18.423  0.00  0.00    +0.000 C 
BRANCH  14  15
ATOM     15  C   UNL     1       4.675   4.354  19.044  0.00  0.00    +0.000 C 
BRANCH  15  16
ATOM     16  C   UNL     1       4.226   5.744  19.490  0.00  0.00    +0.000 C 
BRANCH  16  17
ATOM     17  C   UNL     1       2.691   5.827  19.524  0.00  0.00    +0.000 C 
BRANCH  17  18
ATOM     18  C   UNL     1       2.228   7.247  19.344  0.00  0.00    +0.000 A 
ATOM     19  C   UNL     1       1.594   7.928  20.391  0.00  0.00    +0.000 A 
ATOM     20  C   UNL     1       1.042   9.189  20.177  0.00  0.00    +0.000 A 
ATOM     21  C   UNL     1       1.124   9.782  18.918  0.00  0.00    +0.000 A 
ATOM     22  C   UNL     1       1.795   9.134  17.883  0.00  0.00    +0.000 A 
ATOM     23  C   UNL     1       2.355   7.876  18.097  0.00  0.00    +0.000 A 
ENDBRANCH  17  18
ENDBRANCH  16  17
ENDBRANCH  15  16
ENDBRANCH  14  15
ENDBRANCH   9  14
TORSDOF 5
ENDMDL
MODEL 9
REMARK VINA RESULT:      -7.2      1.003      1.143
REMARK  Name = 
REMARK  6 active torsions:
REMARK  status: ('A' for Active; 'I' for Inactive)
REMARK    1  A    between atoms: C_1  and  C_2
REMARK    2  A    between atoms: N_9  and  C_10
REMARK    3  A    between atoms: C_10  and  C_11
REMARK    4  A    between atoms: C_11  and  C_12
REMARK    5  A    between atoms: C_12  and  C_13
REMARK    6  A    between atoms: C_13  and  C_14
REMARK                            x       y       z     vdW  Elec       q    Type
REMARK                         _______ _______ _______ _____ _____    ______ ____
ROOT
ATOM      1  C   UNL     1       7.373   7.484  17.436  0.00  0.00    +0.000 C 
ATOM      2  C   UNL     1       6.413   6.335  17.450  0.00  0.00    +0.000 A 
ATOM      3  C   UNL     1       5.778   5.919  16.275  0.00  0.00    +0.000 A 
ATOM      4  C   UNL     1       4.970   4.784  16.270  0.00  0.00    +0.000 A 
ATOM      5  C   UNL     1       4.789   4.070  17.449  0.00  0.00    +0.000 A 
ATOM      6  C   UNL     1       5.327   4.524  18.649  0.00  0.00    +0.000 A 
ATOM      7  C   UNL     1       6.169   5.643  18.650  0.00  0.00    +0.000 A 
ATOM      8  C   UNL     1       5.067   3.733  19.895  0.00  0.00    +0.000 C 
ATOM      9  N   UNL     1       3.927   2.842  19.742  0.00  0.00    +0.000 N 
ATOM     10  C   UNL     1       3.731   2.158  18.553  0.00  0.00    +0.000 C 
ATOM     11  O   UNL     1       3.147   1.091  18.450  0.00  0.00    +0.000 OA
ATOM     12  N   UNL     1       4.114   2.855  17.433  0.00  0.00    +0.000 N 
ATOM     13  H   UNL     1       3.804   2.454  16.554  0.00  0.00    +0.000 HD
ENDROOT
BRANCH   9  14
ATOM     14  C   UNL     1       2.942   2.757  20.812  0.00  0.00    +0.000 C 
BRANCH  14  15
ATOM     15  C   UNL     1       1.623   3.434  20.403  0.00  0.00    +0.000 C 
BRANCH  15  16
ATOM     16  C   UNL     1       1.840   4.647  19.500  0.00  0.00    +0.000 C 
BRANCH  16  17
ATOM     17  C   UNL     1       2.125   5.900  20.344  0.00  0.00    +0.000 C 
BRANCH  17  18
ATOM     18  C   UNL     1       2.039   7.144  19.502  0.00  0.00    +0.000 A 
ATOM     19  C   UNL     1       2.671   7.203  18.254  0.00  0.00    +0.000 A 
ATOM     20  C   UNL     1       2.707   8.400  17.540  0.00  0.00    +0.000 A 
ATOM     21  C   UNL     1       2.108   9.543  18.065  0.00  0.00    +0.000 A 
ATOM     22  C   UNL     1       1.436   9.482  19.284  0.00  0.00    +0.000 A 
ATOM     23  C   UNL     1       1.390   8.284  19.995  0.00  0.00    +0.000 A 
ENDBRANCH  17  18
ENDBRANCH  16  17
ENDBRANCH  15  16
ENDBRANCH  14  15
ENDBRANCH   9  14
TORSDOF 5
ENDMDL
