MODEL 1
REMARK VINA RESULT:      -8.5      0.000      0.000
REMARK  Name = 
REMARK  4 active torsions:
REMARK  status: ('A' for Active; 'I' for Inactive)
REMARK    1  A    between atoms: C_1  and  N_2
REMARK    2  A    between atoms: C_4  and  C_5
REMARK    3  A    between atoms: C_10  and  O_11
REMARK    4  A    between atoms: C_16  and  C_17
REMARK                            x       y       z     vdW  Elec       q    Type
REMARK                         _______ _______ _______ _____ _____    ______ ____
ROOT
ATOM      1  C   UNL     1       6.339   5.299  15.813  0.00  0.00    +0.000 C 
ATOM      2  N   UNL     1       5.211   5.504  16.688  0.00  0.00    +0.000 N 
ATOM      3  C   UNL     1       4.591   6.685  16.951  0.00  0.00    +0.000 A 
ATOM      4  C   UNL     1       3.559   6.398  17.823  0.00  0.00    +0.000 A 
ATOM      5  C   UNL     1       3.642   4.975  18.024  0.00  0.00    +0.000 A 
ATOM      6  N   UNL     1       4.679   4.459  17.339  0.00  0.00    +0.000 NA
ENDROOT
BRANCH   4   7
ATOM      7  C   UNL     1       2.669   7.420  18.364  0.00  0.00    +0.000 A 
ATOM      8  C   UNL     1       2.215   8.473  17.559  0.00  0.00    +0.000 A 
ATOM      9  C   UNL     1       1.430   9.498  18.092  0.00  0.00    +0.000 A 
ATOM     10  C   UNL     1       1.020   9.460  19.431  0.00  0.00    +0.000 A 
ATOM     11  C   UNL     1       0.203  10.464  19.971  0.00  0.00    +0.000 A 
ATOM     12  C   UNL     1      -0.228  10.376  21.291  0.00  0.00    +0.000 A 
ATOM     13  C   UNL     1       0.151   9.308  22.093  0.00  0.00    +0.000 A 
ATOM     14  C   UNL     1       0.983   8.316  21.575  0.00  0.00    +0.000 A 
ATOM     15  C   UNL     1       1.427   8.378  20.244  0.00  0.00    +0.000 A 
ATOM     16  C   UNL     1       2.263   7.384  19.704  0.00  0.00    +0.000 A 
BRANCH  12  17
ATOM     17  O   UNL     1      -1.044  11.322  21.837  0.00  0.00    +0.000 OA
ATOM     18  H   UNL     1      -0.922  12.155  21.352  0.00  0.00    +0.000 HD
ENDBRANCH  12  17
ENDBRANCH   4   7
BRANCH   5  19
ATOM     19  C   UNL     1       2.796   4.108  18.849  0.00  0.00    +0.000 A 
ATOM     20  C   UNL     1       1.602   3.581  18.354  0.00  0.00    +0.000 A 
ATOM     21  C   UNL     1       0.778   2.878  19.218  0.00  0.00    +0.000 A 
ATOM     22  N   UNL     1       1.083   2.628  20.507  0.00  0.00    +0.000 NA
ATOM     23  C   UNL     1       2.273   3.091  20.948  0.00  0.00    +0.000 A 
ATOM     24  C   UNL     1       3.151   3.825  20.170  0.00  0.00    +0.000 A 
ENDBRANCH   5  19
TORSDOF 3
ENDMDL
MODEL 2
REMARK VINA RESULT:      -8.5      0.482      1.084
REMARK  Name = 
REMARK  4 active torsions:
REMARK  status: ('A' for Active; 'I' for Inactive)
REMARK    1  A    between atoms: C_1  and  N_2
REMARK    2  A    between atoms: C_4  and  C_5
REMARK    3  A    between atoms: C_10  and  O_11
REMARK    4  A    between atoms: C_16  and  C_17
REMARK                            x       y       z     vdW  Elec       q    Type
REMARK                         _______ _______ _______ _____ _____    ______ ____
ROOT
ATOM      1  C   UNL     1       5.966   5.589  15.960  0.00  0.00    +0.000 C 
ATOM      2  N   UNL     1       4.863   5.804  16.864  0.00  0.00    +0.000 N 
ATOM      3  C   UNL     1       4.237   6.984  17.117  0.00  0.00    +0.000 A 
ATOM      4  C   UNL     1       3.236   6.707  18.027  0.00  0.00    +0.000 A 
ATOM      5  C   UNL     1       3.342   5.291  18.260  0.00  0.00    +0.000 A 
ATOM      6  N   UNL     1       4.364   4.769  17.557  0.00  0.00    +0.000 NA
ENDROOT
BRANCH   4   7
ATOM      7  C   UNL     1       2.350   7.732  18.569  0.00  0.00    +0.000 A 
ATOM      8  C   UNL     1       1.818   8.729  17.742  0.00  0.00    +0.000 A 
ATOM      9  C   UNL     1       1.037   9.760  18.270  0.00  0.00    +0.000 A 
ATOM     10  C   UNL     1       0.710   9.781  19.632  0.00  0.00    +0.000 A 
ATOM     11  C   UNL     1      -0.102  10.790  20.170  0.00  0.00    +0.000 A 
ATOM     12  C   UNL     1      -0.450  10.760  21.517  0.00  0.00    +0.000 A 
ATOM     13  C   UNL     1       0.008   9.745  22.347  0.00  0.00    +0.000 A 
ATOM     14  C   UNL     1       0.836   8.750  21.829  0.00  0.00    +0.000 A 
ATOM     15  C   UNL     1       1.197   8.754  20.472  0.00  0.00    +0.000 A 
ATOM     16  C   UNL     1       2.027   7.756  19.933  0.00  0.00    +0.000 A 
BRANCH  12  17
ATOM     17  O   UNL     1      -1.259  11.711  22.064  0.00  0.00    +0.000 OA
ATOM     18  H   UNL     1      -0.852  12.031  22.886  0.00  0.00    +0.000 HD
ENDBRANCH  12  17
ENDBRANCH   4   7
BRANCH   5  19
ATOM     19  C   UNL     1       2.533   4.434  19.132  0.00  0.00    +0.000 A 
ATOM     20  C   UNL     1       2.818   4.314  20.494  0.00  0.00    +0.000 A 
ATOM     21  C   UNL     1       2.107   3.391  21.242  0.00  0.00    +0.000 A 
ATOM     22  N   UNL     1       1.113   2.627  20.743  0.00  0.00    +0.000 NA
ATOM     23  C   UNL     1       0.810   2.806  19.439  0.00  0.00    +0.000 A 
ATOM     24  C   UNL     1       1.480   3.683  18.604  0.00  0.00    +0.000 A 
ENDBRANCH   5  19
TORSDOF 3
ENDMDL
MODEL 3
REMARK VINA RESULT:      -8.3      1.700      3.606
REMARK  Name = 
REMARK  4 active torsions:
REMARK  status: ('A' for Active; 'I' for Inactive)
REMARK    1  A    between atoms: C_1  and  N_2
REMARK    2  A    between atoms: C_4  and  C_5
REMARK    3  A    between atoms: C_10  and  O_11
REMARK    4  A    between atoms: C_16  and  C_17
REMARK                            x       y       z     vdW  Elec       q    Type
REMARK                         _______ _______ _______ _____ _____    ______ ____
ROOT
ATOM      1  C   UNL     1       2.787   1.864  17.833  0.00  0.00    +0.000 C 
ATOM      2  N   UNL     1       3.114   3.252  18.051  0.00  0.00    +0.000 N 
ATOM      3  C   UNL     1       2.246   4.253  18.357  0.00  0.00    +0.000 A 
ATOM      4  C   UNL     1       3.005   5.399  18.491  0.00  0.00    +0.000 A 
ATOM      5  C   UNL     1       4.356   4.968  18.244  0.00  0.00    +0.000 A 
ATOM      6  N   UNL     1       4.389   3.655  17.950  0.00  0.00    +0.000 NA
ENDROOT
BRANCH   4   7
ATOM      7  C   UNL     1       2.426   6.703  18.796  0.00  0.00    +0.000 A 
ATOM      8  C   UNL     1       2.268   7.669  17.793  0.00  0.00    +0.000 A 
ATOM      9  C   UNL     1       1.792   8.947  18.094  0.00  0.00    +0.000 A 
ATOM     10  C   UNL     1       1.394   9.271  19.398  0.00  0.00    +0.000 A 
ATOM     11  C   UNL     1       0.882  10.539  19.708  0.00  0.00    +0.000 A 
ATOM     12  C   UNL     1       0.451  10.818  21.002  0.00  0.00    +0.000 A 
ATOM     13  C   UNL     1       0.534   9.858  22.001  0.00  0.00    +0.000 A 
ATOM     14  C   UNL     1       1.064   8.602  21.710  0.00  0.00    +0.000 A 
ATOM     15  C   UNL     1       1.500   8.292  20.412  0.00  0.00    +0.000 A 
ATOM     16  C   UNL     1       2.034   7.029  20.101  0.00  0.00    +0.000 A 
BRANCH  12  17
ATOM     17  O   UNL     1      -0.077  12.032  21.329  0.00  0.00    +0.000 OA
ATOM     18  H   UNL     1       0.238  12.690  20.687  0.00  0.00    +0.000 HD
ENDBRANCH  12  17
ENDBRANCH   4   7
BRANCH   5  19
ATOM     19  C   UNL     1       5.593   5.754  18.256  0.00  0.00    +0.000 A 
ATOM     20  C   UNL     1       5.809   6.777  17.330  0.00  0.00    +0.000 A 
ATOM     21  C   UNL     1       7.047   7.396  17.301  0.00  0.00    +0.000 A 
ATOM     22  N   UNL     1       8.052   7.103  18.152  0.00  0.00    +0.000 NA
ATOM     23  C   UNL     1       7.800   6.156  19.081  0.00  0.00    +0.000 A 
ATOM     24  C   UNL     1       6.606   5.463  19.173  0.00  0.00    +0.000 A 
ENDBRANCH   5  19
TORSDOF 3
ENDMDL
MODEL 4
REMARK VINA RESULT:      -8.0      4.325      5.929
REMARK  Name = 
REMARK  4 active torsions:
REMARK  status: ('A' for Active; 'I' for Inactive)
REMARK    1  A    between atoms: C_1  and  N_2
REMARK    2  A    between atoms: C_4  and  C_5
REMARK    3  A    between atoms: C_10  and  O_11
REMARK    4  A    between atoms: C_16  and  C_17
REMARK                            x       y       z     vdW  Elec       q    Type
REMARK                         _______ _______ _______ _____ _____    ______ ____
ROOT
ATOM      1  C   UNL     1       6.554   3.780  12.840  0.00  0.00    +0.000 C 
ATOM      2  N   UNL     1       6.221   4.162  14.191  0.00  0.00    +0.000 N 
ATOM      3  C   UNL     1       5.157   3.732  14.918  0.00  0.00    +0.000 A 
ATOM      4  C   UNL     1       5.254   4.345  16.151  0.00  0.00    +0.000 A 
ATOM      5  C   UNL     1       6.449   5.143  16.065  0.00  0.00    +0.000 A 
ATOM      6  N   UNL     1       7.005   5.034  14.843  0.00  0.00    +0.000 NA
ENDROOT
BRANCH   4   7
ATOM      7  C   UNL     1       4.272   4.153  17.214  0.00  0.00    +0.000 A 
ATOM      8  C   UNL     1       3.017   4.774  17.150  0.00  0.00    +0.000 A 
ATOM      9  C   UNL     1       2.105   4.661  18.202  0.00  0.00    +0.000 A 
ATOM     10  C   UNL     1       2.397   3.865  19.316  0.00  0.00    +0.000 A 
ATOM     11  C   UNL     1       1.477   3.714  20.365  0.00  0.00    +0.000 A 
ATOM     12  C   UNL     1       1.775   2.880  21.438  0.00  0.00    +0.000 A 
ATOM     13  C   UNL     1       2.983   2.198  21.494  0.00  0.00    +0.000 A 
ATOM     14  C   UNL     1       3.916   2.359  20.471  0.00  0.00    +0.000 A 
ATOM     15  C   UNL     1       3.638   3.190  19.374  0.00  0.00    +0.000 A 
ATOM     16  C   UNL     1       4.566   3.361  18.331  0.00  0.00    +0.000 A 
BRANCH  12  17
ATOM     17  O   UNL     1       0.890   2.691  22.458  0.00  0.00    +0.000 OA
ATOM     18  H   UNL     1      -0.010   2.696  22.093  0.00  0.00    +0.000 HD
ENDBRANCH  12  17
ENDBRANCH   4   7
BRANCH   5  19
ATOM     19  C   UNL     1       7.057   6.010  17.078  0.00  0.00    +0.000 A 
ATOM     20  C   UNL     1       7.219   7.379  16.856  0.00  0.00    +0.000 A 
ATOM     21  C   UNL     1       7.919   8.125  17.789  0.00  0.00    +0.000 A 
ATOM     22  N   UNL     1       8.419   7.616  18.933  0.00  0.00    +0.000 NA
ATOM     23  C   UNL     1       8.195   6.303  19.159  0.00  0.00    +0.000 A 
ATOM     24  C   UNL     1       7.531   5.470  18.276  0.00  0.00    +0.000 A 
ENDBRANCH   5  19
TORSDOF 3
ENDMDL
MODEL 5
REMARK VINA RESULT:      -8.0      3.538      7.063
REMARK  Name = 
REMARK  4 active torsions:
REMARK  status: ('A' for Active; 'I' for Inactive)
REMARK    1  A    between atoms: C_1  and  N_2
REMARK    2  A    between atoms: C_4  and  C_5
REMARK    3  A    between atoms: C_10  and  O_11
REMARK    4  A    between atoms: C_16  and  C_17
REMARK                            x       y       z     vdW  Elec       q    Type
REMARK                         _______ _______ _______ _____ _____    ______ ____
ROOT
ATOM      1  C   UNL     1       1.466   2.516  21.720  0.00  0.00    +0.000 C 
ATOM      2  N   UNL     1       2.067   3.525  20.882  0.00  0.00    +0.000 N 
ATOM      3  C   UNL     1       3.113   3.358  20.030  0.00  0.00    +0.000 A 
ATOM      4  C   UNL     1       3.327   4.584  19.431  0.00  0.00    +0.000 A 
ATOM      5  C   UNL     1       2.326   5.445  20.003  0.00  0.00    +0.000 A 
ATOM      6  N   UNL     1       1.587   4.778  20.909  0.00  0.00    +0.000 NA
ENDROOT
BRANCH   4   7
ATOM      7  C   UNL     1       4.393   4.818  18.462  0.00  0.00    +0.000 A 
ATOM      8  C   UNL     1       5.560   5.499  18.831  0.00  0.00    +0.000 A 
ATOM      9  C   UNL     1       6.546   5.799  17.888  0.00  0.00    +0.000 A 
ATOM     10  C   UNL     1       6.421   5.363  16.563  0.00  0.00    +0.000 A 
ATOM     11  C   UNL     1       7.420   5.626  15.613  0.00  0.00    +0.000 A 
ATOM     12  C   UNL     1       7.291   5.141  14.315  0.00  0.00    +0.000 A 
ATOM     13  C   UNL     1       6.176   4.404  13.939  0.00  0.00    +0.000 A 
ATOM     14  C   UNL     1       5.166   4.157  14.867  0.00  0.00    +0.000 A 
ATOM     15  C   UNL     1       5.273   4.630  16.184  0.00  0.00    +0.000 A 
ATOM     16  C   UNL     1       4.266   4.387  17.135  0.00  0.00    +0.000 A 
BRANCH  12  17
ATOM     17  O   UNL     1       8.256   5.356  13.377  0.00  0.00    +0.000 OA
ATOM     18  H   UNL     1       8.166   6.264  13.041  0.00  0.00    +0.000 HD
ENDBRANCH  12  17
ENDBRANCH   4   7
BRANCH   5  19
ATOM     19  C   UNL     1       2.067   6.864  19.739  0.00  0.00    +0.000 A 
ATOM     20  C   UNL     1       1.500   7.688  20.714  0.00  0.00    +0.000 A 
ATOM     21  C   UNL     1       1.154   8.984  20.368  0.00  0.00    +0.000 A 
ATOM     22  N   UNL     1       1.377   9.519  19.151  0.00  0.00    +0.000 NA
ATOM     23  C   UNL     1       1.986   8.726  18.243  0.00  0.00    +0.000 A 
ATOM     24  C   UNL     1       2.345   7.411  18.485  0.00  0.00    +0.000 A 
ENDBRANCH   5  19
TORSDOF 3
ENDMDL
MODEL 6
REMARK VINA RESULT:      -8.0      1.548      3.786
REMARK  Name = 
REMARK  4 active torsions:
REMARK  status: ('A' for Active; 'I' for Inactive)
REMARK    1  A    between atoms: C_1  and  N_2
REMARK    2  A    between atoms: C_4  and  C_5
REMARK    3  A    between atoms: C_10  and  O_11
REMARK    4  A    between atoms: C_16  and  C_17
REMARK                            x       y       z     vdW  Elec       q    Type
REMARK                         _______ _______ _______ _____ _____    ______ ____
ROOT
ATOM      1  C   UNL     1       3.213   2.288  21.082  0.00  0.00    +0.000 C 
ATOM      2  N   UNL     1       3.362   3.501  20.316  0.00  0.00    +0.000 N 
ATOM      3  C   UNL     1       2.573   4.607  20.382  0.00  0.00    +0.000 A 
ATOM      4  C   UNL     1       3.103   5.517  19.489  0.00  0.00    +0.000 A 
ATOM      5  C   UNL     1       4.246   4.847  18.925  0.00  0.00    +0.000 A 
ATOM      6  N   UNL     1       4.364   3.604  19.429  0.00  0.00    +0.000 NA
ENDROOT
BRANCH   4   7
ATOM      7  C   UNL     1       2.515   6.831  19.252  0.00  0.00    +0.000 A 
ATOM      8  C   UNL     1       2.590   7.432  17.988  0.00  0.00    +0.000 A 
ATOM      9  C   UNL     1       2.102   8.723  17.777  0.00  0.00    +0.000 A 
ATOM     10  C   UNL     1       1.462   9.422  18.808  0.00  0.00    +0.000 A 
ATOM     11  C   UNL     1       0.936  10.706  18.600  0.00  0.00    +0.000 A 
ATOM     12  C   UNL     1       0.264  11.358  19.630  0.00  0.00    +0.000 A 
ATOM     13  C   UNL     1       0.115  10.758  20.873  0.00  0.00    +0.000 A 
ATOM     14  C   UNL     1       0.655   9.493  21.099  0.00  0.00    +0.000 A 
ATOM     15  C   UNL     1       1.332   8.811  20.076  0.00  0.00    +0.000 A 
ATOM     16  C   UNL     1       1.880   7.532  20.285  0.00  0.00    +0.000 A 
BRANCH  12  17
ATOM     17  O   UNL     1      -0.282  12.594  19.451  0.00  0.00    +0.000 OA
ATOM     18  H   UNL     1      -0.107  12.882  18.540  0.00  0.00    +0.000 HD
ENDBRANCH  12  17
ENDBRANCH   4   7
BRANCH   5  19
ATOM     19  C   UNL     1       5.200   5.331  17.924  0.00  0.00    +0.000 A 
ATOM     20  C   UNL     1       5.030   5.047  16.567  0.00  0.00    +0.000 A 
ATOM     21  C   UNL     1       6.029   5.414  15.681  0.00  0.00    +0.000 A 
ATOM     22  N   UNL     1       7.146   6.077  16.045  0.00  0.00    +0.000 NA
ATOM     23  C   UNL     1       7.260   6.399  17.351  0.00  0.00    +0.000 A 
ATOM     24  C   UNL     1       6.329   6.053  18.315  0.00  0.00    +0.000 A 
ENDBRANCH   5  19
TORSDOF 3
ENDMDL
MODEL 7
REMARK VINA RESULT:      -8.0      1.605      4.024
REMARK  Name = 
REMARK  4 active torsions:
REMARK  status: ('A' for Active; 'I' for Inactive)
REMARK    1  A    between atoms: C_1  and  N_2
REMARK    2  A    between atoms: C_4  and  C_5
REMARK    3  A    between atoms: C_10  and  O_11
REMARK    4  A    between atoms: C_16  and  C_17
REMARK                            x       y       z     vdW  Elec       q    Type
REMARK                         _______ _______ _______ _____ _____    ______ ____
ROOT
ATOM      1  C   UNL     1       3.731   1.903  20.969  0.00  0.00    +0.000 C 
ATOM      2  N   UNL     1       3.859   3.132  20.223  0.00  0.00    +0.000 N 
ATOM      3  C   UNL     1       3.009   4.192  20.251  0.00  0.00    +0.000 A 
ATOM      4  C   UNL     1       3.541   5.140  19.399  0.00  0.00    +0.000 A 
ATOM      5  C   UNL     1       4.749   4.539  18.899  0.00  0.00    +0.000 A 
ATOM      6  N   UNL     1       4.904   3.299  19.398  0.00  0.00    +0.000 NA
ENDROOT
BRANCH   4   7
ATOM      7  C   UNL     1       2.897   6.424  19.138  0.00  0.00    +0.000 A 
ATOM      8  C   UNL     1       3.031   7.053  17.894  0.00  0.00    +0.000 A 
ATOM      9  C   UNL     1       2.487   8.319  17.666  0.00  0.00    +0.000 A 
ATOM     10  C   UNL     1       1.732   8.959  18.656  0.00  0.00    +0.000 A 
ATOM     11  C   UNL     1       1.150  10.216  18.429  0.00  0.00    +0.000 A 
ATOM     12  C   UNL     1       0.366  10.808  19.415  0.00  0.00    +0.000 A 
ATOM     13  C   UNL     1       0.160  10.176  20.634  0.00  0.00    +0.000 A 
ATOM     14  C   UNL     1       0.753   8.939  20.880  0.00  0.00    +0.000 A 
ATOM     15  C   UNL     1       1.544   8.317  19.901  0.00  0.00    +0.000 A 
ATOM     16  C   UNL     1       2.146   7.067  20.131  0.00  0.00    +0.000 A 
BRANCH  12  17
ATOM     17  O   UNL     1      -0.235  12.015  19.214  0.00  0.00    +0.000 OA
ATOM     18  H   UNL     1       0.423  12.634  18.857  0.00  0.00    +0.000 HD
ENDBRANCH  12  17
ENDBRANCH   4   7
BRANCH   5  19
ATOM     19  C   UNL     1       5.733   5.085  17.960  0.00  0.00    +0.000 A 
ATOM     20  C   UNL     1       6.606   6.108  18.341  0.00  0.00    +0.000 A 
ATOM     21  C   UNL     1       7.422   6.677  17.378  0.00  0.00    +0.000 A 
ATOM     22  N   UNL     1       7.462   6.269  16.093  0.00  0.00    +0.000 NA
ATOM     23  C   UNL     1       6.658   5.236  15.761  0.00  0.00    +0.000 A 
ATOM     24  C   UNL     1       5.788   4.620  16.644  0.00  0.00    +0.000 A 
ENDBRANCH   5  19
TORSDOF 3
ENDMDL
MODEL 8
REMARK VINA RESULT:      -7.9      0.680      1.625
REMARK  Name = 
REMARK  4 active torsions:
REMARK  status: ('A' for Active; 'I' for Inactive)
REMARK    1  A    between atoms: C_1  and  N_2
REMARK    2  A    between atoms: C_4  and  C_5
REMARK    3  A    between atoms: C_10  and  O_11
REMARK    4  A    between atoms: C_16  and  C_17
REMARK                            x       y       z     vdW  Elec       q    Type
REMARK                         _______ _______ _______ _____ _____    ______ ____
ROOT
ATOM      1  C   UNL     1       5.804   5.741  15.425  0.00  0.00    +0.000 C 
ATOM      2  N   UNL     1       4.809   5.794  16.469  0.00  0.00    +0.000 N 
ATOM      3  C   UNL     1       4.229   6.911  16.982  0.00  0.00    +0.000 A 
ATOM      4  C   UNL     1       3.332   6.480  17.939  0.00  0.00    +0.000 A 
ATOM      5  C   UNL     1       3.447   5.045  17.921  0.00  0.00    +0.000 A 
ATOM      6  N   UNL     1       4.380   4.655  17.032  0.00  0.00    +0.000 NA
ENDROOT
BRANCH   4   7
ATOM      7  C   UNL     1       2.523   7.394  18.738  0.00  0.00    +0.000 A 
ATOM      8  C   UNL     1       2.249   7.117  20.084  0.00  0.00    +0.000 A 
ATOM      9  C   UNL     1       1.407   7.945  20.831  0.00  0.00    +0.000 A 
ATOM     10  C   UNL     1       0.873   9.112  20.270  0.00  0.00    +0.000 A 
ATOM     11  C   UNL     1       0.055   9.972  21.018  0.00  0.00    +0.000 A 
ATOM     12  C   UNL     1      -0.423  11.148  20.450  0.00  0.00    +0.000 A 
ATOM     13  C   UNL     1      -0.111  11.482  19.139  0.00  0.00    +0.000 A 
ATOM     14  C   UNL     1       0.681  10.624  18.377  0.00  0.00    +0.000 A 
ATOM     15  C   UNL     1       1.181   9.434  18.928  0.00  0.00    +0.000 A 
ATOM     16  C   UNL     1       1.984   8.559  18.176  0.00  0.00    +0.000 A 
BRANCH  12  17
ATOM     17  O   UNL     1      -1.197  12.017  21.160  0.00  0.00    +0.000 OA
ATOM     18  H   UNL     1      -0.731  12.251  21.979  0.00  0.00    +0.000 HD
ENDBRANCH  12  17
ENDBRANCH   4   7
BRANCH   5  19
ATOM     19  C   UNL     1       2.730   4.050  18.724  0.00  0.00    +0.000 A 
ATOM     20  C   UNL     1       1.479   3.570  18.331  0.00  0.00    +0.000 A 
ATOM     21  C   UNL     1       0.789   2.734  19.192  0.00  0.00    +0.000 A 
ATOM     22  N   UNL     1       1.275   2.312  20.377  0.00  0.00    +0.000 NA
ATOM     23  C   UNL     1       2.513   2.736  20.708  0.00  0.00    +0.000 A 
ATOM     24  C   UNL     1       3.270   3.593  19.928  0.00  0.00    +0.000 A 
ENDBRANCH   5  19
TORSDOF 3
ENDMDL
MODEL 9
REMARK VINA RESULT:      -7.9      1.610      3.849
REMARK  Name = 
REMARK  4 active torsions:
REMARK  status: ('A' for Active; 'I' for Inactive)
REMARK    1  A    between atoms: C_1  and  N_2
REMARK    2  A    between atoms: C_4  and  C_5
REMARK    3  A    between atoms: C_10  and  O_11
REMARK    4  A    between atoms: C_16  and  C_17
REMARK                            x       y       z     vdW  Elec       q    Type
REMARK                         _______ _______ _______ _____ _____    ______ ____
ROOT
ATOM      1  C   UNL     1       2.608   2.553  21.509  0.00  0.00    +0.000 C 
ATOM      2  N   UNL     1       2.830   3.696  20.657  0.00  0.00    +0.000 N 
ATOM      3  C   UNL     1       2.150   4.872  20.680  0.00  0.00    +0.000 A 
ATOM      4  C   UNL     1       2.717   5.670  19.707  0.00  0.00    +0.000 A 
ATOM      5  C   UNL     1       3.765   4.861  19.142  0.00  0.00    +0.000 A 
ATOM      6  N   UNL     1       3.793   3.647  19.723  0.00  0.00    +0.000 NA
ENDROOT
BRANCH   4   7
ATOM      7  C   UNL     1       2.240   7.016  19.406  0.00  0.00    +0.000 A 
ATOM      8  C   UNL     1       2.374   7.552  18.118  0.00  0.00    +0.000 A 
ATOM      9  C   UNL     1       1.995   8.869  17.845  0.00  0.00    +0.000 A 
ATOM     10  C   UNL     1       1.406   9.662  18.838  0.00  0.00    +0.000 A 
ATOM     11  C   UNL     1       0.989  10.974  18.569  0.00  0.00    +0.000 A 
ATOM     12  C   UNL     1       0.364  11.723  19.562  0.00  0.00    +0.000 A 
ATOM     13  C   UNL     1       0.157  11.193  20.828  0.00  0.00    +0.000 A 
ATOM     14  C   UNL     1       0.589   9.899  21.114  0.00  0.00    +0.000 A 
ATOM     15  C   UNL     1       1.217   9.120  20.130  0.00  0.00    +0.000 A 
ATOM     16  C   UNL     1       1.656   7.812  20.400  0.00  0.00    +0.000 A 
BRANCH  12  17
ATOM     17  O   UNL     1      -0.077  12.991  19.323  0.00  0.00    +0.000 OA
ATOM     18  H   UNL     1      -0.826  12.948  18.705  0.00  0.00    +0.000 HD
ENDBRANCH  12  17
ENDBRANCH   4   7
BRANCH   5  19
ATOM     19  C   UNL     1       4.710   5.188  18.070  0.00  0.00    +0.000 A 
ATOM     20  C   UNL     1       5.834   5.979  18.315  0.00  0.00    +0.000 A 
ATOM     21  C   UNL     1       6.619   6.368  17.242  0.00  0.00    +0.000 A 
ATOM     22  N   UNL     1       6.390   5.986  15.969  0.00  0.00    +0.000 NA
ATOM     23  C   UNL     1       5.335   5.168  15.763  0.00  0.00    +0.000 A 
ATOM     24  C   UNL     1       4.478   4.748  16.765  0.00  0.00    +0.000 A 
ENDBRANCH   5  19
TORSDOF 3
ENDMDL
