MODEL 1
REMARK VINA RESULT:      -9.5      0.000      0.000
REMARK  Name = 
REMARK  7 active torsions:
REMARK  status: ('A' for Active; 'I' for Inactive)
REMARK    1  A    between atoms: C_1  and  C_2
REMARK    2  A    between atoms: C_2  and  O_3
REMARK    3  A    between atoms: C_2  and  C_22
REMARK    4  A    between atoms: O_3  and  C_4
REMARK    5  A    between atoms: C_12  and  C_13
REMARK    6  A    between atoms: C_13  and  C_14
REMARK    7  A    between atoms: C_20  and  O_21
REMARK                            x       y       z     vdW  Elec       q    Type
REMARK                         _______ _______ _______ _____ _____    ______ ____
ROOT
ATOM      1  C   UNL     1       8.038   8.669  18.128  0.00  0.00    +0.000 A 
ATOM      2  C   UNL     1       8.488   7.645  18.950  0.00  0.00    +0.000 A 
ATOM      3  C   UNL     1       8.007   6.333  18.757  0.00  0.00    +0.000 A 
ATOM      4  C   UNL     1       7.064   6.036  17.754  0.00  0.00    +0.000 A 
ATOM      5  C   UNL     1       6.659   7.070  16.910  0.00  0.00    +0.000 A 
ATOM      6  C   UNL     1       7.138   8.367  17.099  0.00  0.00    +0.000 A 
ATOM      7  O   UNL     1       5.752   6.909  15.894  0.00  0.00    +0.000 OA
ATOM      8  C   UNL     1       5.554   5.552  15.479  0.00  0.00    +0.000 C 
ATOM      9  C   UNL     1       5.266   4.622  16.654  0.00  0.00    +0.000 C 
ATOM     10  C   UNL     1       6.540   4.635  17.529  0.00  0.00    +0.000 C 
ENDROOT
BRANCH  10  11
ATOM     11  O   UNL     1       6.309   3.940  18.751  0.00  0.00    +0.000 OA
ATOM     12  H   UNL     1       5.456   3.480  18.667  0.00  0.00    +0.000 HD
ENDBRANCH  10  11
BRANCH   1  13
ATOM     13  O   UNL     1       8.432   9.967  18.146  0.00  0.00    +0.000 OA
BRANCH  13  15
ATOM     14  C   UNL     1       9.288  10.643  20.206  0.00  0.00    +0.000 C 
ATOM     15  C   UNL     1       9.697  10.399  18.712  0.00  0.00    +0.000 C 
BRANCH  15  16
ATOM     16  C   UNL     1      10.171  11.698  18.047  0.00  0.00    +0.000 A 
ATOM     17  C   UNL     1      11.556  11.792  17.941  0.00  0.00    +0.000 A 
ATOM     18  C   UNL     1      12.025  12.915  17.306  0.00  0.00    +0.000 A 
ATOM     19  C   UNL     1      11.430  14.008  17.842  0.00  0.00    +0.000 A 
ATOM     20  C   UNL     1      12.229  14.981  18.436  0.00  0.00    +0.000 A 
ATOM     21  C   UNL     1      11.671  16.211  18.729  0.00  0.00    +0.000 A 
ATOM     22  C   UNL     1      10.386  16.462  18.326  0.00  0.00    +0.000 A 
ATOM     23  C   UNL     1       9.563  15.397  17.882  0.00  0.00    +0.000 A 
ATOM     24  C   UNL     1      10.043  14.065  17.818  0.00  0.00    +0.000 A 
ATOM     25  N   UNL     1       9.384  12.837  17.832  0.00  0.00    +0.000 NA
ENDBRANCH  15  16
ENDBRANCH  13  15
ENDBRANCH   1  13
BRANCH   9  26
ATOM     26  C   UNL     1       3.988   5.008  17.438  0.00  0.00    +0.000 C 
BRANCH  26  27
ATOM     27  C   UNL     1       3.089   3.859  17.852  0.00  0.00    +0.000 A 
ATOM     28  C   UNL     1       1.733   4.089  18.091  0.00  0.00    +0.000 A 
ATOM     29  C   UNL     1       0.962   3.076  18.661  0.00  0.00    +0.000 A 
ATOM     30  C   UNL     1       1.554   1.853  18.949  0.00  0.00    +0.000 A 
ATOM     31  C   UNL     1       2.891   1.690  18.636  0.00  0.00    +0.000 A 
ATOM     32  N   UNL     1       3.671   2.664  18.113  0.00  0.00    +0.000 NA
ENDBRANCH  26  27
ENDBRANCH   9  26
TORSDOF 6
ENDMDL
MODEL 2
REMARK VINA RESULT:      -8.9      1.291      1.708
REMARK  Name = 
REMARK  7 active torsions:
REMARK  status: ('A' for Active; 'I' for Inactive)
REMARK    1  A    between atoms: C_1  and  C_2
REMARK    2  A    between atoms: C_2  and  O_3
REMARK    3  A    between atoms: C_2  and  C_22
REMARK    4  A    between atoms: O_3  and  C_4
REMARK    5  A    between atoms: C_12  and  C_13
REMARK    6  A    between atoms: C_13  and  C_14
REMARK    7  A    between atoms: C_20  and  O_21
REMARK                            x       y       z     vdW  Elec       q    Type
REMARK                         _______ _______ _______ _____ _____    ______ ____
ROOT
ATOM      1  C   UNL     1       8.134   7.762  18.081  0.00  0.00    +0.000 A 
ATOM      2  C   UNL     1       8.252   6.876  19.143  0.00  0.00    +0.000 A 
ATOM      3  C   UNL     1       7.489   5.690  19.149  0.00  0.00    +0.000 A 
ATOM      4  C   UNL     1       6.592   5.388  18.106  0.00  0.00    +0.000 A 
ATOM      5  C   UNL     1       6.522   6.269  17.027  0.00  0.00    +0.000 A 
ATOM      6  C   UNL     1       7.281   7.440  17.020  0.00  0.00    +0.000 A 
ATOM      7  O   UNL     1       5.694   6.085  15.950  0.00  0.00    +0.000 OA
ATOM      8  C   UNL     1       5.212   4.746  15.788  0.00  0.00    +0.000 C 
ATOM      9  C   UNL     1       4.608   4.188  17.074  0.00  0.00    +0.000 C 
ATOM     10  C   UNL     1       5.767   4.120  18.094  0.00  0.00    +0.000 C 
ENDROOT
BRANCH  10  11
ATOM     11  O   UNL     1       5.271   3.783  19.386  0.00  0.00    +0.000 OA
ATOM     12  H   UNL     1       4.306   3.687  19.311  0.00  0.00    +0.000 HD
ENDBRANCH  10  11
BRANCH   1  13
ATOM     13  O   UNL     1       8.827   8.915  17.895  0.00  0.00    +0.000 OA
BRANCH  13  15
ATOM     14  C   UNL     1       7.563  10.872  17.807  0.00  0.00    +0.000 C 
ATOM     15  C   UNL     1       8.604  10.105  18.694  0.00  0.00    +0.000 C 
BRANCH  15  16
ATOM     16  C   UNL     1       9.904  10.907  18.844  0.00  0.00    +0.000 A 
ATOM     17  C   UNL     1      10.119  11.378  20.136  0.00  0.00    +0.000 A 
ATOM     18  C   UNL     1      11.296  12.059  20.328  0.00  0.00    +0.000 A 
ATOM     19  C   UNL     1      11.426  12.999  19.362  0.00  0.00    +0.000 A 
ATOM     20  C   UNL     1      11.519  14.337  19.738  0.00  0.00    +0.000 A 
ATOM     21  C   UNL     1      11.928  15.265  18.799  0.00  0.00    +0.000 A 
ATOM     22  C   UNL     1      12.332  14.819  17.569  0.00  0.00    +0.000 A 
ATOM     23  C   UNL     1      12.063  13.483  17.176  0.00  0.00    +0.000 A 
ATOM     24  C   UNL     1      11.403  12.575  18.039  0.00  0.00    +0.000 A 
ATOM     25  N   UNL     1      10.672  11.416  17.787  0.00  0.00    +0.000 NA
ENDBRANCH  15  16
ENDBRANCH  13  15
ENDBRANCH   1  13
BRANCH   9  26
ATOM     26  C   UNL     1       3.398   5.007  17.585  0.00  0.00    +0.000 C 
BRANCH  26  27
ATOM     27  C   UNL     1       2.473   4.295  18.553  0.00  0.00    +0.000 A 
ATOM     28  C   UNL     1       1.953   4.982  19.651  0.00  0.00    +0.000 A 
ATOM     29  C   UNL     1       1.271   4.271  20.637  0.00  0.00    +0.000 A 
ATOM     30  C   UNL     1       1.098   2.901  20.490  0.00  0.00    +0.000 A 
ATOM     31  C   UNL     1       1.601   2.303  19.349  0.00  0.00    +0.000 A 
ATOM     32  N   UNL     1       2.294   2.961  18.390  0.00  0.00    +0.000 NA
ENDBRANCH  26  27
ENDBRANCH   9  26
TORSDOF 6
ENDMDL
MODEL 3
REMARK VINA RESULT:      -8.9      5.879      8.883
REMARK  Name = 
REMARK  7 active torsions:
REMARK  status: ('A' for Active; 'I' for Inactive)
REMARK    1  A    between atoms: C_1  and  C_2
REMARK    2  A    between atoms: C_2  and  O_3
REMARK    3  A    between atoms: C_2  and  C_22
REMARK    4  A    between atoms: O_3  and  C_4
REMARK    5  A    between atoms: C_12  and  C_13
REMARK    6  A    between atoms: C_13  and  C_14
REMARK    7  A    between atoms: C_20  and  O_21
REMARK                            x       y       z     vdW  Elec       q    Type
REMARK                         _______ _______ _______ _____ _____    ______ ____
ROOT
ATOM      1  C   UNL     1       2.095   6.956  19.568  0.00  0.00    +0.000 A 
ATOM      2  C   UNL     1       2.479   5.821  20.270  0.00  0.00    +0.000 A 
ATOM      3  C   UNL     1       3.633   5.114  19.875  0.00  0.00    +0.000 A 
ATOM      4  C   UNL     1       4.403   5.523  18.769  0.00  0.00    +0.000 A 
ATOM      5  C   UNL     1       4.027   6.691  18.105  0.00  0.00    +0.000 A 
ATOM      6  C   UNL     1       2.887   7.393  18.500  0.00  0.00    +0.000 A 
ATOM      7  O   UNL     1       4.696   7.196  17.021  0.00  0.00    +0.000 OA
ATOM      8  C   UNL     1       6.031   6.701  16.857  0.00  0.00    +0.000 C 
ATOM      9  C   UNL     1       6.094   5.177  16.908  0.00  0.00    +0.000 C 
ATOM     10  C   UNL     1       5.646   4.780  18.332  0.00  0.00    +0.000 C 
ENDROOT
BRANCH  10  11
ATOM     11  O   UNL     1       5.494   3.367  18.428  0.00  0.00    +0.000 OA
ATOM     12  H   UNL     1       4.962   3.185  19.222  0.00  0.00    +0.000 HD
ENDBRANCH  10  11
BRANCH   1  13
ATOM     13  O   UNL     1       1.049   7.774  19.843  0.00  0.00    +0.000 OA
BRANCH  13  15
ATOM     14  C   UNL     1       0.671   9.158  21.681  0.00  0.00    +0.000 C 
ATOM     15  C   UNL     1       1.213   9.169  20.209  0.00  0.00    +0.000 C 
BRANCH  15  16
ATOM     16  C   UNL     1       0.357  10.069  19.309  0.00  0.00    +0.000 A 
ATOM     17  C   UNL     1      -0.188  11.162  19.976  0.00  0.00    +0.000 A 
ATOM     18  C   UNL     1      -0.921  12.024  19.199  0.00  0.00    +0.000 A 
ATOM     19  C   UNL     1      -1.814  11.312  18.470  0.00  0.00    +0.000 A 
ATOM     20  C   UNL     1      -3.172  11.573  18.635  0.00  0.00    +0.000 A 
ATOM     21  C   UNL     1      -4.064  11.064  17.711  0.00  0.00    +0.000 A 
ATOM     22  C   UNL     1      -3.569  10.415  16.610  0.00  0.00    +0.000 A 
ATOM     23  C   UNL     1      -2.206  10.027  16.569  0.00  0.00    +0.000 A 
ATOM     24  C   UNL     1      -1.321  10.317  17.636  0.00  0.00    +0.000 A 
ATOM     25  N   UNL     1      -0.123   9.728  18.037  0.00  0.00    +0.000 NA
ENDBRANCH  15  16
ENDBRANCH  13  15
ENDBRANCH   1  13
BRANCH   9  26
ATOM     26  C   UNL     1       5.258   4.496  15.797  0.00  0.00    +0.000 C 
BRANCH  26  27
ATOM     27  C   UNL     1       5.886   4.465  14.417  0.00  0.00    +0.000 A 
ATOM     28  C   UNL     1       5.362   3.623  13.434  0.00  0.00    +0.000 A 
ATOM     29  C   UNL     1       6.063   3.453  12.240  0.00  0.00    +0.000 A 
ATOM     30  C   UNL     1       7.248   4.149  12.044  0.00  0.00    +0.000 A 
ATOM     31  C   UNL     1       7.675   5.000  13.047  0.00  0.00    +0.000 A 
ATOM     32  N   UNL     1       7.033   5.161  14.228  0.00  0.00    +0.000 NA
ENDBRANCH  26  27
ENDBRANCH   9  26
TORSDOF 6
ENDMDL
MODEL 4
REMARK VINA RESULT:      -8.6      6.254     10.865
REMARK  Name = 
REMARK  7 active torsions:
REMARK  status: ('A' for Active; 'I' for Inactive)
REMARK    1  A    between atoms: C_1  and  C_2
REMARK    2  A    between atoms: C_2  and  O_3
REMARK    3  A    between atoms: C_2  and  C_22
REMARK    4  A    between atoms: O_3  and  C_4
REMARK    5  A    between atoms: C_12  and  C_13
REMARK    6  A    between atoms: C_13  and  C_14
REMARK    7  A    between atoms: C_20  and  O_21
REMARK                            x       y       z     vdW  Elec       q    Type
REMARK                         _______ _______ _______ _____ _____    ______ ____
ROOT
ATOM      1  C   UNL     1       2.719   7.844  18.312  0.00  0.00    +0.000 A 
ATOM      2  C   UNL     1       2.533   7.310  19.580  0.00  0.00    +0.000 A 
ATOM      3  C   UNL     1       1.596   7.898  20.454  0.00  0.00    +0.000 A 
ATOM      4  C   UNL     1       0.851   9.033  20.077  0.00  0.00    +0.000 A 
ATOM      5  C   UNL     1       1.020   9.527  18.784  0.00  0.00    +0.000 A 
ATOM      6  C   UNL     1       1.944   8.941  17.918  0.00  0.00    +0.000 A 
ATOM      7  O   UNL     1       0.352  10.620  18.296  0.00  0.00    +0.000 OA
ATOM      8  C   UNL     1      -0.826  10.977  19.030  0.00  0.00    +0.000 C 
ATOM      9  C   UNL     1      -0.562  11.092  20.529  0.00  0.00    +0.000 C 
ATOM     10  C   UNL     1      -0.160   9.676  20.999  0.00  0.00    +0.000 C 
ENDROOT
BRANCH  10  11
ATOM     11  O   UNL     1       0.285   9.711  22.352  0.00  0.00    +0.000 OA
ATOM     12  H   UNL     1       0.851  10.496  22.452  0.00  0.00    +0.000 HD
ENDBRANCH  10  11
BRANCH   1  13
ATOM     13  O   UNL     1       3.538   7.374  17.338  0.00  0.00    +0.000 OA
BRANCH  13  15
ATOM     14  C   UNL     1       5.332   6.426  16.192  0.00  0.00    +0.000 C 
ATOM     15  C   UNL     1       4.657   6.491  17.606  0.00  0.00    +0.000 C 
BRANCH  15  16
ATOM     16  C   UNL     1       4.162   5.108  18.049  0.00  0.00    +0.000 A 
ATOM     17  C   UNL     1       3.336   4.489  17.114  0.00  0.00    +0.000 A 
ATOM     18  C   UNL     1       2.910   3.227  17.446  0.00  0.00    +0.000 A 
ATOM     19  C   UNL     1       2.411   3.246  18.705  0.00  0.00    +0.000 A 
ATOM     20  C   UNL     1       1.082   2.883  18.904  0.00  0.00    +0.000 A 
ATOM     21  C   UNL     1       0.647   2.629  20.191  0.00  0.00    +0.000 A 
ATOM     22  C   UNL     1       1.565   2.637  21.207  0.00  0.00    +0.000 A 
ATOM     23  C   UNL     1       2.860   3.173  20.988  0.00  0.00    +0.000 A 
ATOM     24  C   UNL     1       3.246   3.684  19.725  0.00  0.00    +0.000 A 
ATOM     25  N   UNL     1       4.230   4.599  19.353  0.00  0.00    +0.000 NA
ENDBRANCH  15  16
ENDBRANCH  13  15
ENDBRANCH   1  13
BRANCH   9  26
ATOM     26  C   UNL     1       0.491  12.170  20.881  0.00  0.00    +0.000 C 
BRANCH  26  27
ATOM     27  C   UNL     1       0.057  13.222  21.884  0.00  0.00    +0.000 A 
ATOM     28  C   UNL     1      -0.971  12.939  22.786  0.00  0.00    +0.000 A 
ATOM     29  C   UNL     1      -1.495  13.971  23.563  0.00  0.00    +0.000 A 
ATOM     30  C   UNL     1      -0.963  15.248  23.445  0.00  0.00    +0.000 A 
ATOM     31  C   UNL     1       0.086  15.435  22.564  0.00  0.00    +0.000 A 
ATOM     32  N   UNL     1       0.595  14.461  21.774  0.00  0.00    +0.000 NA
ENDBRANCH  26  27
ENDBRANCH   9  26
TORSDOF 6
ENDMDL
MODEL 5
REMARK VINA RESULT:      -8.5      5.778     10.941
REMARK  Name = 
REMARK  7 active torsions:
REMARK  status: ('A' for Active; 'I' for Inactive)
REMARK    1  A    between atoms: C_1  and  C_2
REMARK    2  A    between atoms: C_2  and  O_3
REMARK    3  A    between atoms: C_2  and  C_22
REMARK    4  A    between atoms: O_3  and  C_4
REMARK    5  A    between atoms: C_12  and  C_13
REMARK    6  A    between atoms: C_13  and  C_14
REMARK    7  A    between atoms: C_20  and  O_21
REMARK                            x       y       z     vdW  Elec       q    Type
REMARK                         _______ _______ _______ _____ _____    ______ ____
ROOT
ATOM      1  C   UNL     1       2.528   8.017  18.343  0.00  0.00    +0.000 A 
ATOM      2  C   UNL     1       2.309   7.537  19.626  0.00  0.00    +0.000 A 
ATOM      3  C   UNL     1       1.469   8.252  20.505  0.00  0.00    +0.000 A 
ATOM      4  C   UNL     1       0.857   9.460  20.115  0.00  0.00    +0.000 A 
ATOM      5  C   UNL     1       1.054   9.902  18.807  0.00  0.00    +0.000 A 
ATOM      6  C   UNL     1       1.881   9.190  17.937  0.00  0.00    +0.000 A 
ATOM      7  O   UNL     1       0.510  11.055  18.306  0.00  0.00    +0.000 OA
ATOM      8  C   UNL     1      -0.599  11.568  19.055  0.00  0.00    +0.000 C 
ATOM      9  C   UNL     1      -0.290  11.683  20.545  0.00  0.00    +0.000 C 
ATOM     10  C   UNL     1      -0.049  10.239  21.042  0.00  0.00    +0.000 C 
ENDROOT
BRANCH  10  11
ATOM     11  O   UNL     1       0.428  10.251  22.384  0.00  0.00    +0.000 OA
ATOM     12  H   UNL     1       0.433  11.177  22.683  0.00  0.00    +0.000 HD
ENDBRANCH  10  11
BRANCH   1  13
ATOM     13  O   UNL     1       3.262   7.431  17.363  0.00  0.00    +0.000 OA
BRANCH  13  15
ATOM     14  C   UNL     1       5.088   6.561  16.204  0.00  0.00    +0.000 C 
ATOM     15  C   UNL     1       4.445   6.636  17.633  0.00  0.00    +0.000 C 
BRANCH  15  16
ATOM     16  C   UNL     1       4.056   5.241  18.140  0.00  0.00    +0.000 A 
ATOM     17  C   UNL     1       3.413   4.462  17.182  0.00  0.00    +0.000 A 
ATOM     18  C   UNL     1       3.092   3.187  17.576  0.00  0.00    +0.000 A 
ATOM     19  C   UNL     1       2.456   3.240  18.771  0.00  0.00    +0.000 A 
ATOM     20  C   UNL     1       1.160   2.739  18.862  0.00  0.00    +0.000 A 
ATOM     21  C   UNL     1       0.613   2.533  20.115  0.00  0.00    +0.000 A 
ATOM     22  C   UNL     1       1.406   2.724  21.216  0.00  0.00    +0.000 A 
ATOM     23  C   UNL     1       2.651   3.390  21.086  0.00  0.00    +0.000 A 
ATOM     24  C   UNL     1       3.119   3.847  19.830  0.00  0.00    +0.000 A 
ATOM     25  N   UNL     1       4.033   4.841  19.483  0.00  0.00    +0.000 NA
ENDBRANCH  15  16
ENDBRANCH  13  15
ENDBRANCH   1  13
BRANCH   9  26
ATOM     26  C   UNL     1       0.893  12.634  20.849  0.00  0.00    +0.000 C 
BRANCH  26  27
ATOM     27  C   UNL     1       0.931  13.925  20.053  0.00  0.00    +0.000 A 
ATOM     28  C   UNL     1       1.992  14.172  19.181  0.00  0.00    +0.000 A 
ATOM     29  C   UNL     1       2.121  15.437  18.609  0.00  0.00    +0.000 A 
ATOM     30  C   UNL     1       1.173  16.411  18.895  0.00  0.00    +0.000 A 
ATOM     31  C   UNL     1       0.124  16.071  19.730  0.00  0.00    +0.000 A 
ATOM     32  N   UNL     1      -0.009  14.862  20.324  0.00  0.00    +0.000 NA
ENDBRANCH  26  27
ENDBRANCH   9  26
TORSDOF 6
ENDMDL
MODEL 6
REMARK VINA RESULT:      -8.5      5.317      7.241
REMARK  Name = 
REMARK  7 active torsions:
REMARK  status: ('A' for Active; 'I' for Inactive)
REMARK    1  A    between atoms: C_1  and  C_2
REMARK    2  A    between atoms: C_2  and  O_3
REMARK    3  A    between atoms: C_2  and  C_22
REMARK    4  A    between atoms: O_3  and  C_4
REMARK    5  A    between atoms: C_12  and  C_13
REMARK    6  A    between atoms: C_13  and  C_14
REMARK    7  A    between atoms: C_20  and  O_21
REMARK                            x       y       z     vdW  Elec       q    Type
REMARK                         _______ _______ _______ _____ _____    ______ ____
ROOT
ATOM      1  C   UNL     1       2.200   7.214  19.343  0.00  0.00    +0.000 A 
ATOM      2  C   UNL     1       2.470   6.085  20.105  0.00  0.00    +0.000 A 
ATOM      3  C   UNL     1       3.584   5.280  19.788  0.00  0.00    +0.000 A 
ATOM      4  C   UNL     1       4.426   5.585  18.702  0.00  0.00    +0.000 A 
ATOM      5  C   UNL     1       4.165   6.749  17.977  0.00  0.00    +0.000 A 
ATOM      6  C   UNL     1       3.065   7.546  18.294  0.00  0.00    +0.000 A 
ATOM      7  O   UNL     1       4.912   7.158  16.904  0.00  0.00    +0.000 OA
ATOM      8  C   UNL     1       6.212   6.561  16.817  0.00  0.00    +0.000 C 
ATOM      9  C   UNL     1       6.161   5.040  16.930  0.00  0.00    +0.000 C 
ATOM     10  C   UNL     1       5.627   4.737  18.349  0.00  0.00    +0.000 C 
ENDROOT
BRANCH  10  11
ATOM     11  O   UNL     1       5.368   3.343  18.493  0.00  0.00    +0.000 OA
ATOM     12  H   UNL     1       4.455   3.185  18.196  0.00  0.00    +0.000 HD
ENDBRANCH  10  11
BRANCH   1  13
ATOM     13  O   UNL     1       1.207   8.116  19.540  0.00  0.00    +0.000 OA
BRANCH  13  15
ATOM     14  C   UNL     1      -0.169   8.319  21.412  0.00  0.00    +0.000 C 
ATOM     15  C   UNL     1       1.108   8.931  20.737  0.00  0.00    +0.000 C 
BRANCH  15  16
ATOM     16  C   UNL     1       0.890  10.405  20.372  0.00  0.00    +0.000 A 
ATOM     17  C   UNL     1       0.547  10.600  19.037  0.00  0.00    +0.000 A 
ATOM     18  C   UNL     1       0.292  11.900  18.676  0.00  0.00    +0.000 A 
ATOM     19  C   UNL     1       1.304  12.688  19.114  0.00  0.00    +0.000 A 
ATOM     20  C   UNL     1       2.040  13.412  18.180  0.00  0.00    +0.000 A 
ATOM     21  C   UNL     1       2.876  14.418  18.628  0.00  0.00    +0.000 A 
ATOM     22  C   UNL     1       2.864  14.735  19.960  0.00  0.00    +0.000 A 
ATOM     23  C   UNL     1       2.235  13.869  20.890  0.00  0.00    +0.000 A 
ATOM     24  C   UNL     1       1.586  12.681  20.474  0.00  0.00    +0.000 A 
ATOM     25  N   UNL     1       1.278  11.503  21.152  0.00  0.00    +0.000 NA
ENDBRANCH  15  16
ENDBRANCH  13  15
ENDBRANCH   1  13
BRANCH   9  26
ATOM     26  C   UNL     1       5.322   4.374  15.812  0.00  0.00    +0.000 C 
BRANCH  26  27
ATOM     27  C   UNL     1       5.930   4.396  14.423  0.00  0.00    +0.000 A 
ATOM     28  C   UNL     1       5.416   3.564  13.426  0.00  0.00    +0.000 A 
ATOM     29  C   UNL     1       6.103   3.445  12.219  0.00  0.00    +0.000 A 
ATOM     30  C   UNL     1       7.266   4.179  12.024  0.00  0.00    +0.000 A 
ATOM     31  C   UNL     1       7.682   5.017  13.042  0.00  0.00    +0.000 A 
ATOM     32  N   UNL     1       7.054   5.130  14.236  0.00  0.00    +0.000 NA
ENDBRANCH  26  27
ENDBRANCH   9  26
TORSDOF 6
ENDMDL
MODEL 7
REMARK VINA RESULT:      -8.4      6.156      8.652
REMARK  Name = 
REMARK  7 active torsions:
REMARK  status: ('A' for Active; 'I' for Inactive)
REMARK    1  A    between atoms: C_1  and  C_2
REMARK    2  A    between atoms: C_2  and  O_3
REMARK    3  A    between atoms: C_2  and  C_22
REMARK    4  A    between atoms: O_3  and  C_4
REMARK    5  A    between atoms: C_12  and  C_13
REMARK    6  A    between atoms: C_13  and  C_14
REMARK    7  A    between atoms: C_20  and  O_21
REMARK                            x       y       z     vdW  Elec       q    Type
REMARK                         _______ _______ _______ _____ _____    ______ ____
ROOT
ATOM      1  C   UNL     1       1.981   6.456  19.997  0.00  0.00    +0.000 A 
ATOM      2  C   UNL     1       1.859   5.089  20.209  0.00  0.00    +0.000 A 
ATOM      3  C   UNL     1       2.807   4.209  19.646  0.00  0.00    +0.000 A 
ATOM      4  C   UNL     1       3.872   4.684  18.856  0.00  0.00    +0.000 A 
ATOM      5  C   UNL     1       4.003   6.063  18.693  0.00  0.00    +0.000 A 
ATOM      6  C   UNL     1       3.067   6.933  19.254  0.00  0.00    +0.000 A 
ATOM      7  O   UNL     1       4.997   6.648  17.953  0.00  0.00    +0.000 OA
ATOM      8  C   UNL     1       6.129   5.807  17.700  0.00  0.00    +0.000 C 
ATOM      9  C   UNL     1       5.725   4.446  17.138  0.00  0.00    +0.000 C 
ATOM     10  C   UNL     1       4.900   3.756  18.248  0.00  0.00    +0.000 C 
ENDROOT
BRANCH  10  11
ATOM     11  O   UNL     1       4.319   2.551  17.756  0.00  0.00    +0.000 OA
ATOM     12  H   UNL     1       3.367   2.714  17.641  0.00  0.00    +0.000 HD
ENDBRANCH  10  11
BRANCH   1  13
ATOM     13  O   UNL     1       1.192   7.437  20.502  0.00  0.00    +0.000 OA
BRANCH  13  15
ATOM     14  C   UNL     1       1.245   9.052  22.182  0.00  0.00    +0.000 C 
ATOM     15  C   UNL     1       1.650   8.801  20.688  0.00  0.00    +0.000 C 
BRANCH  15  16
ATOM     16  C   UNL     1       0.907   9.755  19.744  0.00  0.00    +0.000 A 
ATOM     17  C   UNL     1       0.576  10.972  20.333  0.00  0.00    +0.000 A 
ATOM     18  C   UNL     1      -0.045  11.878  19.509  0.00  0.00    +0.000 A 
ATOM     19  C   UNL     1      -1.074  11.266  18.875  0.00  0.00    +0.000 A 
ATOM     20  C   UNL     1      -2.363  11.758  19.064  0.00  0.00    +0.000 A 
ATOM     21  C   UNL     1      -3.369  11.329  18.218  0.00  0.00    +0.000 A 
ATOM     22  C   UNL     1      -3.037  10.523  17.161  0.00  0.00    +0.000 A 
ATOM     23  C   UNL     1      -1.758   9.916  17.107  0.00  0.00    +0.000 A 
ATOM     24  C   UNL     1      -0.787  10.141  18.114  0.00  0.00    +0.000 A 
ATOM     25  N   UNL     1       0.318   9.397  18.523  0.00  0.00    +0.000 NA
ENDBRANCH  15  16
ENDBRANCH  13  15
ENDBRANCH   1  13
BRANCH   9  26
ATOM     26  C   UNL     1       4.969   4.544  15.791  0.00  0.00    +0.000 C 
BRANCH  26  27
ATOM     27  C   UNL     1       5.803   4.324  14.543  0.00  0.00    +0.000 A 
ATOM     28  C   UNL     1       6.988   5.039  14.365  0.00  0.00    +0.000 A 
ATOM     29  C   UNL     1       7.639   4.979  13.133  0.00  0.00    +0.000 A 
ATOM     30  C   UNL     1       7.111   4.185  12.124  0.00  0.00    +0.000 A 
ATOM     31  C   UNL     1       5.959   3.469  12.397  0.00  0.00    +0.000 A 
ATOM     32  N   UNL     1       5.289   3.532  13.571  0.00  0.00    +0.000 NA
ENDBRANCH  26  27
ENDBRANCH   9  26
TORSDOF 6
ENDMDL
MODEL 8
REMARK VINA RESULT:      -8.4      6.963     10.349
REMARK  Name = 
REMARK  7 active torsions:
REMARK  status: ('A' for Active; 'I' for Inactive)
REMARK    1  A    between atoms: C_1  and  C_2
REMARK    2  A    between atoms: C_2  and  O_3
REMARK    3  A    between atoms: C_2  and  C_22
REMARK    4  A    between atoms: O_3  and  C_4
REMARK    5  A    between atoms: C_12  and  C_13
REMARK    6  A    between atoms: C_13  and  C_14
REMARK    7  A    between atoms: C_20  and  O_21
REMARK                            x       y       z     vdW  Elec       q    Type
REMARK                         _______ _______ _______ _____ _____    ______ ____
ROOT
ATOM      1  C   UNL     1       1.920   7.975  19.563  0.00  0.00    +0.000 A 
ATOM      2  C   UNL     1       1.813   8.467  18.269  0.00  0.00    +0.000 A 
ATOM      3  C   UNL     1       1.303   9.765  18.057  0.00  0.00    +0.000 A 
ATOM      4  C   UNL     1       0.882  10.574  19.130  0.00  0.00    +0.000 A 
ATOM      5  C   UNL     1       1.040  10.078  20.425  0.00  0.00    +0.000 A 
ATOM      6  C   UNL     1       1.549   8.796  20.634  0.00  0.00    +0.000 A 
ATOM      7  O   UNL     1       0.674  10.769  21.551  0.00  0.00    +0.000 OA
ATOM      8  C   UNL     1       0.507  12.179  21.360  0.00  0.00    +0.000 C 
ATOM      9  C   UNL     1      -0.398  12.501  20.175  0.00  0.00    +0.000 C 
ATOM     10  C   UNL     1       0.335  11.968  18.923  0.00  0.00    +0.000 C 
ENDROOT
BRANCH  10  11
ATOM     11  O   UNL     1      -0.509  12.055  17.779  0.00  0.00    +0.000 OA
ATOM     12  H   UNL     1      -1.311  12.538  18.046  0.00  0.00    +0.000 HD
ENDBRANCH  10  11
BRANCH   1  13
ATOM     13  O   UNL     1       2.432   6.778  19.944  0.00  0.00    +0.000 OA
BRANCH  13  15
ATOM     14  C   UNL     1       1.512   4.693  20.439  0.00  0.00    +0.000 C 
ATOM     15  C   UNL     1       2.120   5.535  19.263  0.00  0.00    +0.000 C 
BRANCH  15  16
ATOM     16  C   UNL     1       3.396   4.883  18.715  0.00  0.00    +0.000 A 
ATOM     17  C   UNL     1       4.553   5.288  19.375  0.00  0.00    +0.000 A 
ATOM     18  C   UNL     1       5.714   4.691  18.951  0.00  0.00    +0.000 A 
ATOM     19  C   UNL     1       5.785   4.769  17.601  0.00  0.00    +0.000 A 
ATOM     20  C   UNL     1       6.860   5.442  17.025  0.00  0.00    +0.000 A 
ATOM     21  C   UNL     1       7.091   5.289  15.671  0.00  0.00    +0.000 A 
ATOM     22  C   UNL     1       6.322   4.398  14.971  0.00  0.00    +0.000 A 
ATOM     23  C   UNL     1       5.143   3.869  15.553  0.00  0.00    +0.000 A 
ATOM     24  C   UNL     1       4.743   4.219  16.866  0.00  0.00    +0.000 A 
ATOM     25  N   UNL     1       3.501   4.197  17.497  0.00  0.00    +0.000 NA
ENDBRANCH  15  16
ENDBRANCH  13  15
ENDBRANCH   1  13
BRANCH   9  26
ATOM     26  C   UNL     1      -1.829  11.929  20.328  0.00  0.00    +0.000 C 
BRANCH  26  27
ATOM     27  C   UNL     1      -2.725  12.639  21.325  0.00  0.00    +0.000 A 
ATOM     28  C   UNL     1      -2.786  12.192  22.646  0.00  0.00    +0.000 A 
ATOM     29  C   UNL     1      -3.755  12.720  23.498  0.00  0.00    +0.000 A 
ATOM     30  C   UNL     1      -4.616  13.700  23.023  0.00  0.00    +0.000 A 
ATOM     31  C   UNL     1      -4.458  14.123  21.715  0.00  0.00    +0.000 A 
ATOM     32  N   UNL     1      -3.549  13.608  20.856  0.00  0.00    +0.000 NA
ENDBRANCH  26  27
ENDBRANCH   9  26
TORSDOF 6
ENDMDL
MODEL 9
REMARK VINA RESULT:      -8.4      6.489     11.099
REMARK  Name = 
REMARK  7 active torsions:
REMARK  status: ('A' for Active; 'I' for Inactive)
REMARK    1  A    between atoms: C_1  and  C_2
REMARK    2  A    between atoms: C_2  and  O_3
REMARK    3  A    between atoms: C_2  and  C_22
REMARK    4  A    between atoms: O_3  and  C_4
REMARK    5  A    between atoms: C_12  and  C_13
REMARK    6  A    between atoms: C_13  and  C_14
REMARK    7  A    between atoms: C_20  and  O_21
REMARK                            x       y       z     vdW  Elec       q    Type
REMARK                         _______ _______ _______ _____ _____    ______ ____
ROOT
ATOM      1  C   UNL     1       2.333   8.137  18.515  0.00  0.00    +0.000 A 
ATOM      2  C   UNL     1       2.189   7.637  19.802  0.00  0.00    +0.000 A 
ATOM      3  C   UNL     1       1.326   8.285  20.709  0.00  0.00    +0.000 A 
ATOM      4  C   UNL     1       0.613   9.444  20.346  0.00  0.00    +0.000 A 
ATOM      5  C   UNL     1       0.737   9.904  19.035  0.00  0.00    +0.000 A 
ATOM      6  C   UNL     1       1.588   9.260  18.137  0.00  0.00    +0.000 A 
ATOM      7  O   UNL     1       0.093  11.016  18.558  0.00  0.00    +0.000 OA
ATOM      8  C   UNL     1      -1.028  11.441  19.342  0.00  0.00    +0.000 C 
ATOM      9  C   UNL     1      -0.682  11.574  20.823  0.00  0.00    +0.000 C 
ATOM     10  C   UNL     1      -0.320  10.151  21.304  0.00  0.00    +0.000 C 
ENDROOT
BRANCH  10  11
ATOM     11  O   UNL     1       0.196  10.192  22.631  0.00  0.00    +0.000 OA
ATOM     12  H   UNL     1      -0.074   9.369  23.074  0.00  0.00    +0.000 HD
ENDBRANCH  10  11
BRANCH   1  13
ATOM     13  O   UNL     1       3.078   7.611  17.510  0.00  0.00    +0.000 OA
BRANCH  13  15
ATOM     14  C   UNL     1       4.919   6.846  16.301  0.00  0.00    +0.000 C 
ATOM     15  C   UNL     1       4.301   6.865  17.743  0.00  0.00    +0.000 C 
BRANCH  15  16
ATOM     16  C   UNL     1       3.984   5.444  18.229  0.00  0.00    +0.000 A 
ATOM     17  C   UNL     1       3.448   4.626  17.239  0.00  0.00    +0.000 A 
ATOM     18  C   UNL     1       3.195   3.330  17.615  0.00  0.00    +0.000 A 
ATOM     19  C   UNL     1       2.496   3.335  18.775  0.00  0.00    +0.000 A 
ATOM     20  C   UNL     1       1.235   2.745  18.798  0.00  0.00    +0.000 A 
ATOM     21  C   UNL     1       0.639   2.496  20.020  0.00  0.00    +0.000 A 
ATOM     22  C   UNL     1       1.357   2.738  21.161  0.00  0.00    +0.000 A 
ATOM     23  C   UNL     1       2.558   3.489  21.097  0.00  0.00    +0.000 A 
ATOM     24  C   UNL     1       3.058   3.983  19.867  0.00  0.00    +0.000 A 
ATOM     25  N   UNL     1       3.917   5.039  19.569  0.00  0.00    +0.000 NA
ENDBRANCH  15  16
ENDBRANCH  13  15
ENDBRANCH   1  13
BRANCH   9  26
ATOM     26  C   UNL     1       0.435  12.610  21.097  0.00  0.00    +0.000 C 
BRANCH  26  27
ATOM     27  C   UNL     1       0.039  13.808  21.938  0.00  0.00    +0.000 A 
ATOM     28  C   UNL     1       0.759  14.999  21.834  0.00  0.00    +0.000 A 
ATOM     29  C   UNL     1       0.516  16.023  22.748  0.00  0.00    +0.000 A 
ATOM     30  C   UNL     1      -0.458  15.847  23.722  0.00  0.00    +0.000 A 
ATOM     31  C   UNL     1      -1.161  14.655  23.728  0.00  0.00    +0.000 A 
ATOM     32  N   UNL     1      -0.926  13.632  22.874  0.00  0.00    +0.000 NA
ENDBRANCH  26  27
ENDBRANCH   9  26
TORSDOF 6
ENDMDL
