MODEL 1
REMARK VINA RESULT:      -6.7      0.000      0.000
REMARK  Name = 
REMARK  6 active torsions:
REMARK  status: ('A' for Active; 'I' for Inactive)
REMARK    1  A    between atoms: C_1  and  C_2
REMARK    2  A    between atoms: N_6  and  C_7
REMARK    3  A    between atoms: C_10  and  C_11
REMARK    4  A    between atoms: C_18  and  C_19
REMARK    5  A    between atoms: C_21  and  C_22
REMARK    6  A    between atoms: C_25  and  C_26
REMARK                            x       y       z     vdW  Elec       q    Type
REMARK                         _______ _______ _______ _____ _____    ______ ____
ROOT
ATOM      1  C   UNL     1      -2.715  10.194  17.684  0.00  0.00    +0.000 C 
ATOM      2  C   UNL     1      -2.939  11.237  18.725  0.00  0.00    +0.000 C 
ATOM      3  N   UNL     1      -2.017  11.666  19.520  0.00  0.00    +0.000 NA
ATOM      4  N   UNL     1      -2.495  12.614  20.434  0.00  0.00    +0.000 N 
ATOM      5  C   UNL     1      -1.650  13.148  21.439  0.00  0.00    +0.000 C 
ATOM      6  N   UNL     1      -0.611  12.581  22.002  0.00  0.00    +0.000 NA
ATOM      7  N   UNL     1      -1.997  14.419  21.867  0.00  0.00    +0.000 N 
ATOM      8  C   UNL     1      -1.571  15.075  22.978  0.00  0.00    +0.000 A 
ATOM      9  N   UNL     1      -0.475  14.890  23.687  0.00  0.00    +0.000 NA
ATOM     10  N   UNL     1      -0.417  15.687  24.813  0.00  0.00    +0.000 NA
ATOM     11  C   UNL     1      -1.479  16.451  24.927  0.00  0.00    +0.000 A 
ATOM     12  C   UNL     1      -1.758  17.350  26.071  0.00  0.00    +0.000 C 
ATOM     13  S   UNL     1      -2.579  16.325  23.622  0.00  0.00    +0.000 S 
ATOM     14  C   UNL     1      -3.805  13.148  20.015  0.00  0.00    +0.000 C 
ATOM     15  S   UNL     1      -4.529  11.909  18.902  0.00  0.00    +0.000 S 
ATOM     16  H   UNL     1      -2.836  14.818  21.490  0.00  0.00    +0.000 HD
ENDROOT
BRANCH   6  17
ATOM     17  C   UNL     1      -0.166  11.280  21.752  0.00  0.00    +0.000 A 
ATOM     18  C   UNL     1       0.749  11.066  20.714  0.00  0.00    +0.000 A 
ATOM     19  C   UNL     1       1.219   9.779  20.424  0.00  0.00    +0.000 A 
ATOM     20  C   UNL     1       0.769   8.682  21.167  0.00  0.00    +0.000 A 
ATOM     21  C   UNL     1       1.181   7.283  20.826  0.00  0.00    +0.000 C 
ATOM     22  C   UNL     1      -0.088   8.904  22.248  0.00  0.00    +0.000 A 
ATOM     23  C   UNL     1      -0.512  10.197  22.559  0.00  0.00    +0.000 A 
ENDBRANCH   6  17
BRANCH  14  24
ATOM     24  C   UNL     1      -4.777  13.547  21.110  0.00  0.00    +0.000 A 
ATOM     25  C   UNL     1      -4.993  12.642  22.166  0.00  0.00    +0.000 A 
ATOM     26  C   UNL     1      -5.978  12.875  23.125  0.00  0.00    +0.000 A 
ATOM     27  C   UNL     1      -6.769  14.023  23.058  0.00  0.00    +0.000 A 
ATOM     28  C   UNL     1      -7.877  14.242  24.047  0.00  0.00    +0.000 C 
ATOM     29  C   UNL     1      -6.503  14.973  22.062  0.00  0.00    +0.000 A 
ATOM     30  C   UNL     1      -5.512  14.742  21.100  0.00  0.00    +0.000 A 
ENDBRANCH  14  24
TORSDOF 2
ENDMDL
MODEL 2
REMARK VINA RESULT:      -6.6      0.388      1.320
REMARK  Name = 
REMARK  6 active torsions:
REMARK  status: ('A' for Active; 'I' for Inactive)
REMARK    1  A    between atoms: C_1  and  C_2
REMARK    2  A    between atoms: N_6  and  C_7
REMARK    3  A    between atoms: C_10  and  C_11
REMARK    4  A    between atoms: C_18  and  C_19
REMARK    5  A    between atoms: C_21  and  C_22
REMARK    6  A    between atoms: C_25  and  C_26
REMARK                            x       y       z     vdW  Elec       q    Type
REMARK                         _______ _______ _______ _____ _____    ______ ____
ROOT
ATOM      1  C   UNL     1      -2.536  10.029  17.379  0.00  0.00    +0.000 C 
ATOM      2  C   UNL     1      -2.801  11.071  18.412  0.00  0.00    +0.000 C 
ATOM      3  N   UNL     1      -1.906  11.510  19.233  0.00  0.00    +0.000 NA
ATOM      4  N   UNL     1      -2.420  12.453  20.132  0.00  0.00    +0.000 N 
ATOM      5  C   UNL     1      -1.609  12.997  21.160  0.00  0.00    +0.000 C 
ATOM      6  N   UNL     1      -0.580  12.442  21.752  0.00  0.00    +0.000 NA
ATOM      7  N   UNL     1      -1.982  14.264  21.577  0.00  0.00    +0.000 N 
ATOM      8  C   UNL     1      -1.594  14.925  22.699  0.00  0.00    +0.000 A 
ATOM      9  N   UNL     1      -0.517  14.753  23.439  0.00  0.00    +0.000 NA
ATOM     10  N   UNL     1      -0.499  15.550  24.565  0.00  0.00    +0.000 NA
ATOM     11  C   UNL     1      -1.572  16.303  24.649  0.00  0.00    +0.000 A 
ATOM     12  C   UNL     1      -1.892  17.200  25.784  0.00  0.00    +0.000 C 
ATOM     13  S   UNL     1      -2.634  16.164  23.314  0.00  0.00    +0.000 S 
ATOM     14  C   UNL     1      -3.724  12.973  19.677  0.00  0.00    +0.000 C 
ATOM     15  S   UNL     1      -4.403  11.725  18.545  0.00  0.00    +0.000 S 
ATOM     16  H   UNL     1      -2.814  14.654  21.177  0.00  0.00    +0.000 HD
ENDROOT
BRANCH   6  17
ATOM     17  C   UNL     1      -0.114  11.145  21.515  0.00  0.00    +0.000 A 
ATOM     18  C   UNL     1      -0.611  10.095  22.296  0.00  0.00    +0.000 A 
ATOM     19  C   UNL     1      -0.169   8.781  22.098  0.00  0.00    +0.000 A 
ATOM     20  C   UNL     1       0.788   8.501  21.116  0.00  0.00    +0.000 A 
ATOM     21  C   UNL     1       1.349   7.123  20.937  0.00  0.00    +0.000 C 
ATOM     22  C   UNL     1       1.231   9.537  20.290  0.00  0.00    +0.000 A 
ATOM     23  C   UNL     1       0.747  10.835  20.463  0.00  0.00    +0.000 A 
ENDBRANCH   6  17
BRANCH  14  24
ATOM     24  C   UNL     1      -4.731  13.361  20.743  0.00  0.00    +0.000 A 
ATOM     25  C   UNL     1      -5.330  14.632  20.656  0.00  0.00    +0.000 A 
ATOM     26  C   UNL     1      -6.149  15.115  21.676  0.00  0.00    +0.000 A 
ATOM     27  C   UNL     1      -6.397  14.336  22.807  0.00  0.00    +0.000 A 
ATOM     28  C   UNL     1      -7.220  14.880  23.939  0.00  0.00    +0.000 C 
ATOM     29  C   UNL     1      -5.878  13.035  22.863  0.00  0.00    +0.000 A 
ATOM     30  C   UNL     1      -5.057  12.548  21.838  0.00  0.00    +0.000 A 
ENDBRANCH  14  24
TORSDOF 2
ENDMDL
MODEL 3
REMARK VINA RESULT:      -6.5      2.554      4.518
REMARK  Name = 
REMARK  6 active torsions:
REMARK  status: ('A' for Active; 'I' for Inactive)
REMARK    1  A    between atoms: C_1  and  C_2
REMARK    2  A    between atoms: N_6  and  C_7
REMARK    3  A    between atoms: C_10  and  C_11
REMARK    4  A    between atoms: C_18  and  C_19
REMARK    5  A    between atoms: C_21  and  C_22
REMARK    6  A    between atoms: C_25  and  C_26
REMARK                            x       y       z     vdW  Elec       q    Type
REMARK                         _______ _______ _______ _____ _____    ______ ____
ROOT
ATOM      1  C   UNL     1       3.226  13.993  20.794  0.00  0.00    +0.000 C 
ATOM      2  C   UNL     1       1.845  14.344  21.235  0.00  0.00    +0.000 C 
ATOM      3  N   UNL     1       0.957  13.470  21.571  0.00  0.00    +0.000 NA
ATOM      4  N   UNL     1      -0.272  14.056  21.902  0.00  0.00    +0.000 N 
ATOM      5  C   UNL     1      -1.396  13.256  22.227  0.00  0.00    +0.000 C 
ATOM      6  N   UNL     1      -1.664  12.039  21.817  0.00  0.00    +0.000 NA
ATOM      7  N   UNL     1      -2.313  13.865  23.068  0.00  0.00    +0.000 N 
ATOM      8  C   UNL     1      -3.590  13.483  23.333  0.00  0.00    +0.000 A 
ATOM      9  N   UNL     1      -4.146  12.294  23.218  0.00  0.00    +0.000 NA
ATOM     10  N   UNL     1      -5.499  12.299  23.493  0.00  0.00    +0.000 NA
ATOM     11  C   UNL     1      -5.930  13.499  23.805  0.00  0.00    +0.000 A 
ATOM     12  C   UNL     1      -7.346  13.851  24.063  0.00  0.00    +0.000 C 
ATOM     13  S   UNL     1      -4.703  14.690  23.878  0.00  0.00    +0.000 S 
ATOM     14  C   UNL     1      -0.127  15.503  22.147  0.00  0.00    +0.000 C 
ATOM     15  S   UNL     1       1.387  16.017  21.285  0.00  0.00    +0.000 S 
ATOM     16  H   UNL     1      -2.145  14.821  23.317  0.00  0.00    +0.000 HD
ENDROOT
BRANCH   6  17
ATOM     17  C   UNL     1      -0.896  11.305  20.909  0.00  0.00    +0.000 A 
ATOM     18  C   UNL     1      -0.056  10.295  21.395  0.00  0.00    +0.000 A 
ATOM     19  C   UNL     1       0.735   9.537  20.523  0.00  0.00    +0.000 A 
ATOM     20  C   UNL     1       0.703   9.788  19.147  0.00  0.00    +0.000 A 
ATOM     21  C   UNL     1       1.602   9.058  18.196  0.00  0.00    +0.000 C 
ATOM     22  C   UNL     1      -0.187  10.747  18.655  0.00  0.00    +0.000 A 
ATOM     23  C   UNL     1      -1.007  11.462  19.528  0.00  0.00    +0.000 A 
ENDBRANCH   6  17
BRANCH  14  24
ATOM     24  C   UNL     1      -1.301  16.393  21.784  0.00  0.00    +0.000 A 
ATOM     25  C   UNL     1      -1.823  17.239  22.782  0.00  0.00    +0.000 A 
ATOM     26  C   UNL     1      -2.990  17.973  22.566  0.00  0.00    +0.000 A 
ATOM     27  C   UNL     1      -3.660  17.886  21.346  0.00  0.00    +0.000 A 
ATOM     28  C   UNL     1      -4.954  18.619  21.135  0.00  0.00    +0.000 C 
ATOM     29  C   UNL     1      -3.100  17.117  20.316  0.00  0.00    +0.000 A 
ATOM     30  C   UNL     1      -1.928  16.381  20.530  0.00  0.00    +0.000 A 
ENDBRANCH  14  24
TORSDOF 2
ENDMDL
MODEL 4
REMARK VINA RESULT:      -6.2      3.388      6.782
REMARK  Name = 
REMARK  6 active torsions:
REMARK  status: ('A' for Active; 'I' for Inactive)
REMARK    1  A    between atoms: C_1  and  C_2
REMARK    2  A    between atoms: N_6  and  C_7
REMARK    3  A    between atoms: C_10  and  C_11
REMARK    4  A    between atoms: C_18  and  C_19
REMARK    5  A    between atoms: C_21  and  C_22
REMARK    6  A    between atoms: C_25  and  C_26
REMARK                            x       y       z     vdW  Elec       q    Type
REMARK                         _______ _______ _______ _____ _____    ______ ____
ROOT
ATOM      1  C   UNL     1      -6.848  15.373  24.133  0.00  0.00    +0.000 C 
ATOM      2  C   UNL     1      -6.648  14.810  22.767  0.00  0.00    +0.000 C 
ATOM      3  N   UNL     1      -5.596  14.154  22.409  0.00  0.00    +0.000 NA
ATOM      4  N   UNL     1      -5.634  13.771  21.063  0.00  0.00    +0.000 N 
ATOM      5  C   UNL     1      -4.536  13.105  20.462  0.00  0.00    +0.000 C 
ATOM      6  N   UNL     1      -3.269  13.187  20.788  0.00  0.00    +0.000 NA
ATOM      7  N   UNL     1      -4.872  12.287  19.396  0.00  0.00    +0.000 N 
ATOM      8  C   UNL     1      -4.047  11.746  18.462  0.00  0.00    +0.000 A 
ATOM      9  N   UNL     1      -2.752  11.506  18.530  0.00  0.00    +0.000 NA
ATOM     10  N   UNL     1      -2.225  11.030  17.347  0.00  0.00    +0.000 NA
ATOM     11  C   UNL     1      -3.140  10.929  16.410  0.00  0.00    +0.000 A 
ATOM     12  C   UNL     1      -2.875  10.537  15.006  0.00  0.00    +0.000 C 
ATOM     13  S   UNL     1      -4.724  11.315  16.930  0.00  0.00    +0.000 S 
ATOM     14  C   UNL     1      -6.999  13.880  20.514  0.00  0.00    +0.000 C 
ATOM     15  S   UNL     1      -7.883  15.061  21.574  0.00  0.00    +0.000 S 
ATOM     16  H   UNL     1      -5.830  12.286  19.100  0.00  0.00    +0.000 HD
ENDROOT
BRANCH   6  17
ATOM     17  C   UNL     1      -2.742  14.019  21.780  0.00  0.00    +0.000 A 
ATOM     18  C   UNL     1      -2.560  15.378  21.497  0.00  0.00    +0.000 A 
ATOM     19  C   UNL     1      -2.030  16.247  22.459  0.00  0.00    +0.000 A 
ATOM     20  C   UNL     1      -1.666  15.763  23.720  0.00  0.00    +0.000 A 
ATOM     21  C   UNL     1      -1.014  16.646  24.740  0.00  0.00    +0.000 C 
ATOM     22  C   UNL     1      -1.914  14.423  24.027  0.00  0.00    +0.000 A 
ATOM     23  C   UNL     1      -2.488  13.576  23.078  0.00  0.00    +0.000 A 
ENDBRANCH   6  17
BRANCH  14  24
ATOM     24  C   UNL     1      -7.135  14.242  19.046  0.00  0.00    +0.000 A 
ATOM     25  C   UNL     1      -6.739  15.531  18.644  0.00  0.00    +0.000 A 
ATOM     26  C   UNL     1      -6.971  15.984  17.345  0.00  0.00    +0.000 A 
ATOM     27  C   UNL     1      -7.598  15.157  16.413  0.00  0.00    +0.000 A 
ATOM     28  C   UNL     1      -7.913  15.665  15.036  0.00  0.00    +0.000 C 
ATOM     29  C   UNL     1      -7.915  13.841  16.778  0.00  0.00    +0.000 A 
ATOM     30  C   UNL     1      -7.681  13.384  18.081  0.00  0.00    +0.000 A 
ENDBRANCH  14  24
TORSDOF 2
ENDMDL
MODEL 5
REMARK VINA RESULT:      -6.2      8.585     10.671
REMARK  Name = 
REMARK  6 active torsions:
REMARK  status: ('A' for Active; 'I' for Inactive)
REMARK    1  A    between atoms: C_1  and  C_2
REMARK    2  A    between atoms: N_6  and  C_7
REMARK    3  A    between atoms: C_10  and  C_11
REMARK    4  A    between atoms: C_18  and  C_19
REMARK    5  A    between atoms: C_21  and  C_22
REMARK    6  A    between atoms: C_25  and  C_26
REMARK                            x       y       z     vdW  Elec       q    Type
REMARK                         _______ _______ _______ _____ _____    ______ ____
ROOT
ATOM      1  C   UNL     1       9.142  17.804  18.129  0.00  0.00    +0.000 C 
ATOM      2  C   UNL     1       8.347  17.077  19.160  0.00  0.00    +0.000 C 
ATOM      3  N   UNL     1       8.812  16.100  19.865  0.00  0.00    +0.000 NA
ATOM      4  N   UNL     1       7.852  15.560  20.730  0.00  0.00    +0.000 N 
ATOM      5  C   UNL     1       8.149  14.431  21.534  0.00  0.00    +0.000 C 
ATOM      6  N   UNL     1       9.010  13.472  21.290  0.00  0.00    +0.000 NA
ATOM      7  N   UNL     1       7.416  14.349  22.707  0.00  0.00    +0.000 N 
ATOM      8  C   UNL     1       7.269  13.279  23.531  0.00  0.00    +0.000 A 
ATOM      9  N   UNL     1       8.049  12.228  23.681  0.00  0.00    +0.000 NA
ATOM     10  N   UNL     1       7.533  11.289  24.551  0.00  0.00    +0.000 NA
ATOM     11  C   UNL     1       6.368  11.655  25.032  0.00  0.00    +0.000 A 
ATOM     12  C   UNL     1       5.516  10.827  25.917  0.00  0.00    +0.000 C 
ATOM     13  S   UNL     1       5.861  13.213  24.534  0.00  0.00    +0.000 S 
ATOM     14  C   UNL     1       6.699  16.467  20.886  0.00  0.00    +0.000 C 
ATOM     15  S   UNL     1       6.697  17.545  19.425  0.00  0.00    +0.000 S 
ATOM     16  H   UNL     1       6.705  15.040  22.854  0.00  0.00    +0.000 HD
ENDROOT
BRANCH   6  17
ATOM     17  C   UNL     1       9.775  13.351  20.126  0.00  0.00    +0.000 A 
ATOM     18  C   UNL     1      11.137  13.670  20.176  0.00  0.00    +0.000 A 
ATOM     19  C   UNL     1      11.941  13.568  19.034  0.00  0.00    +0.000 A 
ATOM     20  C   UNL     1      11.387  13.152  17.819  0.00  0.00    +0.000 A 
ATOM     21  C   UNL     1      12.197  13.117  16.559  0.00  0.00    +0.000 C 
ATOM     22  C   UNL     1      10.045  12.765  17.786  0.00  0.00    +0.000 A 
ATOM     23  C   UNL     1       9.264  12.823  18.941  0.00  0.00    +0.000 A 
ENDBRANCH   6  17
BRANCH  14  24
ATOM     24  C   UNL     1       5.339  15.834  21.112  0.00  0.00    +0.000 A 
ATOM     25  C   UNL     1       4.840  14.967  20.122  0.00  0.00    +0.000 A 
ATOM     26  C   UNL     1       3.540  14.467  20.190  0.00  0.00    +0.000 A 
ATOM     27  C   UNL     1       2.707  14.815  21.254  0.00  0.00    +0.000 A 
ATOM     28  C   UNL     1       1.284  14.336  21.294  0.00  0.00    +0.000 C 
ATOM     29  C   UNL     1       3.223  15.605  22.290  0.00  0.00    +0.000 A 
ATOM     30  C   UNL     1       4.529  16.106  22.225  0.00  0.00    +0.000 A 
ENDBRANCH  14  24
TORSDOF 2
ENDMDL
MODEL 6
REMARK VINA RESULT:      -6.1      1.256      1.554
REMARK  Name = 
REMARK  6 active torsions:
REMARK  status: ('A' for Active; 'I' for Inactive)
REMARK    1  A    between atoms: C_1  and  C_2
REMARK    2  A    between atoms: N_6  and  C_7
REMARK    3  A    between atoms: C_10  and  C_11
REMARK    4  A    between atoms: C_18  and  C_19
REMARK    5  A    between atoms: C_21  and  C_22
REMARK    6  A    between atoms: C_25  and  C_26
REMARK                            x       y       z     vdW  Elec       q    Type
REMARK                         _______ _______ _______ _____ _____    ______ ____
ROOT
ATOM      1  C   UNL     1      -3.085   9.650  17.319  0.00  0.00    +0.000 C 
ATOM      2  C   UNL     1      -3.434  10.803  18.197  0.00  0.00    +0.000 C 
ATOM      3  N   UNL     1      -2.560  11.513  18.828  0.00  0.00    +0.000 NA
ATOM      4  N   UNL     1      -3.148  12.508  19.619  0.00  0.00    +0.000 N 
ATOM      5  C   UNL     1      -2.357  13.344  20.447  0.00  0.00    +0.000 C 
ATOM      6  N   UNL     1      -1.199  13.068  20.998  0.00  0.00    +0.000 NA
ATOM      7  N   UNL     1      -2.904  14.592  20.697  0.00  0.00    +0.000 N 
ATOM      8  C   UNL     1      -2.540  15.492  21.648  0.00  0.00    +0.000 A 
ATOM      9  N   UNL     1      -1.388  15.621  22.276  0.00  0.00    +0.000 NA
ATOM     10  N   UNL     1      -1.410  16.598  23.251  0.00  0.00    +0.000 NA
ATOM     11  C   UNL     1      -2.585  17.179  23.337  0.00  0.00    +0.000 A 
ATOM     12  C   UNL     1      -2.955  18.200  24.344  0.00  0.00    +0.000 C 
ATOM     13  S   UNL     1      -3.719  16.643  22.172  0.00  0.00    +0.000 S 
ATOM     14  C   UNL     1      -4.557  12.732  19.240  0.00  0.00    +0.000 C 
ATOM     15  S   UNL     1      -5.107  11.215  18.408  0.00  0.00    +0.000 S 
ATOM     16  H   UNL     1      -3.823  14.771  20.339  0.00  0.00    +0.000 HD
ENDROOT
BRANCH   6  17
ATOM     17  C   UNL     1      -0.539  11.839  20.918  0.00  0.00    +0.000 A 
ATOM     18  C   UNL     1       0.407  11.643  19.905  0.00  0.00    +0.000 A 
ATOM     19  C   UNL     1       1.089  10.426  19.784  0.00  0.00    +0.000 A 
ATOM     20  C   UNL     1       0.824   9.380  20.674  0.00  0.00    +0.000 A 
ATOM     21  C   UNL     1       1.469   8.037  20.519  0.00  0.00    +0.000 C 
ATOM     22  C   UNL     1      -0.067   9.599  21.728  0.00  0.00    +0.000 A 
ATOM     23  C   UNL     1      -0.704  10.832  21.869  0.00  0.00    +0.000 A 
ENDBRANCH   6  17
BRANCH  14  24
ATOM     24  C   UNL     1      -5.518  13.142  20.340  0.00  0.00    +0.000 A 
ATOM     25  C   UNL     1      -6.256  14.328  20.166  0.00  0.00    +0.000 A 
ATOM     26  C   UNL     1      -7.045  14.843  21.194  0.00  0.00    +0.000 A 
ATOM     27  C   UNL     1      -7.124  14.182  22.420  0.00  0.00    +0.000 A 
ATOM     28  C   UNL     1      -7.915  14.771  23.552  0.00  0.00    +0.000 C 
ATOM     29  C   UNL     1      -6.465  12.955  22.573  0.00  0.00    +0.000 A 
ATOM     30  C   UNL     1      -5.674  12.434  21.541  0.00  0.00    +0.000 A 
ENDBRANCH  14  24
TORSDOF 2
ENDMDL
MODEL 7
REMARK VINA RESULT:      -6.1      2.283      2.880
REMARK  Name = 
REMARK  6 active torsions:
REMARK  status: ('A' for Active; 'I' for Inactive)
REMARK    1  A    between atoms: C_1  and  C_2
REMARK    2  A    between atoms: N_6  and  C_7
REMARK    3  A    between atoms: C_10  and  C_11
REMARK    4  A    between atoms: C_18  and  C_19
REMARK    5  A    between atoms: C_21  and  C_22
REMARK    6  A    between atoms: C_25  and  C_26
REMARK                            x       y       z     vdW  Elec       q    Type
REMARK                         _______ _______ _______ _____ _____    ______ ____
ROOT
ATOM      1  C   UNL     1      -2.698   9.832  16.864  0.00  0.00    +0.000 C 
ATOM      2  C   UNL     1      -2.477  10.897  17.884  0.00  0.00    +0.000 C 
ATOM      3  N   UNL     1      -1.311  11.339  18.217  0.00  0.00    +0.000 NA
ATOM      4  N   UNL     1      -1.374  12.307  19.228  0.00  0.00    +0.000 N 
ATOM      5  C   UNL     1      -0.192  12.859  19.782  0.00  0.00    +0.000 C 
ATOM      6  N   UNL     1       0.991  12.300  19.876  0.00  0.00    +0.000 NA
ATOM      7  N   UNL     1      -0.337  14.140  20.290  0.00  0.00    +0.000 N 
ATOM      8  C   UNL     1       0.507  14.817  21.112  0.00  0.00    +0.000 A 
ATOM      9  N   UNL     1       1.799  14.643  21.308  0.00  0.00    +0.000 NA
ATOM     10  N   UNL     1       2.313  15.462  22.292  0.00  0.00    +0.000 NA
ATOM     11  C   UNL     1       1.390  16.233  22.820  0.00  0.00    +0.000 A 
ATOM     12  C   UNL     1       1.604  17.156  23.959  0.00  0.00    +0.000 C 
ATOM     13  S   UNL     1      -0.151  16.083  22.090  0.00  0.00    +0.000 S 
ATOM     14  C   UNL     1      -2.742  12.837  19.378  0.00  0.00    +0.000 C 
ATOM     15  S   UNL     1      -3.855  11.578  18.690  0.00  0.00    +0.000 S 
ATOM     16  H   UNL     1      -1.259  14.534  20.286  0.00  0.00    +0.000 HD
ENDROOT
BRANCH   6  17
ATOM     17  C   UNL     1       1.300  10.993  19.491  0.00  0.00    +0.000 A 
ATOM     18  C   UNL     1       1.038   9.945  20.381  0.00  0.00    +0.000 A 
ATOM     19  C   UNL     1       1.336   8.620  20.040  0.00  0.00    +0.000 A 
ATOM     20  C   UNL     1       1.911   8.326  18.799  0.00  0.00    +0.000 A 
ATOM     21  C   UNL     1       2.324   6.932  18.437  0.00  0.00    +0.000 C 
ATOM     22  C   UNL     1       2.106   9.362  17.882  0.00  0.00    +0.000 A 
ATOM     23  C   UNL     1       1.760  10.673  18.214  0.00  0.00    +0.000 A 
ENDBRANCH   6  17
BRANCH  14  24
ATOM     24  C   UNL     1      -3.177  13.262  20.769  0.00  0.00    +0.000 A 
ATOM     25  C   UNL     1      -3.737  14.544  20.924  0.00  0.00    +0.000 A 
ATOM     26  C   UNL     1      -4.022  15.058  22.189  0.00  0.00    +0.000 A 
ATOM     27  C   UNL     1      -3.761  14.300  23.331  0.00  0.00    +0.000 A 
ATOM     28  C   UNL     1      -4.000  14.877  24.696  0.00  0.00    +0.000 C 
ATOM     29  C   UNL     1      -3.288  12.989  23.183  0.00  0.00    +0.000 A 
ATOM     30  C   UNL     1      -3.003  12.471  21.913  0.00  0.00    +0.000 A 
ENDBRANCH  14  24
TORSDOF 2
ENDMDL
MODEL 8
REMARK VINA RESULT:      -6.0      1.740      2.161
REMARK  Name = 
REMARK  6 active torsions:
REMARK  status: ('A' for Active; 'I' for Inactive)
REMARK    1  A    between atoms: C_1  and  C_2
REMARK    2  A    between atoms: N_6  and  C_7
REMARK    3  A    between atoms: C_10  and  C_11
REMARK    4  A    between atoms: C_18  and  C_19
REMARK    5  A    between atoms: C_21  and  C_22
REMARK    6  A    between atoms: C_25  and  C_26
REMARK                            x       y       z     vdW  Elec       q    Type
REMARK                         _______ _______ _______ _____ _____    ______ ____
ROOT
ATOM      1  C   UNL     1      -2.569   9.730  16.423  0.00  0.00    +0.000 C 
ATOM      2  C   UNL     1      -2.564  10.755  17.506  0.00  0.00    +0.000 C 
ATOM      3  N   UNL     1      -1.489  11.273  17.998  0.00  0.00    +0.000 NA
ATOM      4  N   UNL     1      -1.755  12.177  19.033  0.00  0.00    +0.000 N 
ATOM      5  C   UNL     1      -0.700  12.795  19.751  0.00  0.00    +0.000 C 
ATOM      6  N   UNL     1       0.508  12.332  19.964  0.00  0.00    +0.000 NA
ATOM      7  N   UNL     1      -1.017  14.031  20.291  0.00  0.00    +0.000 N 
ATOM      8  C   UNL     1      -0.339  14.730  21.238  0.00  0.00    +0.000 A 
ATOM      9  N   UNL     1       0.931  14.654  21.582  0.00  0.00    +0.000 NA
ATOM     10  N   UNL     1       1.252  15.460  22.656  0.00  0.00    +0.000 NA
ATOM     11  C   UNL     1       0.208  16.122  23.100  0.00  0.00    +0.000 A 
ATOM     12  C   UNL     1       0.205  16.997  24.295  0.00  0.00    +0.000 C 
ATOM     13  S   UNL     1      -1.217  15.884  22.182  0.00  0.00    +0.000 S 
ATOM     14  C   UNL     1      -3.174  12.584  19.039  0.00  0.00    +0.000 C 
ATOM     15  S   UNL     1      -4.082  11.275  18.167  0.00  0.00    +0.000 S 
ATOM     16  H   UNL     1      -1.963  14.347  20.193  0.00  0.00    +0.000 HD
ENDROOT
BRANCH   6  17
ATOM     17  C   UNL     1       0.975  11.077  19.563  0.00  0.00    +0.000 A 
ATOM     18  C   UNL     1       1.688  10.973  18.363  0.00  0.00    +0.000 A 
ATOM     19  C   UNL     1       2.170   9.735  17.919  0.00  0.00    +0.000 A 
ATOM     20  C   UNL     1       1.935   8.578  18.669  0.00  0.00    +0.000 A 
ATOM     21  C   UNL     1       2.358   7.227  18.180  0.00  0.00    +0.000 C 
ATOM     22  C   UNL     1       1.286   8.693  19.901  0.00  0.00    +0.000 A 
ATOM     23  C   UNL     1       0.853   9.938  20.358  0.00  0.00    +0.000 A 
ENDBRANCH   6  17
BRANCH  14  24
ATOM     24  C   UNL     1      -3.804  12.896  20.383  0.00  0.00    +0.000 A 
ATOM     25  C   UNL     1      -3.199  12.365  21.538  0.00  0.00    +0.000 A 
ATOM     26  C   UNL     1      -3.803  12.486  22.789  0.00  0.00    +0.000 A 
ATOM     27  C   UNL     1      -5.024  13.148  22.920  0.00  0.00    +0.000 A 
ATOM     28  C   UNL     1      -5.712  13.219  24.253  0.00  0.00    +0.000 C 
ATOM     29  C   UNL     1      -5.591  13.757  21.792  0.00  0.00    +0.000 A 
ATOM     30  C   UNL     1      -4.984  13.639  20.535  0.00  0.00    +0.000 A 
ENDBRANCH  14  24
TORSDOF 2
ENDMDL
MODEL 9
REMARK VINA RESULT:      -5.9      1.117      1.439
REMARK  Name = 
REMARK  6 active torsions:
REMARK  status: ('A' for Active; 'I' for Inactive)
REMARK    1  A    between atoms: C_1  and  C_2
REMARK    2  A    between atoms: N_6  and  C_7
REMARK    3  A    between atoms: C_10  and  C_11
REMARK    4  A    between atoms: C_18  and  C_19
REMARK    5  A    between atoms: C_21  and  C_22
REMARK    6  A    between atoms: C_25  and  C_26
REMARK                            x       y       z     vdW  Elec       q    Type
REMARK                         _______ _______ _______ _____ _____    ______ ____
ROOT
ATOM      1  C   UNL     1      -3.409   9.688  17.537  0.00  0.00    +0.000 C 
ATOM      2  C   UNL     1      -3.591  10.881  18.413  0.00  0.00    +0.000 C 
ATOM      3  N   UNL     1      -2.613  11.551  18.924  0.00  0.00    +0.000 NA
ATOM      4  N   UNL     1      -3.052  12.598  19.744  0.00  0.00    +0.000 N 
ATOM      5  C   UNL     1      -2.126  13.403  20.456  0.00  0.00    +0.000 C 
ATOM      6  N   UNL     1      -0.933  13.069  20.885  0.00  0.00    +0.000 NA
ATOM      7  N   UNL     1      -2.569  14.687  20.727  0.00  0.00    +0.000 N 
ATOM      8  C   UNL     1      -2.051  15.585  21.605  0.00  0.00    +0.000 A 
ATOM      9  N   UNL     1      -0.831  15.658  22.101  0.00  0.00    +0.000 NA
ATOM     10  N   UNL     1      -0.688  16.657  23.043  0.00  0.00    +0.000 NA
ATOM     11  C   UNL     1      -1.811  17.309  23.239  0.00  0.00    +0.000 A 
ATOM     12  C   UNL     1      -2.007  18.374  24.250  0.00  0.00    +0.000 C 
ATOM     13  S   UNL     1      -3.096  16.817  22.221  0.00  0.00    +0.000 S 
ATOM     14  C   UNL     1      -4.478  12.897  19.515  0.00  0.00    +0.000 C 
ATOM     15  S   UNL     1      -5.204  11.398  18.792  0.00  0.00    +0.000 S 
ATOM     16  H   UNL     1      -3.510  14.913  20.466  0.00  0.00    +0.000 HD
ENDROOT
BRANCH   6  17
ATOM     17  C   UNL     1      -0.358  11.800  20.771  0.00  0.00    +0.000 A 
ATOM     18  C   UNL     1      -0.671  10.828  21.728  0.00  0.00    +0.000 A 
ATOM     19  C   UNL     1      -0.115   9.545  21.656  0.00  0.00    +0.000 A 
ATOM     20  C   UNL     1       0.773   9.219  20.626  0.00  0.00    +0.000 A 
ATOM     21  C   UNL     1       1.455   7.886  20.569  0.00  0.00    +0.000 C 
ATOM     22  C   UNL     1       1.030  10.167  19.631  0.00  0.00    +0.000 A 
ATOM     23  C   UNL     1       0.432  11.426  19.685  0.00  0.00    +0.000 A 
ENDBRANCH   6  17
BRANCH  14  24
ATOM     24  C   UNL     1      -5.287  13.390  20.700  0.00  0.00    +0.000 A 
ATOM     25  C   UNL     1      -5.250  12.633  21.887  0.00  0.00    +0.000 A 
ATOM     26  C   UNL     1      -6.081  12.942  22.964  0.00  0.00    +0.000 A 
ATOM     27  C   UNL     1      -6.963  14.020  22.886  0.00  0.00    +0.000 A 
ATOM     28  C   UNL     1      -7.908  14.312  24.016  0.00  0.00    +0.000 C 
ATOM     29  C   UNL     1      -6.943  14.833  21.745  0.00  0.00    +0.000 A 
ATOM     30  C   UNL     1      -6.108  14.526  20.663  0.00  0.00    +0.000 A 
ENDBRANCH  14  24
TORSDOF 2
ENDMDL
