MODEL 1
REMARK VINA RESULT:      -7.7      0.000      0.000
REMARK  Name = 
REMARK  5 active torsions:
REMARK  status: ('A' for Active; 'I' for Inactive)
REMARK    1  A    between atoms: C_1  and  C_2
REMARK    2  A    between atoms: C_2  and  C_3
REMARK    3  A    between atoms: C_2  and  C_4
REMARK    4  A    between atoms: N_11  and  C_12
REMARK    5  A    between atoms: C_12  and  C_13
REMARK                            x       y       z     vdW  Elec       q    Type
REMARK                         _______ _______ _______ _____ _____    ______ ____
ROOT
ATOM      1  C   UNL     1       6.411   4.278  15.137  0.00  0.00    +0.000 A 
ATOM      2  N   UNL     1       7.505   4.672  15.813  0.00  0.00    +0.000 NA
ATOM      3  C   UNL     1       7.332   4.934  17.120  0.00  0.00    +0.000 A 
ATOM      4  C   UNL     1       6.119   4.833  17.765  0.00  0.00    +0.000 A 
ATOM      5  C   UNL     1       5.045   4.444  16.988  0.00  0.00    +0.000 A 
ATOM      6  N   UNL     1       5.180   4.160  15.674  0.00  0.00    +0.000 NA
ATOM      7  C   UNL     1       3.633   4.440  17.549  0.00  0.00    +0.000 C 
ATOM      8  N   UNL     1       3.470   4.740  18.996  0.00  0.00    +0.000 NA
ATOM      9  C   UNL     1       4.546   5.606  19.518  0.00  0.00    +0.000 C 
ATOM     10  C   UNL     1       5.958   5.101  19.220  0.00  0.00    +0.000 C 
ENDROOT
BRANCH   1  12
ATOM     11  C   UNL     1       5.224   3.793  13.000  0.00  0.00    +0.000 C 
ATOM     12  C   UNL     1       6.586   3.941  13.675  0.00  0.00    +0.000 C 
ATOM     13  C   UNL     1       7.448   4.990  12.973  0.00  0.00    +0.000 C 
ENDBRANCH   1  12
BRANCH   8  14
ATOM     14  C   UNL     1       2.185   5.456  19.215  0.00  0.00    +0.000 C 
BRANCH  14  15
ATOM     15  C   UNL     1       2.179   6.950  18.970  0.00  0.00    +0.000 A 
ATOM     16  C   UNL     1       2.566   7.460  17.721  0.00  0.00    +0.000 A 
ATOM     17  C   UNL     1       2.414   8.815  17.423  0.00  0.00    +0.000 A 
ATOM     18  C   UNL     1       1.866   9.685  18.368  0.00  0.00    +0.000 A 
ATOM     19  C   UNL     1       1.483   9.198  19.614  0.00  0.00    +0.000 A 
ATOM     20  C   UNL     1       1.645   7.843  19.919  0.00  0.00    +0.000 A 
ATOM     21  O   UNL     1       1.279   7.331  21.143  0.00  0.00    +0.000 OA
ATOM     22  C   UNL     1       0.251   8.127  21.734  0.00  0.00    +0.000 C 
ATOM     23  C   UNL     1       0.656   9.589  21.768  0.00  0.00    +0.000 C 
ATOM     24  O   UNL     1       0.900  10.112  20.459  0.00  0.00    +0.000 OA
ENDBRANCH  14  15
ENDBRANCH   8  14
TORSDOF 3
ENDMDL
MODEL 2
REMARK VINA RESULT:      -7.6      1.880      3.237
REMARK  Name = 
REMARK  5 active torsions:
REMARK  status: ('A' for Active; 'I' for Inactive)
REMARK    1  A    between atoms: C_1  and  C_2
REMARK    2  A    between atoms: C_2  and  C_3
REMARK    3  A    between atoms: C_2  and  C_4
REMARK    4  A    between atoms: N_11  and  C_12
REMARK    5  A    between atoms: C_12  and  C_13
REMARK                            x       y       z     vdW  Elec       q    Type
REMARK                         _______ _______ _______ _____ _____    ______ ____
ROOT
ATOM      1  C   UNL     1       4.824   4.205  17.306  0.00  0.00    +0.000 A 
ATOM      2  N   UNL     1       4.434   3.079  17.929  0.00  0.00    +0.000 NA
ATOM      3  C   UNL     1       3.412   3.202  18.792  0.00  0.00    +0.000 A 
ATOM      4  C   UNL     1       2.783   4.397  19.066  0.00  0.00    +0.000 A 
ATOM      5  C   UNL     1       3.264   5.507  18.399  0.00  0.00    +0.000 A 
ATOM      6  N   UNL     1       4.281   5.422  17.513  0.00  0.00    +0.000 NA
ATOM      7  C   UNL     1       2.754   6.900  18.725  0.00  0.00    +0.000 C 
ATOM      8  N   UNL     1       1.627   7.008  19.690  0.00  0.00    +0.000 NA
ATOM      9  C   UNL     1       1.599   5.889  20.653  0.00  0.00    +0.000 C 
ATOM     10  C   UNL     1       1.634   4.504  20.006  0.00  0.00    +0.000 C 
ENDROOT
BRANCH   1  12
ATOM     11  C   UNL     1       5.573   4.804  15.006  0.00  0.00    +0.000 C 
ATOM     12  C   UNL     1       5.946   4.087  16.301  0.00  0.00    +0.000 C 
ATOM     13  C   UNL     1       7.255   4.622  16.881  0.00  0.00    +0.000 C 
ENDBRANCH   1  12
BRANCH   8  14
ATOM     14  C   UNL     1       1.764   8.262  20.478  0.00  0.00    +0.000 C 
BRANCH  14  15
ATOM     15  C   UNL     1       0.870   9.420  20.088  0.00  0.00    +0.000 A 
ATOM     16  C   UNL     1       0.597   9.675  18.735  0.00  0.00    +0.000 A 
ATOM     17  C   UNL     1      -0.349  10.631  18.364  0.00  0.00    +0.000 A 
ATOM     18  C   UNL     1      -1.044  11.348  19.340  0.00  0.00    +0.000 A 
ATOM     19  C   UNL     1      -0.782  11.113  20.686  0.00  0.00    +0.000 A 
ATOM     20  C   UNL     1       0.174  10.163  21.061  0.00  0.00    +0.000 A 
ATOM     21  O   UNL     1       0.459   9.911  22.384  0.00  0.00    +0.000 OA
ATOM     22  C   UNL     1      -0.661  10.231  23.209  0.00  0.00    +0.000 C 
ATOM     23  C   UNL     1      -1.145  11.643  22.936  0.00  0.00    +0.000 C 
ATOM     24  O   UNL     1      -1.553  11.821  21.577  0.00  0.00    +0.000 OA
ENDBRANCH  14  15
ENDBRANCH   8  14
TORSDOF 3
ENDMDL
MODEL 3
REMARK VINA RESULT:      -7.6      4.014      7.869
REMARK  Name = 
REMARK  5 active torsions:
REMARK  status: ('A' for Active; 'I' for Inactive)
REMARK    1  A    between atoms: C_1  and  C_2
REMARK    2  A    between atoms: C_2  and  C_3
REMARK    3  A    between atoms: C_2  and  C_4
REMARK    4  A    between atoms: N_11  and  C_12
REMARK    5  A    between atoms: C_12  and  C_13
REMARK                            x       y       z     vdW  Elec       q    Type
REMARK                         _______ _______ _______ _____ _____    ______ ____
ROOT
ATOM      1  C   UNL     1      -2.143  11.002  17.373  0.00  0.00    +0.000 A 
ATOM      2  N   UNL     1      -2.345  11.802  18.435  0.00  0.00    +0.000 NA
ATOM      3  C   UNL     1      -1.461  11.686  19.441  0.00  0.00    +0.000 A 
ATOM      4  C   UNL     1      -0.406  10.800  19.433  0.00  0.00    +0.000 A 
ATOM      5  C   UNL     1      -0.289  10.001  18.313  0.00  0.00    +0.000 A 
ATOM      6  N   UNL     1      -1.149  10.096  17.275  0.00  0.00    +0.000 NA
ATOM      7  C   UNL     1       0.741   8.886  18.250  0.00  0.00    +0.000 C 
ATOM      8  N   UNL     1       1.701   8.776  19.380  0.00  0.00    +0.000 NA
ATOM      9  C   UNL     1       1.145   9.295  20.646  0.00  0.00    +0.000 C 
ATOM     10  C   UNL     1       0.576  10.710  20.547  0.00  0.00    +0.000 C 
ENDROOT
BRANCH   1  12
ATOM     11  C   UNL     1      -2.898   9.993  15.222  0.00  0.00    +0.000 C 
ATOM     12  C   UNL     1      -3.100  11.139  16.212  0.00  0.00    +0.000 C 
ATOM     13  C   UNL     1      -4.545  11.207  16.703  0.00  0.00    +0.000 C 
ENDBRANCH   1  12
BRANCH   8  14
ATOM     14  C   UNL     1       2.046   7.347  19.604  0.00  0.00    +0.000 C 
BRANCH  14  15
ATOM     15  C   UNL     1       2.860   6.659  18.529  0.00  0.00    +0.000 A 
ATOM     16  C   UNL     1       3.841   7.373  17.824  0.00  0.00    +0.000 A 
ATOM     17  C   UNL     1       4.710   6.721  16.948  0.00  0.00    +0.000 A 
ATOM     18  C   UNL     1       4.617   5.340  16.764  0.00  0.00    +0.000 A 
ATOM     19  C   UNL     1       3.646   4.616  17.450  0.00  0.00    +0.000 A 
ATOM     20  C   UNL     1       2.767   5.269  18.320  0.00  0.00    +0.000 A 
ATOM     21  O   UNL     1       1.793   4.583  19.010  0.00  0.00    +0.000 OA
ATOM     22  C   UNL     1       2.175   3.219  19.194  0.00  0.00    +0.000 C 
ATOM     23  C   UNL     1       2.562   2.585  17.871  0.00  0.00    +0.000 C 
ATOM     24  O   UNL     1       3.664   3.256  17.253  0.00  0.00    +0.000 OA
ENDBRANCH  14  15
ENDBRANCH   8  14
TORSDOF 3
ENDMDL
MODEL 4
REMARK VINA RESULT:      -7.6      2.055      3.886
REMARK  Name = 
REMARK  5 active torsions:
REMARK  status: ('A' for Active; 'I' for Inactive)
REMARK    1  A    between atoms: C_1  and  C_2
REMARK    2  A    between atoms: C_2  and  C_3
REMARK    3  A    between atoms: C_2  and  C_4
REMARK    4  A    between atoms: N_11  and  C_12
REMARK    5  A    between atoms: C_12  and  C_13
REMARK                            x       y       z     vdW  Elec       q    Type
REMARK                         _______ _______ _______ _____ _____    ______ ____
ROOT
ATOM      1  C   UNL     1       4.364   4.594  17.081  0.00  0.00    +0.000 A 
ATOM      2  N   UNL     1       3.917   3.391  17.486  0.00  0.00    +0.000 NA
ATOM      3  C   UNL     1       2.961   3.401  18.430  0.00  0.00    +0.000 A 
ATOM      4  C   UNL     1       2.451   4.552  18.990  0.00  0.00    +0.000 A 
ATOM      5  C   UNL     1       2.984   5.741  18.531  0.00  0.00    +0.000 A 
ATOM      6  N   UNL     1       3.937   5.775  17.574  0.00  0.00    +0.000 NA
ATOM      7  C   UNL     1       2.612   7.066  19.175  0.00  0.00    +0.000 C 
ATOM      8  N   UNL     1       1.556   7.046  20.221  0.00  0.00    +0.000 NA
ATOM      9  C   UNL     1       1.490   5.754  20.933  0.00  0.00    +0.000 C 
ATOM     10  C   UNL     1       1.372   4.538  20.013  0.00  0.00    +0.000 C 
ENDROOT
BRANCH   1  12
ATOM     11  C   UNL     1       5.358   5.934  15.229  0.00  0.00    +0.000 C 
ATOM     12  C   UNL     1       5.412   4.613  15.993  0.00  0.00    +0.000 C 
ATOM     13  C   UNL     1       6.803   4.357  16.573  0.00  0.00    +0.000 C 
ENDBRANCH   1  12
BRANCH   8  14
ATOM     14  C   UNL     1       1.843   8.093  21.238  0.00  0.00    +0.000 C 
BRANCH  14  15
ATOM     15  C   UNL     1       0.752   9.108  21.507  0.00  0.00    +0.000 A 
ATOM     16  C   UNL     1       0.110   9.137  22.755  0.00  0.00    +0.000 A 
ATOM     17  C   UNL     1      -0.779  10.163  23.079  0.00  0.00    +0.000 A 
ATOM     18  C   UNL     1      -1.039  11.183  22.161  0.00  0.00    +0.000 A 
ATOM     19  C   UNL     1      -0.417  11.167  20.917  0.00  0.00    +0.000 A 
ATOM     20  C   UNL     1       0.466  10.134  20.586  0.00  0.00    +0.000 A 
ATOM     21  O   UNL     1       1.095  10.087  19.362  0.00  0.00    +0.000 OA
ATOM     22  C   UNL     1       1.215  11.398  18.808  0.00  0.00    +0.000 C 
ATOM     23  C   UNL     1      -0.131  12.099  18.789  0.00  0.00    +0.000 C 
ATOM     24  O   UNL     1      -0.686  12.239  20.100  0.00  0.00    +0.000 OA
ENDBRANCH  14  15
ENDBRANCH   8  14
TORSDOF 3
ENDMDL
MODEL 5
REMARK VINA RESULT:      -7.5      3.353      8.308
REMARK  Name = 
REMARK  5 active torsions:
REMARK  status: ('A' for Active; 'I' for Inactive)
REMARK    1  A    between atoms: C_1  and  C_2
REMARK    2  A    between atoms: C_2  and  C_3
REMARK    3  A    between atoms: C_2  and  C_4
REMARK    4  A    between atoms: N_11  and  C_12
REMARK    5  A    between atoms: C_12  and  C_13
REMARK                            x       y       z     vdW  Elec       q    Type
REMARK                         _______ _______ _______ _____ _____    ______ ____
ROOT
ATOM      1  C   UNL     1      -0.133  11.632  21.295  0.00  0.00    +0.000 A 
ATOM      2  N   UNL     1      -0.147  12.342  20.153  0.00  0.00    +0.000 NA
ATOM      3  C   UNL     1       0.273  11.699  19.050  0.00  0.00    +0.000 A 
ATOM      4  C   UNL     1       0.716  10.395  19.048  0.00  0.00    +0.000 A 
ATOM      5  C   UNL     1       0.719   9.749  20.269  0.00  0.00    +0.000 A 
ATOM      6  N   UNL     1       0.292  10.356  21.399  0.00  0.00    +0.000 NA
ATOM      7  C   UNL     1       1.322   8.363  20.421  0.00  0.00    +0.000 C 
ATOM      8  N   UNL     1       1.786   7.678  19.186  0.00  0.00    +0.000 NA
ATOM      9  C   UNL     1       2.197   8.630  18.133  0.00  0.00    +0.000 C 
ATOM     10  C   UNL     1       1.150   9.696  17.808  0.00  0.00    +0.000 C 
ENDROOT
BRANCH   1  12
ATOM     11  C   UNL     1      -0.891  13.798  22.266  0.00  0.00    +0.000 C 
ATOM     12  C   UNL     1      -0.636  12.318  22.543  0.00  0.00    +0.000 C 
ATOM     13  C   UNL     1      -1.889  11.625  23.079  0.00  0.00    +0.000 C 
ENDBRANCH   1  12
BRANCH   8  14
ATOM     14  C   UNL     1       2.968   6.832  19.499  0.00  0.00    +0.000 C 
BRANCH  14  15
ATOM     15  C   UNL     1       3.264   5.687  18.553  0.00  0.00    +0.000 A 
ATOM     16  C   UNL     1       4.371   5.754  17.693  0.00  0.00    +0.000 A 
ATOM     17  C   UNL     1       4.755   4.647  16.934  0.00  0.00    +0.000 A 
ATOM     18  C   UNL     1       4.040   3.451  17.023  0.00  0.00    +0.000 A 
ATOM     19  C   UNL     1       2.935   3.370  17.865  0.00  0.00    +0.000 A 
ATOM     20  C   UNL     1       2.542   4.480  18.619  0.00  0.00    +0.000 A 
ATOM     21  O   UNL     1       1.452   4.433  19.458  0.00  0.00    +0.000 OA
ATOM     22  C   UNL     1       1.209   3.093  19.891  0.00  0.00    +0.000 C 
ATOM     23  C   UNL     1       1.121   2.152  18.704  0.00  0.00    +0.000 C 
ATOM     24  O   UNL     1       2.327   2.139  17.935  0.00  0.00    +0.000 OA
ENDBRANCH  14  15
ENDBRANCH   8  14
TORSDOF 3
ENDMDL
MODEL 6
REMARK VINA RESULT:      -7.5      2.695      4.058
REMARK  Name = 
REMARK  5 active torsions:
REMARK  status: ('A' for Active; 'I' for Inactive)
REMARK    1  A    between atoms: C_1  and  C_2
REMARK    2  A    between atoms: C_2  and  C_3
REMARK    3  A    between atoms: C_2  and  C_4
REMARK    4  A    between atoms: N_11  and  C_12
REMARK    5  A    between atoms: C_12  and  C_13
REMARK                            x       y       z     vdW  Elec       q    Type
REMARK                         _______ _______ _______ _____ _____    ______ ____
ROOT
ATOM      1  C   UNL     1       5.174   5.610  17.338  0.00  0.00    +0.000 A 
ATOM      2  N   UNL     1       5.123   4.853  18.449  0.00  0.00    +0.000 NA
ATOM      3  C   UNL     1       4.152   5.153  19.328  0.00  0.00    +0.000 A 
ATOM      4  C   UNL     1       3.251   6.181  19.150  0.00  0.00    +0.000 A 
ATOM      5  C   UNL     1       3.392   6.922  17.992  0.00  0.00    +0.000 A 
ATOM      6  N   UNL     1       4.346   6.643  17.078  0.00  0.00    +0.000 NA
ATOM      7  C   UNL     1       2.557   8.168  17.754  0.00  0.00    +0.000 C 
ATOM      8  N   UNL     1       1.495   8.482  18.746  0.00  0.00    +0.000 NA
ATOM      9  C   UNL     1       1.810   7.963  20.093  0.00  0.00    +0.000 C 
ATOM     10  C   UNL     1       2.167   6.477  20.125  0.00  0.00    +0.000 C 
ENDROOT
BRANCH   1  12
ATOM     11  C   UNL     1       7.422   4.593  16.992  0.00  0.00    +0.000 C 
ATOM     12  C   UNL     1       6.232   5.269  16.316  0.00  0.00    +0.000 C 
ATOM     13  C   UNL     1       5.652   4.397  15.202  0.00  0.00    +0.000 C 
ENDBRANCH   1  12
BRANCH   8  14
ATOM     14  C   UNL     1       1.346   9.956  18.867  0.00  0.00    +0.000 C 
BRANCH  14  15
ATOM     15  C   UNL     1      -0.040  10.528  18.649  0.00  0.00    +0.000 A 
ATOM     16  C   UNL     1      -0.892   9.959  17.691  0.00  0.00    +0.000 A 
ATOM     17  C   UNL     1      -2.224  10.364  17.588  0.00  0.00    +0.000 A 
ATOM     18  C   UNL     1      -2.730  11.342  18.446  0.00  0.00    +0.000 A 
ATOM     19  C   UNL     1      -1.897  11.922  19.398  0.00  0.00    +0.000 A 
ATOM     20  C   UNL     1      -0.559  11.526  19.496  0.00  0.00    +0.000 A 
ATOM     21  O   UNL     1       0.292  12.082  20.425  0.00  0.00    +0.000 OA
ATOM     22  C   UNL     1      -0.442  12.571  21.548  0.00  0.00    +0.000 C 
ATOM     23  C   UNL     1      -1.561  13.493  21.100  0.00  0.00    +0.000 C 
ATOM     24  O   UNL     1      -2.492  12.832  20.238  0.00  0.00    +0.000 OA
ENDBRANCH  14  15
ENDBRANCH   8  14
TORSDOF 3
ENDMDL
MODEL 7
REMARK VINA RESULT:      -7.5      2.184      3.536
REMARK  Name = 
REMARK  5 active torsions:
REMARK  status: ('A' for Active; 'I' for Inactive)
REMARK    1  A    between atoms: C_1  and  C_2
REMARK    2  A    between atoms: C_2  and  C_3
REMARK    3  A    between atoms: C_2  and  C_4
REMARK    4  A    between atoms: N_11  and  C_12
REMARK    5  A    between atoms: C_12  and  C_13
REMARK                            x       y       z     vdW  Elec       q    Type
REMARK                         _______ _______ _______ _____ _____    ______ ____
ROOT
ATOM      1  C   UNL     1       5.762   4.723  18.551  0.00  0.00    +0.000 A 
ATOM      2  N   UNL     1       5.368   3.504  18.960  0.00  0.00    +0.000 NA
ATOM      3  C   UNL     1       4.141   3.428  19.501  0.00  0.00    +0.000 A 
ATOM      4  C   UNL     1       3.308   4.515  19.661  0.00  0.00    +0.000 A 
ATOM      5  C   UNL     1       3.803   5.731  19.234  0.00  0.00    +0.000 A 
ATOM      6  N   UNL     1       5.027   5.847  18.673  0.00  0.00    +0.000 NA
ATOM      7  C   UNL     1       3.042   7.020  19.491  0.00  0.00    +0.000 C 
ATOM      8  N   UNL     1       1.689   6.908  20.098  0.00  0.00    +0.000 NA
ATOM      9  C   UNL     1       1.545   5.701  20.937  0.00  0.00    +0.000 C 
ATOM     10  C   UNL     1       1.941   4.401  20.237  0.00  0.00    +0.000 C 
ENDROOT
BRANCH   1  12
ATOM     11  C   UNL     1       7.026   4.518  16.412  0.00  0.00    +0.000 C 
ATOM     12  C   UNL     1       7.123   4.829  17.904  0.00  0.00    +0.000 C 
ATOM     13  C   UNL     1       7.738   6.207  18.150  0.00  0.00    +0.000 C 
ENDBRANCH   1  12
BRANCH   8  14
ATOM     14  C   UNL     1       1.436   8.084  20.972  0.00  0.00    +0.000 C 
BRANCH  14  15
ATOM     15  C   UNL     1       0.725   9.266  20.347  0.00  0.00    +0.000 A 
ATOM     16  C   UNL     1       0.609   9.360  18.952  0.00  0.00    +0.000 A 
ATOM     17  C   UNL     1      -0.180  10.350  18.364  0.00  0.00    +0.000 A 
ATOM     18  C   UNL     1      -0.872  11.263  19.162  0.00  0.00    +0.000 A 
ATOM     19  C   UNL     1      -0.763  11.189  20.548  0.00  0.00    +0.000 A 
ATOM     20  C   UNL     1       0.035  10.204  21.139  0.00  0.00    +0.000 A 
ATOM     21  O   UNL     1       0.166  10.107  22.506  0.00  0.00    +0.000 OA
ATOM     22  C   UNL     1      -0.980  10.652  23.160  0.00  0.00    +0.000 C 
ATOM     23  C   UNL     1      -1.266  12.057  22.662  0.00  0.00    +0.000 C 
ATOM     24  O   UNL     1      -1.524  12.089  21.256  0.00  0.00    +0.000 OA
ENDBRANCH  14  15
ENDBRANCH   8  14
TORSDOF 3
ENDMDL
MODEL 8
REMARK VINA RESULT:      -7.5      3.402      8.413
REMARK  Name = 
REMARK  5 active torsions:
REMARK  status: ('A' for Active; 'I' for Inactive)
REMARK    1  A    between atoms: C_1  and  C_2
REMARK    2  A    between atoms: C_2  and  C_3
REMARK    3  A    between atoms: C_2  and  C_4
REMARK    4  A    between atoms: N_11  and  C_12
REMARK    5  A    between atoms: C_12  and  C_13
REMARK                            x       y       z     vdW  Elec       q    Type
REMARK                         _______ _______ _______ _____ _____    ______ ____
ROOT
ATOM      1  C   UNL     1       0.008  11.711  21.110  0.00  0.00    +0.000 A 
ATOM      2  N   UNL     1       0.232  12.441  20.002  0.00  0.00    +0.000 NA
ATOM      3  C   UNL     1       0.744  11.780  18.950  0.00  0.00    +0.000 A 
ATOM      4  C   UNL     1       1.051  10.437  18.967  0.00  0.00    +0.000 A 
ATOM      5  C   UNL     1       0.811   9.771  20.153  0.00  0.00    +0.000 A 
ATOM      6  N   UNL     1       0.285  10.396  21.229  0.00  0.00    +0.000 NA
ATOM      7  C   UNL     1       1.245   8.328  20.343  0.00  0.00    +0.000 C 
ATOM      8  N   UNL     1       1.815   7.623  19.164  0.00  0.00    +0.000 NA
ATOM      9  C   UNL     1       2.468   8.547  18.215  0.00  0.00    +0.000 C 
ATOM     10  C   UNL     1       1.591   9.722  17.779  0.00  0.00    +0.000 C 
ENDROOT
BRANCH   1  12
ATOM     11  C   UNL     1      -1.390  13.644  21.830  0.00  0.00    +0.000 C 
ATOM     12  C   UNL     1      -0.602  12.421  22.295  0.00  0.00    +0.000 C 
ATOM     13  C   UNL     1      -1.476  11.468  23.110  0.00  0.00    +0.000 C 
ENDBRANCH   1  12
BRANCH   8  14
ATOM     14  C   UNL     1       2.848   6.653  19.614  0.00  0.00    +0.000 C 
BRANCH  14  15
ATOM     15  C   UNL     1       2.967   5.362  18.833  0.00  0.00    +0.000 A 
ATOM     16  C   UNL     1       1.898   4.453  18.809  0.00  0.00    +0.000 A 
ATOM     17  C   UNL     1       1.924   3.340  17.968  0.00  0.00    +0.000 A 
ATOM     18  C   UNL     1       3.019   3.117  17.131  0.00  0.00    +0.000 A 
ATOM     19  C   UNL     1       4.091   4.004  17.146  0.00  0.00    +0.000 A 
ATOM     20  C   UNL     1       4.072   5.114  17.996  0.00  0.00    +0.000 A 
ATOM     21  O   UNL     1       5.119   6.008  18.038  0.00  0.00    +0.000 OA
ATOM     22  C   UNL     1       5.828   6.010  16.798  0.00  0.00    +0.000 C 
ATOM     23  C   UNL     1       6.230   4.600  16.407  0.00  0.00    +0.000 C 
ATOM     24  O   UNL     1       5.099   3.739  16.249  0.00  0.00    +0.000 OA
ENDBRANCH  14  15
ENDBRANCH   8  14
TORSDOF 3
ENDMDL
MODEL 9
REMARK VINA RESULT:      -7.5      3.242      8.082
REMARK  Name = 
REMARK  5 active torsions:
REMARK  status: ('A' for Active; 'I' for Inactive)
REMARK    1  A    between atoms: C_1  and  C_2
REMARK    2  A    between atoms: C_2  and  C_3
REMARK    3  A    between atoms: C_2  and  C_4
REMARK    4  A    between atoms: N_11  and  C_12
REMARK    5  A    between atoms: C_12  and  C_13
REMARK                            x       y       z     vdW  Elec       q    Type
REMARK                         _______ _______ _______ _____ _____    ______ ____
ROOT
ATOM      1  C   UNL     1      -0.085  11.316  21.133  0.00  0.00    +0.000 A 
ATOM      2  N   UNL     1       0.041  12.170  20.101  0.00  0.00    +0.000 NA
ATOM      3  C   UNL     1       0.600  11.674  18.985  0.00  0.00    +0.000 A 
ATOM      4  C   UNL     1       1.049  10.376  18.867  0.00  0.00    +0.000 A 
ATOM      5  C   UNL     1       0.901   9.576  19.983  0.00  0.00    +0.000 A 
ATOM      6  N   UNL     1       0.332  10.033  21.120  0.00  0.00    +0.000 NA
ATOM      7  C   UNL     1       1.489   8.176  20.026  0.00  0.00    +0.000 C 
ATOM      8  N   UNL     1       2.109   7.654  18.779  0.00  0.00    +0.000 NA
ATOM      9  C   UNL     1       2.644   8.731  17.922  0.00  0.00    +0.000 C 
ATOM     10  C   UNL     1       1.640   9.842  17.611  0.00  0.00    +0.000 C 
ENDROOT
BRANCH   1  12
ATOM     11  C   UNL     1      -1.907  12.763  22.027  0.00  0.00    +0.000 C 
ATOM     12  C   UNL     1      -0.746  11.838  22.386  0.00  0.00    +0.000 C 
ATOM     13  C   UNL     1      -1.204  10.687  23.281  0.00  0.00    +0.000 C 
ENDBRANCH   1  12
BRANCH   8  14
ATOM     14  C   UNL     1       3.247   6.762  19.125  0.00  0.00    +0.000 C 
BRANCH  14  15
ATOM     15  C   UNL     1       3.164   5.326  18.650  0.00  0.00    +0.000 A 
ATOM     16  C   UNL     1       3.760   4.951  17.436  0.00  0.00    +0.000 A 
ATOM     17  C   UNL     1       3.835   3.609  17.061  0.00  0.00    +0.000 A 
ATOM     18  C   UNL     1       3.321   2.616  17.896  0.00  0.00    +0.000 A 
ATOM     19  C   UNL     1       2.721   2.970  19.101  0.00  0.00    +0.000 A 
ATOM     20  C   UNL     1       2.634   4.315  19.474  0.00  0.00    +0.000 A 
ATOM     21  O   UNL     1       2.043   4.698  20.657  0.00  0.00    +0.000 OA
ATOM     22  C   UNL     1       2.113   3.644  21.618  0.00  0.00    +0.000 C 
ATOM     23  C   UNL     1       1.566   2.352  21.040  0.00  0.00    +0.000 C 
ATOM     24  O   UNL     1       2.295   1.925  19.886  0.00  0.00    +0.000 OA
ENDBRANCH  14  15
ENDBRANCH   8  14
TORSDOF 3
ENDMDL
