MODEL 1
REMARK VINA RESULT:      -6.9      0.000      0.000
REMARK  Name = 
REMARK  6 active torsions:
REMARK  status: ('A' for Active; 'I' for Inactive)
REMARK    1  A    between atoms: C_1  and  O_2
REMARK    2  A    between atoms: O_2  and  C_3
REMARK    3  A    between atoms: C_6  and  N_7
REMARK    4  A    between atoms: C_18  and  C_19
REMARK    5  A    between atoms: C_18  and  C_20
REMARK    6  A    between atoms: C_24  and  O_25
REMARK                            x       y       z     vdW  Elec       q    Type
REMARK                         _______ _______ _______ _____ _____    ______ ____
ROOT
ATOM      1  N   UNL     1       0.692  10.519  19.303  0.00  0.00    +0.000 N 
ATOM      2  C   UNL     1      -0.312  10.830  18.402  0.00  0.00    +0.000 A 
ATOM      3  O   UNL     1      -0.880  10.090  17.581  0.00  0.00    +0.000 OA
ATOM      4  N   UNL     1      -0.805  12.141  18.639  0.00  0.00    +0.000 N 
ATOM      5  N   UNL     1      -0.048  12.749  19.688  0.00  0.00    +0.000 N 
ATOM      6  C   UNL     1       0.800  11.613  20.199  0.00  0.00    +0.000 A 
ATOM      7  O   UNL     1       1.375  11.628  21.293  0.00  0.00    +0.000 OA
ATOM      8  C   UNL     1      -0.798  13.631  20.712  0.00  0.00    +0.000 C 
ATOM      9  C   UNL     1      -1.779  12.623  21.255  0.00  0.00    +0.000 C 
ATOM     10  C   UNL     1      -2.553  12.021  20.289  0.00  0.00    +0.000 C 
ATOM     11  C   UNL     1      -2.234  12.223  18.809  0.00  0.00    +0.000 C 
ATOM     12  C   UNL     1      -2.284  13.131  22.579  0.00  0.00    +0.000 C 
ATOM     13  C   UNL     1      -2.709  12.045  23.548  0.00  0.00    +0.000 C 
ATOM     14  C   UNL     1      -1.327  14.046  23.435  0.00  0.00    +0.000 C 
ATOM     15  O   UNL     1      -3.467  13.830  22.161  0.00  0.00    +0.000 OA
ATOM     16  C   UNL     1      -3.249  14.679  21.008  0.00  0.00    +0.000 A 
ATOM     17  C   UNL     1      -4.338  15.564  21.045  0.00  0.00    +0.000 A 
ATOM     18  C   UNL     1      -4.014  16.823  21.439  0.00  0.00    +0.000 A 
ATOM     19  C   UNL     1      -2.662  17.177  21.461  0.00  0.00    +0.000 A 
ATOM     20  C   UNL     1      -1.600  16.288  20.982  0.00  0.00    +0.000 A 
ATOM     21  C   UNL     1      -1.873  14.946  20.632  0.00  0.00    +0.000 A 
ENDROOT
BRANCH   1  25
ATOM     22  C   UNL     1       2.596   6.513  19.461  0.00  0.00    +0.000 A 
ATOM     23  C   UNL     1       2.635   7.311  18.323  0.00  0.00    +0.000 A 
ATOM     24  C   UNL     1       2.016   8.589  18.292  0.00  0.00    +0.000 A 
ATOM     25  C   UNL     1       1.304   9.160  19.384  0.00  0.00    +0.000 A 
ATOM     26  C   UNL     1       1.245   8.308  20.506  0.00  0.00    +0.000 A 
ATOM     27  C   UNL     1       1.882   7.014  20.539  0.00  0.00    +0.000 A 
BRANCH  22  29
ATOM     28  C   UNL     1       4.653   5.268  19.299  0.00  0.00    +0.000 C 
ATOM     29  O   UNL     1       3.226   5.303  19.344  0.00  0.00    +0.000 OA
ENDBRANCH  22  29
ENDBRANCH   1  25
BRANCH  18  30
ATOM     30  O   UNL     1      -4.993  17.632  21.959  0.00  0.00    +0.000 OA
ATOM     31  H   UNL     1      -4.894  17.680  22.933  0.00  0.00    +0.000 HD
ENDBRANCH  18  30
TORSDOF 3
ENDMDL
MODEL 2
REMARK VINA RESULT:      -6.8      0.528      1.051
REMARK  Name = 
REMARK  6 active torsions:
REMARK  status: ('A' for Active; 'I' for Inactive)
REMARK    1  A    between atoms: C_1  and  O_2
REMARK    2  A    between atoms: O_2  and  C_3
REMARK    3  A    between atoms: C_6  and  N_7
REMARK    4  A    between atoms: C_18  and  C_19
REMARK    5  A    between atoms: C_18  and  C_20
REMARK    6  A    between atoms: C_24  and  O_25
REMARK                            x       y       z     vdW  Elec       q    Type
REMARK                         _______ _______ _______ _____ _____    ______ ____
ROOT
ATOM      1  N   UNL     1       0.714  10.472  19.360  0.00  0.00    +0.000 N 
ATOM      2  C   UNL     1      -0.277  10.784  18.444  0.00  0.00    +0.000 A 
ATOM      3  O   UNL     1      -0.843  10.040  17.624  0.00  0.00    +0.000 OA
ATOM      4  N   UNL     1      -0.760  12.101  18.662  0.00  0.00    +0.000 N 
ATOM      5  N   UNL     1      -0.010  12.713  19.713  0.00  0.00    +0.000 N 
ATOM      6  C   UNL     1       0.821  11.574  20.246  0.00  0.00    +0.000 A 
ATOM      7  O   UNL     1       1.384  11.595  21.346  0.00  0.00    +0.000 OA
ATOM      8  C   UNL     1      -0.763  13.612  20.719  0.00  0.00    +0.000 C 
ATOM      9  C   UNL     1      -1.760  12.619  21.261  0.00  0.00    +0.000 C 
ATOM     10  C   UNL     1      -2.528  12.014  20.293  0.00  0.00    +0.000 C 
ATOM     11  C   UNL     1      -2.191  12.198  18.814  0.00  0.00    +0.000 C 
ATOM     12  C   UNL     1      -2.276  13.145  22.574  0.00  0.00    +0.000 C 
ATOM     13  C   UNL     1      -2.722  12.073  23.549  0.00  0.00    +0.000 C 
ATOM     14  C   UNL     1      -1.321  14.060  23.432  0.00  0.00    +0.000 C 
ATOM     15  O   UNL     1      -3.447  13.851  22.135  0.00  0.00    +0.000 OA
ATOM     16  C   UNL     1      -3.208  14.686  20.976  0.00  0.00    +0.000 A 
ATOM     17  C   UNL     1      -4.289  15.582  20.991  0.00  0.00    +0.000 A 
ATOM     18  C   UNL     1      -3.958  16.841  21.376  0.00  0.00    +0.000 A 
ATOM     19  C   UNL     1      -2.603  17.183  21.410  0.00  0.00    +0.000 A 
ATOM     20  C   UNL     1      -1.543  16.279  20.953  0.00  0.00    +0.000 A 
ATOM     21  C   UNL     1      -1.825  14.937  20.614  0.00  0.00    +0.000 A 
ENDROOT
BRANCH   1  25
ATOM     22  C   UNL     1       2.403   6.386  19.743  0.00  0.00    +0.000 A 
ATOM     23  C   UNL     1       1.698   6.999  20.773  0.00  0.00    +0.000 A 
ATOM     24  C   UNL     1       1.169   8.310  20.632  0.00  0.00    +0.000 A 
ATOM     25  C   UNL     1       1.312   9.108  19.462  0.00  0.00    +0.000 A 
ATOM     26  C   UNL     1       2.067   8.475  18.454  0.00  0.00    +0.000 A 
ATOM     27  C   UNL     1       2.597   7.141  18.596  0.00  0.00    +0.000 A 
BRANCH  22  29
ATOM     28  C   UNL     1       2.192   4.350  21.016  0.00  0.00    +0.000 C 
ATOM     29  O   UNL     1       2.863   5.127  20.023  0.00  0.00    +0.000 OA
ENDBRANCH  22  29
ENDBRANCH   1  25
BRANCH  18  30
ATOM     30  O   UNL     1      -4.935  17.664  21.876  0.00  0.00    +0.000 OA
ATOM     31  H   UNL     1      -4.818  17.760  22.845  0.00  0.00    +0.000 HD
ENDBRANCH  18  30
TORSDOF 3
ENDMDL
MODEL 3
REMARK VINA RESULT:      -6.7      3.480      5.147
REMARK  Name = 
REMARK  6 active torsions:
REMARK  status: ('A' for Active; 'I' for Inactive)
REMARK    1  A    between atoms: C_1  and  O_2
REMARK    2  A    between atoms: O_2  and  C_3
REMARK    3  A    between atoms: C_6  and  N_7
REMARK    4  A    between atoms: C_18  and  C_19
REMARK    5  A    between atoms: C_18  and  C_20
REMARK    6  A    between atoms: C_24  and  O_25
REMARK                            x       y       z     vdW  Elec       q    Type
REMARK                         _______ _______ _______ _____ _____    ______ ____
ROOT
ATOM      1  N   UNL     1       0.504  13.169  20.179  0.00  0.00    +0.000 N 
ATOM      2  C   UNL     1       0.299  12.051  20.969  0.00  0.00    +0.000 A 
ATOM      3  O   UNL     1       1.137  11.357  21.570  0.00  0.00    +0.000 OA
ATOM      4  N   UNL     1      -1.088  11.853  21.202  0.00  0.00    +0.000 N 
ATOM      5  N   UNL     1      -1.835  12.832  20.476  0.00  0.00    +0.000 N 
ATOM      6  C   UNL     1      -0.766  13.762  19.960  0.00  0.00    +0.000 A 
ATOM      7  O   UNL     1      -0.997  14.901  19.542  0.00  0.00    +0.000 OA
ATOM      8  C   UNL     1      -3.084  13.442  21.149  0.00  0.00    +0.000 C 
ATOM      9  C   UNL     1      -2.452  14.036  22.383  0.00  0.00    +0.000 C 
ATOM     10  C   UNL     1      -1.737  13.131  23.134  0.00  0.00    +0.000 C 
ATOM     11  C   UNL     1      -1.452  11.732  22.591  0.00  0.00    +0.000 C 
ATOM     12  C   UNL     1      -3.394  15.072  22.937  0.00  0.00    +0.000 C 
ATOM     13  C   UNL     1      -2.716  16.191  23.703  0.00  0.00    +0.000 C 
ATOM     14  C   UNL     1      -4.341  15.827  21.928  0.00  0.00    +0.000 C 
ATOM     15  O   UNL     1      -4.132  14.281  23.882  0.00  0.00    +0.000 OA
ATOM     16  C   UNL     1      -4.568  13.009  23.342  0.00  0.00    +0.000 A 
ATOM     17  C   UNL     1      -5.596  12.620  24.216  0.00  0.00    +0.000 A 
ATOM     18  C   UNL     1      -6.842  12.732  23.687  0.00  0.00    +0.000 A 
ATOM     19  C   UNL     1      -6.956  12.910  22.305  0.00  0.00    +0.000 A 
ATOM     20  C   UNL     1      -5.803  12.876  21.402  0.00  0.00    +0.000 A 
ATOM     21  C   UNL     1      -4.483  12.836  21.904  0.00  0.00    +0.000 A 
ENDROOT
BRANCH   1  25
ATOM     22  C   UNL     1       4.512  14.798  19.189  0.00  0.00    +0.000 A 
ATOM     23  C   UNL     1       3.636  14.334  18.214  0.00  0.00    +0.000 A 
ATOM     24  C   UNL     1       2.358  13.812  18.552  0.00  0.00    +0.000 A 
ATOM     25  C   UNL     1       1.865  13.704  19.883  0.00  0.00    +0.000 A 
ATOM     26  C   UNL     1       2.793  14.143  20.849  0.00  0.00    +0.000 A 
ATOM     27  C   UNL     1       4.087  14.680  20.503  0.00  0.00    +0.000 A 
BRANCH  22  29
ATOM     28  C   UNL     1       6.462  14.450  17.816  0.00  0.00    +0.000 C 
ATOM     29  O   UNL     1       5.711  15.263  18.718  0.00  0.00    +0.000 OA
ENDBRANCH  22  29
ENDBRANCH   1  25
BRANCH  18  30
ATOM     30  O   UNL     1      -7.916  12.842  24.533  0.00  0.00    +0.000 OA
ATOM     31  H   UNL     1      -7.633  12.643  25.451  0.00  0.00    +0.000 HD
ENDBRANCH  18  30
TORSDOF 3
ENDMDL
MODEL 4
REMARK VINA RESULT:      -6.6      1.855      2.351
REMARK  Name = 
REMARK  6 active torsions:
REMARK  status: ('A' for Active; 'I' for Inactive)
REMARK    1  A    between atoms: C_1  and  O_2
REMARK    2  A    between atoms: O_2  and  C_3
REMARK    3  A    between atoms: C_6  and  N_7
REMARK    4  A    between atoms: C_18  and  C_19
REMARK    5  A    between atoms: C_18  and  C_20
REMARK    6  A    between atoms: C_24  and  O_25
REMARK                            x       y       z     vdW  Elec       q    Type
REMARK                         _______ _______ _______ _____ _____    ______ ____
ROOT
ATOM      1  N   UNL     1      -0.842  11.608  20.413  0.00  0.00    +0.000 N 
ATOM      2  C   UNL     1      -1.898  11.854  19.551  0.00  0.00    +0.000 A 
ATOM      3  O   UNL     1      -2.383  11.111  18.681  0.00  0.00    +0.000 OA
ATOM      4  N   UNL     1      -2.551  13.066  19.898  0.00  0.00    +0.000 N 
ATOM      5  N   UNL     1      -1.857  13.686  20.982  0.00  0.00    +0.000 N 
ATOM      6  C   UNL     1      -0.858  12.634  21.392  0.00  0.00    +0.000 A 
ATOM      7  O   UNL     1      -0.266  12.641  22.477  0.00  0.00    +0.000 OA
ATOM      8  C   UNL     1      -2.692  14.380  22.081  0.00  0.00    +0.000 C 
ATOM      9  C   UNL     1      -3.522  13.214  22.554  0.00  0.00    +0.000 C 
ATOM     10  C   UNL     1      -4.232  12.592  21.553  0.00  0.00    +0.000 C 
ATOM     11  C   UNL     1      -3.975  12.947  20.090  0.00  0.00    +0.000 C 
ATOM     12  C   UNL     1      -4.060  13.548  23.920  0.00  0.00    +0.000 C 
ATOM     13  C   UNL     1      -4.319  12.344  24.805  0.00  0.00    +0.000 C 
ATOM     14  C   UNL     1      -3.211  14.511  24.835  0.00  0.00    +0.000 C 
ATOM     15  O   UNL     1      -5.332  14.116  23.573  0.00  0.00    +0.000 OA
ATOM     16  C   UNL     1      -5.252  15.073  22.488  0.00  0.00    +0.000 A 
ATOM     17  C   UNL     1      -6.445  15.802  22.608  0.00  0.00    +0.000 A 
ATOM     18  C   UNL     1      -6.279  17.058  23.096  0.00  0.00    +0.000 A 
ATOM     19  C   UNL     1      -4.984  17.584  23.131  0.00  0.00    +0.000 A 
ATOM     20  C   UNL     1      -3.826  16.881  22.571  0.00  0.00    +0.000 A 
ATOM     21  C   UNL     1      -3.931  15.546  22.119  0.00  0.00    +0.000 A 
ENDROOT
BRANCH   1  25
ATOM     22  C   UNL     1       1.573   7.889  20.239  0.00  0.00    +0.000 A 
ATOM     23  C   UNL     1       1.553   8.813  19.199  0.00  0.00    +0.000 A 
ATOM     24  C   UNL     1       0.770   9.995  19.273  0.00  0.00    +0.000 A 
ATOM     25  C   UNL     1      -0.058  10.339  20.379  0.00  0.00    +0.000 A 
ATOM     26  C   UNL     1      -0.048   9.363  21.396  0.00  0.00    +0.000 A 
ATOM     27  C   UNL     1       0.754   8.166  21.323  0.00  0.00    +0.000 A 
BRANCH  22  29
ATOM     28  C   UNL     1       1.964   5.533  20.567  0.00  0.00    +0.000 C 
ATOM     29  O   UNL     1       2.364   6.792  20.026  0.00  0.00    +0.000 OA
ENDBRANCH  22  29
ENDBRANCH   1  25
BRANCH  18  30
ATOM     30  O   UNL     1      -7.343  17.689  23.690  0.00  0.00    +0.000 OA
ATOM     31  H   UNL     1      -7.017  18.429  24.244  0.00  0.00    +0.000 HD
ENDBRANCH  18  30
TORSDOF 3
ENDMDL
MODEL 5
REMARK VINA RESULT:      -6.6      4.276      5.719
REMARK  Name = 
REMARK  6 active torsions:
REMARK  status: ('A' for Active; 'I' for Inactive)
REMARK    1  A    between atoms: C_1  and  O_2
REMARK    2  A    between atoms: O_2  and  C_3
REMARK    3  A    between atoms: C_6  and  N_7
REMARK    4  A    between atoms: C_18  and  C_19
REMARK    5  A    between atoms: C_18  and  C_20
REMARK    6  A    between atoms: C_24  and  O_25
REMARK                            x       y       z     vdW  Elec       q    Type
REMARK                         _______ _______ _______ _____ _____    ______ ____
ROOT
ATOM      1  N   UNL     1       3.111  15.144  19.958  0.00  0.00    +0.000 N 
ATOM      2  C   UNL     1       2.106  15.878  19.350  0.00  0.00    +0.000 A 
ATOM      3  O   UNL     1       2.147  16.528  18.291  0.00  0.00    +0.000 OA
ATOM      4  N   UNL     1       0.864  15.659  20.004  0.00  0.00    +0.000 N 
ATOM      5  N   UNL     1       1.067  14.808  21.133  0.00  0.00    +0.000 N 
ATOM      6  C   UNL     1       2.500  14.367  20.975  0.00  0.00    +0.000 A 
ATOM      7  O   UNL     1       2.984  13.395  21.564  0.00  0.00    +0.000 OA
ATOM      8  C   UNL     1      -0.005  13.740  21.444  0.00  0.00    +0.000 C 
ATOM      9  C   UNL     1       0.024  12.958  20.155  0.00  0.00    +0.000 C 
ATOM     10  C   UNL     1      -0.189  13.726  19.032  0.00  0.00    +0.000 C 
ATOM     11  C   UNL     1      -0.209  15.250  19.132  0.00  0.00    +0.000 C 
ATOM     12  C   UNL     1      -0.592  11.609  20.413  0.00  0.00    +0.000 C 
ATOM     13  C   UNL     1      -0.077  10.501  19.516  0.00  0.00    +0.000 C 
ATOM     14  C   UNL     1      -0.471  11.005  21.865  0.00  0.00    +0.000 C 
ATOM     15  O   UNL     1      -1.957  11.867  20.048  0.00  0.00    +0.000 OA
ATOM     16  C   UNL     1      -2.472  13.102  20.604  0.00  0.00    +0.000 A 
ATOM     17  C   UNL     1      -3.864  12.943  20.516  0.00  0.00    +0.000 A 
ATOM     18  C   UNL     1      -4.470  12.710  21.708  0.00  0.00    +0.000 A 
ATOM     19  C   UNL     1      -3.739  12.951  22.876  0.00  0.00    +0.000 A 
ATOM     20  C   UNL     1      -2.396  13.537  22.865  0.00  0.00    +0.000 A 
ATOM     21  C   UNL     1      -1.693  13.731  21.654  0.00  0.00    +0.000 A 
ENDROOT
BRANCH   1  25
ATOM     22  C   UNL     1       7.270  14.905  18.429  0.00  0.00    +0.000 A 
ATOM     23  C   UNL     1       6.967  15.422  19.684  0.00  0.00    +0.000 A 
ATOM     24  C   UNL     1       5.629  15.494  20.153  0.00  0.00    +0.000 A 
ATOM     25  C   UNL     1       4.495  15.068  19.405  0.00  0.00    +0.000 A 
ATOM     26  C   UNL     1       4.832  14.589  18.122  0.00  0.00    +0.000 A 
ATOM     27  C   UNL     1       6.193  14.510  17.650  0.00  0.00    +0.000 A 
BRANCH  22  29
ATOM     28  C   UNL     1       9.321  13.675  18.130  0.00  0.00    +0.000 C 
ATOM     29  O   UNL     1       8.601  14.907  18.106  0.00  0.00    +0.000 OA
ENDBRANCH  22  29
ENDBRANCH   1  25
BRANCH  18  30
ATOM     30  O   UNL     1      -5.694  12.090  21.724  0.00  0.00    +0.000 OA
ATOM     31  H   UNL     1      -5.641  11.248  21.224  0.00  0.00    +0.000 HD
ENDBRANCH  18  30
TORSDOF 3
ENDMDL
MODEL 6
REMARK VINA RESULT:      -6.5      0.865      1.272
REMARK  Name = 
REMARK  6 active torsions:
REMARK  status: ('A' for Active; 'I' for Inactive)
REMARK    1  A    between atoms: C_1  and  O_2
REMARK    2  A    between atoms: O_2  and  C_3
REMARK    3  A    between atoms: C_6  and  N_7
REMARK    4  A    between atoms: C_18  and  C_19
REMARK    5  A    between atoms: C_18  and  C_20
REMARK    6  A    between atoms: C_24  and  O_25
REMARK                            x       y       z     vdW  Elec       q    Type
REMARK                         _______ _______ _______ _____ _____    ______ ____
ROOT
ATOM      1  N   UNL     1       0.463  10.837  18.856  0.00  0.00    +0.000 N 
ATOM      2  C   UNL     1      -0.812  10.942  18.327  0.00  0.00    +0.000 A 
ATOM      3  O   UNL     1      -1.577  10.038  17.949  0.00  0.00    +0.000 OA
ATOM      4  N   UNL     1      -1.284  12.278  18.426  0.00  0.00    +0.000 N 
ATOM      5  N   UNL     1      -0.254  13.105  18.973  0.00  0.00    +0.000 N 
ATOM      6  C   UNL     1       0.798  12.108  19.388  0.00  0.00    +0.000 A 
ATOM      7  O   UNL     1       1.717  12.371  20.172  0.00  0.00    +0.000 OA
ATOM      8  C   UNL     1      -0.660  14.210  19.973  0.00  0.00    +0.000 C 
ATOM      9  C   UNL     1      -1.314  13.370  21.040  0.00  0.00    +0.000 C 
ATOM     10  C   UNL     1      -2.332  12.569  20.573  0.00  0.00    +0.000 C 
ATOM     11  C   UNL     1      -2.565  12.416  19.071  0.00  0.00    +0.000 C 
ATOM     12  C   UNL     1      -1.361  14.179  22.308  0.00  0.00    +0.000 C 
ATOM     13  C   UNL     1      -1.341  13.355  23.581  0.00  0.00    +0.000 C 
ATOM     14  C   UNL     1      -0.232  15.256  22.541  0.00  0.00    +0.000 C 
ATOM     15  O   UNL     1      -2.661  14.777  22.195  0.00  0.00    +0.000 OA
ATOM     16  C   UNL     1      -2.921  15.330  20.882  0.00  0.00    +0.000 A 
ATOM     17  C   UNL     1      -3.989  16.214  21.107  0.00  0.00    +0.000 A 
ATOM     18  C   UNL     1      -3.639  17.525  21.069  0.00  0.00    +0.000 A 
ATOM     19  C   UNL     1      -2.393  17.857  20.528  0.00  0.00    +0.000 A 
ATOM     20  C   UNL     1      -1.504  16.868  19.913  0.00  0.00    +0.000 A 
ATOM     21  C   UNL     1      -1.786  15.485  19.992  0.00  0.00    +0.000 A 
ENDROOT
BRANCH   1  25
ATOM     22  C   UNL     1       2.457   6.911  19.416  0.00  0.00    +0.000 A 
ATOM     23  C   UNL     1       1.814   7.574  20.455  0.00  0.00    +0.000 A 
ATOM     24  C   UNL     1       1.185   8.832  20.256  0.00  0.00    +0.000 A 
ATOM     25  C   UNL     1       1.160   9.526  19.014  0.00  0.00    +0.000 A 
ATOM     26  C   UNL     1       1.857   8.849  17.992  0.00  0.00    +0.000 A 
ATOM     27  C   UNL     1       2.488   7.567  18.194  0.00  0.00    +0.000 A 
BRANCH  22  29
ATOM     28  C   UNL     1       4.364   5.440  19.337  0.00  0.00    +0.000 C 
ATOM     29  O   UNL     1       3.027   5.714  19.755  0.00  0.00    +0.000 OA
ENDBRANCH  22  29
ENDBRANCH   1  25
BRANCH  18  30
ATOM     30  O   UNL     1      -4.429  18.445  21.710  0.00  0.00    +0.000 OA
ATOM     31  H   UNL     1      -5.228  18.000  22.065  0.00  0.00    +0.000 HD
ENDBRANCH  18  30
TORSDOF 3
ENDMDL
MODEL 7
REMARK VINA RESULT:      -6.3      2.501      3.354
REMARK  Name = 
REMARK  6 active torsions:
REMARK  status: ('A' for Active; 'I' for Inactive)
REMARK    1  A    between atoms: C_1  and  O_2
REMARK    2  A    between atoms: O_2  and  C_3
REMARK    3  A    between atoms: C_6  and  N_7
REMARK    4  A    between atoms: C_18  and  C_19
REMARK    5  A    between atoms: C_18  and  C_20
REMARK    6  A    between atoms: C_24  and  O_25
REMARK                            x       y       z     vdW  Elec       q    Type
REMARK                         _______ _______ _______ _____ _____    ______ ____
ROOT
ATOM      1  N   UNL     1       1.066   9.491  19.094  0.00  0.00    +0.000 N 
ATOM      2  C   UNL     1      -0.003   9.726  19.942  0.00  0.00    +0.000 A 
ATOM      3  O   UNL     1      -0.469   8.992  20.831  0.00  0.00    +0.000 OA
ATOM      4  N   UNL     1      -0.452  11.067  19.819  0.00  0.00    +0.000 N 
ATOM      5  N   UNL     1       0.299  11.726  18.797  0.00  0.00    +0.000 N 
ATOM      6  C   UNL     1       1.376  10.725  18.466  0.00  0.00    +0.000 A 
ATOM      7  O   UNL     1       2.411  11.011  17.854  0.00  0.00    +0.000 OA
ATOM      8  C   UNL     1       0.704  13.200  19.024  0.00  0.00    +0.000 C 
ATOM      9  C   UNL     1       1.508  13.057  20.291  0.00  0.00    +0.000 C 
ATOM     10  C   UNL     1       0.825  12.449  21.319  0.00  0.00    +0.000 C 
ATOM     11  C   UNL     1      -0.529  11.791  21.063  0.00  0.00    +0.000 C 
ATOM     12  C   UNL     1       2.379  14.277  20.431  0.00  0.00    +0.000 C 
ATOM     13  C   UNL     1       3.668  14.045  21.194  0.00  0.00    +0.000 C 
ATOM     14  C   UNL     1       2.848  15.006  19.113  0.00  0.00    +0.000 C 
ATOM     15  O   UNL     1       1.537  15.113  21.239  0.00  0.00    +0.000 OA
ATOM     16  C   UNL     1       0.165  15.158  20.777  0.00  0.00    +0.000 A 
ATOM     17  C   UNL     1      -0.347  16.314  21.387  0.00  0.00    +0.000 A 
ATOM     18  C   UNL     1      -0.525  17.356  20.534  0.00  0.00    +0.000 A 
ATOM     19  C   UNL     1      -0.486  17.096  19.161  0.00  0.00    +0.000 A 
ATOM     20  C   UNL     1      -0.365  15.743  18.612  0.00  0.00    +0.000 A 
ATOM     21  C   UNL     1      -0.103  14.635  19.450  0.00  0.00    +0.000 A 
ENDROOT
BRANCH   1  25
ATOM     22  C   UNL     1       3.264   5.637  19.205  0.00  0.00    +0.000 A 
ATOM     23  C   UNL     1       2.516   6.099  20.283  0.00  0.00    +0.000 A 
ATOM     24  C   UNL     1       1.823   7.338  20.229  0.00  0.00    +0.000 A 
ATOM     25  C   UNL     1       1.833   8.211  19.105  0.00  0.00    +0.000 A 
ATOM     26  C   UNL     1       2.634   7.735  18.046  0.00  0.00    +0.000 A 
ATOM     27  C   UNL     1       3.331   6.473  18.100  0.00  0.00    +0.000 A 
BRANCH  22  29
ATOM     28  C   UNL     1       5.143   4.191  18.771  0.00  0.00    +0.000 C 
ATOM     29  O   UNL     1       3.886   4.434  19.403  0.00  0.00    +0.000 OA
ENDBRANCH  22  29
ENDBRANCH   1  25
BRANCH  18  30
ATOM     30  O   UNL     1      -0.562  18.631  21.039  0.00  0.00    +0.000 OA
ATOM     31  H   UNL     1      -1.494  18.928  21.111  0.00  0.00    +0.000 HD
ENDBRANCH  18  30
TORSDOF 3
ENDMDL
MODEL 8
REMARK VINA RESULT:      -6.2      2.096      2.920
REMARK  Name = 
REMARK  6 active torsions:
REMARK  status: ('A' for Active; 'I' for Inactive)
REMARK    1  A    between atoms: C_1  and  O_2
REMARK    2  A    between atoms: O_2  and  C_3
REMARK    3  A    between atoms: C_6  and  N_7
REMARK    4  A    between atoms: C_18  and  C_19
REMARK    5  A    between atoms: C_18  and  C_20
REMARK    6  A    between atoms: C_24  and  O_25
REMARK                            x       y       z     vdW  Elec       q    Type
REMARK                         _______ _______ _______ _____ _____    ______ ____
ROOT
ATOM      1  N   UNL     1       0.105  11.669  21.682  0.00  0.00    +0.000 N 
ATOM      2  C   UNL     1       0.346  12.927  21.156  0.00  0.00    +0.000 A 
ATOM      3  O   UNL     1       0.974  13.235  20.128  0.00  0.00    +0.000 OA
ATOM      4  N   UNL     1      -0.401  13.911  21.857  0.00  0.00    +0.000 N 
ATOM      5  N   UNL     1      -1.106  13.292  22.935  0.00  0.00    +0.000 N 
ATOM      6  C   UNL     1      -0.882  11.822  22.688  0.00  0.00    +0.000 A 
ATOM      7  O   UNL     1      -1.563  10.931  23.208  0.00  0.00    +0.000 OA
ATOM      8  C   UNL     1      -2.539  13.781  23.245  0.00  0.00    +0.000 C 
ATOM      9  C   UNL     1      -3.202  13.500  21.921  0.00  0.00    +0.000 C 
ATOM     10  C   UNL     1      -2.577  14.091  20.846  0.00  0.00    +0.000 C 
ATOM     11  C   UNL     1      -1.214  14.756  21.018  0.00  0.00    +0.000 C 
ATOM     12  C   UNL     1      -4.691  13.460  22.144  0.00  0.00    +0.000 C 
ATOM     13  C   UNL     1      -5.448  12.576  21.173  0.00  0.00    +0.000 C 
ATOM     14  C   UNL     1      -5.215  13.000  23.558  0.00  0.00    +0.000 C 
ATOM     15  O   UNL     1      -5.039  14.823  21.856  0.00  0.00    +0.000 OA
ATOM     16  C   UNL     1      -4.159  15.782  22.492  0.00  0.00    +0.000 A 
ATOM     17  C   UNL     1      -4.900  16.973  22.462  0.00  0.00    +0.000 A 
ATOM     18  C   UNL     1      -5.399  17.345  23.670  0.00  0.00    +0.000 A 
ATOM     19  C   UNL     1      -4.892  16.717  24.811  0.00  0.00    +0.000 A 
ATOM     20  C   UNL     1      -3.783  15.759  24.766  0.00  0.00    +0.000 A 
ATOM     21  C   UNL     1      -3.279  15.284  23.534  0.00  0.00    +0.000 A 
ENDROOT
BRANCH   1  25
ATOM     22  C   UNL     1       1.753   8.032  19.744  0.00  0.00    +0.000 A 
ATOM     23  C   UNL     1       1.342   9.143  19.015  0.00  0.00    +0.000 A 
ATOM     24  C   UNL     1       0.813  10.296  19.654  0.00  0.00    +0.000 A 
ATOM     25  C   UNL     1       0.644  10.423  21.061  0.00  0.00    +0.000 A 
ATOM     26  C   UNL     1       1.030   9.265  21.768  0.00  0.00    +0.000 A 
ATOM     27  C   UNL     1       1.574   8.098  21.117  0.00  0.00    +0.000 A 
BRANCH  22  29
ATOM     28  C   UNL     1       2.650   5.797  19.657  0.00  0.00    +0.000 C 
ATOM     29  O   UNL     1       2.232   6.991  18.995  0.00  0.00    +0.000 OA
ENDBRANCH  22  29
ENDBRANCH   1  25
BRANCH  18  30
ATOM     30  O   UNL     1      -6.486  18.181  23.714  0.00  0.00    +0.000 OA
ATOM     31  H   UNL     1      -7.165  17.868  23.080  0.00  0.00    +0.000 HD
ENDBRANCH  18  30
TORSDOF 3
ENDMDL
MODEL 9
REMARK VINA RESULT:      -6.2      1.485      1.989
REMARK  Name = 
REMARK  6 active torsions:
REMARK  status: ('A' for Active; 'I' for Inactive)
REMARK    1  A    between atoms: C_1  and  O_2
REMARK    2  A    between atoms: O_2  and  C_3
REMARK    3  A    between atoms: C_6  and  N_7
REMARK    4  A    between atoms: C_18  and  C_19
REMARK    5  A    between atoms: C_18  and  C_20
REMARK    6  A    between atoms: C_24  and  O_25
REMARK                            x       y       z     vdW  Elec       q    Type
REMARK                         _______ _______ _______ _____ _____    ______ ____
ROOT
ATOM      1  N   UNL     1      -0.530  11.362  19.977  0.00  0.00    +0.000 N 
ATOM      2  C   UNL     1      -1.633  11.530  19.156  0.00  0.00    +0.000 A 
ATOM      3  O   UNL     1      -2.138  10.726  18.354  0.00  0.00    +0.000 OA
ATOM      4  N   UNL     1      -2.304  12.743  19.467  0.00  0.00    +0.000 N 
ATOM      5  N   UNL     1      -1.576  13.441  20.479  0.00  0.00    +0.000 N 
ATOM      6  C   UNL     1      -0.528  12.442  20.896  0.00  0.00    +0.000 A 
ATOM      7  O   UNL     1       0.116  12.526  21.948  0.00  0.00    +0.000 OA
ATOM      8  C   UNL     1      -2.376  14.175  21.578  0.00  0.00    +0.000 C 
ATOM      9  C   UNL     1      -3.148  13.017  22.156  0.00  0.00    +0.000 C 
ATOM     10  C   UNL     1      -3.888  12.320  21.228  0.00  0.00    +0.000 C 
ATOM     11  C   UNL     1      -3.712  12.597  19.737  0.00  0.00    +0.000 C 
ATOM     12  C   UNL     1      -3.629  13.414  23.527  0.00  0.00    +0.000 C 
ATOM     13  C   UNL     1      -3.809  12.256  24.489  0.00  0.00    +0.000 C 
ATOM     14  C   UNL     1      -2.764  14.450  24.343  0.00  0.00    +0.000 C 
ATOM     15  O   UNL     1      -4.932  13.927  23.213  0.00  0.00    +0.000 OA
ATOM     16  C   UNL     1      -4.932  14.822  22.073  0.00  0.00    +0.000 A 
ATOM     17  C   UNL     1      -6.139  15.526  22.212  0.00  0.00    +0.000 A 
ATOM     18  C   UNL     1      -5.986  16.812  22.621  0.00  0.00    +0.000 A 
ATOM     19  C   UNL     1      -4.706  17.372  22.560  0.00  0.00    +0.000 A 
ATOM     20  C   UNL     1      -3.557  16.669  21.983  0.00  0.00    +0.000 A 
ATOM     21  C   UNL     1      -3.645  15.308  21.613  0.00  0.00    +0.000 A 
ENDROOT
BRANCH   1  25
ATOM     22  C   UNL     1       1.826   7.601  20.051  0.00  0.00    +0.000 A 
ATOM     23  C   UNL     1       1.084   8.036  21.144  0.00  0.00    +0.000 A 
ATOM     24  C   UNL     1       0.340   9.246  21.101  0.00  0.00    +0.000 A 
ATOM     25  C   UNL     1       0.289  10.114  19.974  0.00  0.00    +0.000 A 
ATOM     26  C   UNL     1       1.085   9.667  18.900  0.00  0.00    +0.000 A 
ATOM     27  C   UNL     1       1.833   8.434  18.942  0.00  0.00    +0.000 A 
BRANCH  22  29
ATOM     28  C   UNL     1       3.332   5.928  19.189  0.00  0.00    +0.000 C 
ATOM     29  O   UNL     1       2.500   6.425  20.238  0.00  0.00    +0.000 OA
ENDBRANCH  22  29
ENDBRANCH   1  25
BRANCH  18  30
ATOM     30  O   UNL     1      -7.037  17.447  23.231  0.00  0.00    +0.000 OA
ATOM     31  H   UNL     1      -6.712  18.247  23.695  0.00  0.00    +0.000 HD
ENDBRANCH  18  30
TORSDOF 3
ENDMDL
