MODEL 1
REMARK VINA RESULT:      -6.5      0.000      0.000
REMARK  Name = 
REMARK  8 active torsions:
REMARK  status: ('A' for Active; 'I' for Inactive)
REMARK    1  A    between atoms: C_2  and  O_3
REMARK    2  A    between atoms: C_2  and  C_4
REMARK    3  A    between atoms: C_4  and  C_5
REMARK    4  A    between atoms: C_7  and  O_8
REMARK    5  A    between atoms: C_9  and  C_10
REMARK    6  A    between atoms: C_10  and  C_11
REMARK    7  A    between atoms: C_11  and  O_13
REMARK    8  A    between atoms: C_15  and  O_16
REMARK                            x       y       z     vdW  Elec       q    Type
REMARK                         _______ _______ _______ _____ _____    ______ ____
ROOT
ATOM      1  C   UNL     1       3.233   3.226  19.015  0.00  0.00    +0.000 A 
ATOM      2  C   UNL     1       4.345   3.726  19.710  0.00  0.00    +0.000 A 
ATOM      3  C   UNL     1       5.291   4.512  19.050  0.00  0.00    +0.000 A 
ATOM      4  C   UNL     1       5.140   4.861  17.705  0.00  0.00    +0.000 A 
ATOM      5  C   UNL     1       4.006   4.395  17.020  0.00  0.00    +0.000 A 
ATOM      6  C   UNL     1       3.068   3.592  17.677  0.00  0.00    +0.000 A 
ENDROOT
BRANCH   3   7
ATOM      7  O   UNL     1       6.409   4.936  19.710  0.00  0.00    +0.000 OA
ATOM      8  H   UNL     1       6.818   5.659  19.204  0.00  0.00    +0.000 HD
ENDBRANCH   3   7
BRANCH   6   9
ATOM      9  O   UNL     1       1.949   3.158  17.019  0.00  0.00    +0.000 OA
ATOM     10  H   UNL     1       1.992   3.486  16.101  0.00  0.00    +0.000 HD
ENDBRANCH   6   9
BRANCH   1  11
ATOM     11  C   UNL     1       2.275   2.281  19.704  0.00  0.00    +0.000 C 
BRANCH  11  13
ATOM     12  O   UNL     1       1.592   2.613  21.994  0.00  0.00    +0.000 OA
ATOM     13  C   UNL     1       1.461   2.902  20.813  0.00  0.00    +0.000 C 
BRANCH  13  14
ATOM     14  O   UNL     1       0.524   3.781  20.381  0.00  0.00    +0.000 OA
ATOM     15  H   UNL     1      -0.237   3.843  21.000  0.00  0.00    +0.000 HD
ENDBRANCH  13  14
ENDBRANCH  11  13
ENDBRANCH   1  11
BRANCH   4  16
ATOM     16  C   UNL     1       6.128   5.778  17.017  0.00  0.00    +0.000 C 
BRANCH  16  17
ATOM     17  C   UNL     1       7.309   5.064  16.402  0.00  0.00    +0.000 C 
ATOM     18  O   UNL     1       8.004   4.262  17.004  0.00  0.00    +0.000 OA
BRANCH  17  19
ATOM     19  O   UNL     1       7.517   5.370  15.103  0.00  0.00    +0.000 OA
ATOM     20  H   UNL     1       7.414   4.595  14.514  0.00  0.00    +0.000 HD
ENDBRANCH  17  19
ENDBRANCH  16  17
ENDBRANCH   4  16
TORSDOF 8
ENDMDL
MODEL 2
REMARK VINA RESULT:      -6.5      1.329      1.535
REMARK  Name = 
REMARK  8 active torsions:
REMARK  status: ('A' for Active; 'I' for Inactive)
REMARK    1  A    between atoms: C_2  and  O_3
REMARK    2  A    between atoms: C_2  and  C_4
REMARK    3  A    between atoms: C_4  and  C_5
REMARK    4  A    between atoms: C_7  and  O_8
REMARK    5  A    between atoms: C_9  and  C_10
REMARK    6  A    between atoms: C_10  and  C_11
REMARK    7  A    between atoms: C_11  and  O_13
REMARK    8  A    between atoms: C_15  and  O_16
REMARK                            x       y       z     vdW  Elec       q    Type
REMARK                         _______ _______ _______ _____ _____    ______ ____
ROOT
ATOM      1  C   UNL     1       3.295   4.555  19.411  0.00  0.00    +0.000 A 
ATOM      2  C   UNL     1       4.696   4.566  19.501  0.00  0.00    +0.000 A 
ATOM      3  C   UNL     1       5.474   4.319  18.369  0.00  0.00    +0.000 A 
ATOM      4  C   UNL     1       4.894   4.100  17.116  0.00  0.00    +0.000 A 
ATOM      5  C   UNL     1       3.492   4.130  17.019  0.00  0.00    +0.000 A 
ATOM      6  C   UNL     1       2.712   4.359  18.157  0.00  0.00    +0.000 A 
ENDROOT
BRANCH   3   7
ATOM      7  O   UNL     1       6.834   4.258  18.475  0.00  0.00    +0.000 OA
ATOM      8  H   UNL     1       7.190   5.164  18.483  0.00  0.00    +0.000 HD
ENDBRANCH   3   7
BRANCH   6   9
ATOM      9  O   UNL     1       1.348   4.414  18.059  0.00  0.00    +0.000 OA
ATOM     10  H   UNL     1       1.067   3.769  17.383  0.00  0.00    +0.000 HD
ENDBRANCH   6   9
BRANCH   1  11
ATOM     11  C   UNL     1       2.458   4.708  20.660  0.00  0.00    +0.000 C 
BRANCH  11  13
ATOM     12  O   UNL     1       2.582   2.741  22.053  0.00  0.00    +0.000 OA
ATOM     13  C   UNL     1       1.953   3.412  21.247  0.00  0.00    +0.000 C 
BRANCH  13  14
ATOM     14  O   UNL     1       0.748   3.022  20.763  0.00  0.00    +0.000 OA
ATOM     15  H   UNL     1       0.561   3.413  19.881  0.00  0.00    +0.000 HD
ENDBRANCH  13  14
ENDBRANCH  11  13
ENDBRANCH   1  11
BRANCH   4  16
ATOM     16  C   UNL     1       5.745   3.911  15.880  0.00  0.00    +0.000 C 
BRANCH  16  17
ATOM     17  C   UNL     1       6.331   5.192  15.332  0.00  0.00    +0.000 C 
ATOM     18  O   UNL     1       7.486   5.301  14.956  0.00  0.00    +0.000 OA
BRANCH  17  19
ATOM     19  O   UNL     1       5.450   6.213  15.268  0.00  0.00    +0.000 OA
ATOM     20  H   UNL     1       4.522   5.913  15.358  0.00  0.00    +0.000 HD
ENDBRANCH  17  19
ENDBRANCH  16  17
ENDBRANCH   4  16
TORSDOF 8
ENDMDL
MODEL 3
REMARK VINA RESULT:      -6.5      0.528      6.075
REMARK  Name = 
REMARK  8 active torsions:
REMARK  status: ('A' for Active; 'I' for Inactive)
REMARK    1  A    between atoms: C_2  and  O_3
REMARK    2  A    between atoms: C_2  and  C_4
REMARK    3  A    between atoms: C_4  and  C_5
REMARK    4  A    between atoms: C_7  and  O_8
REMARK    5  A    between atoms: C_9  and  C_10
REMARK    6  A    between atoms: C_10  and  C_11
REMARK    7  A    between atoms: C_11  and  O_13
REMARK    8  A    between atoms: C_15  and  O_16
REMARK                            x       y       z     vdW  Elec       q    Type
REMARK                         _______ _______ _______ _____ _____    ______ ____
ROOT
ATOM      1  C   UNL     1       4.890   5.130  17.808  0.00  0.00    +0.000 A 
ATOM      2  C   UNL     1       3.582   4.956  17.329  0.00  0.00    +0.000 A 
ATOM      3  C   UNL     1       2.741   4.005  17.910  0.00  0.00    +0.000 A 
ATOM      4  C   UNL     1       3.152   3.237  19.003  0.00  0.00    +0.000 A 
ATOM      5  C   UNL     1       4.447   3.441  19.509  0.00  0.00    +0.000 A 
ATOM      6  C   UNL     1       5.296   4.381  18.914  0.00  0.00    +0.000 A 
ENDROOT
BRANCH   3   7
ATOM      7  O   UNL     1       1.495   3.788  17.394  0.00  0.00    +0.000 OA
ATOM      8  H   UNL     1       0.974   4.605  17.476  0.00  0.00    +0.000 HD
ENDBRANCH   3   7
BRANCH   6   9
ATOM      9  O   UNL     1       6.548   4.599  19.422  0.00  0.00    +0.000 OA
ATOM     10  H   UNL     1       6.773   5.537  19.279  0.00  0.00    +0.000 HD
ENDBRANCH   6   9
BRANCH   1  11
ATOM     11  C   UNL     1       5.832   6.077  17.101  0.00  0.00    +0.000 C 
BRANCH  11  13
ATOM     12  O   UNL     1       6.542   5.539  14.859  0.00  0.00    +0.000 OA
ATOM     13  C   UNL     1       6.719   5.432  16.065  0.00  0.00    +0.000 C 
BRANCH  13  14
ATOM     14  O   UNL     1       7.713   4.672  16.587  0.00  0.00    +0.000 OA
ATOM     15  H   UNL     1       8.036   5.026  17.444  0.00  0.00    +0.000 HD
ENDBRANCH  13  14
ENDBRANCH  11  13
ENDBRANCH   1  11
BRANCH   4  16
ATOM     16  C   UNL     1       2.209   2.265  19.678  0.00  0.00    +0.000 C 
BRANCH  16  17
ATOM     17  C   UNL     1       1.406   2.868  20.808  0.00  0.00    +0.000 C 
ATOM     18  O   UNL     1       1.616   2.634  21.987  0.00  0.00    +0.000 OA
BRANCH  17  19
ATOM     19  O   UNL     1       0.442   3.720  20.399  0.00  0.00    +0.000 OA
ATOM     20  H   UNL     1       0.797   4.458  19.862  0.00  0.00    +0.000 HD
ENDBRANCH  17  19
ENDBRANCH  16  17
ENDBRANCH   4  16
TORSDOF 8
ENDMDL
MODEL 4
REMARK VINA RESULT:      -6.5      1.177      6.047
REMARK  Name = 
REMARK  8 active torsions:
REMARK  status: ('A' for Active; 'I' for Inactive)
REMARK    1  A    between atoms: C_2  and  O_3
REMARK    2  A    between atoms: C_2  and  C_4
REMARK    3  A    between atoms: C_4  and  C_5
REMARK    4  A    between atoms: C_7  and  O_8
REMARK    5  A    between atoms: C_9  and  C_10
REMARK    6  A    between atoms: C_10  and  C_11
REMARK    7  A    between atoms: C_11  and  O_13
REMARK    8  A    between atoms: C_15  and  O_16
REMARK                            x       y       z     vdW  Elec       q    Type
REMARK                         _______ _______ _______ _____ _____    ______ ____
ROOT
ATOM      1  C   UNL     1       5.147   4.319  17.333  0.00  0.00    +0.000 A 
ATOM      2  C   UNL     1       3.803   4.186  16.949  0.00  0.00    +0.000 A 
ATOM      3  C   UNL     1       2.784   4.340  17.891  0.00  0.00    +0.000 A 
ATOM      4  C   UNL     1       3.062   4.673  19.220  0.00  0.00    +0.000 A 
ATOM      5  C   UNL     1       4.405   4.846  19.595  0.00  0.00    +0.000 A 
ATOM      6  C   UNL     1       5.426   4.673  18.654  0.00  0.00    +0.000 A 
ENDROOT
BRANCH   3   7
ATOM      7  O   UNL     1       1.483   4.138  17.530  0.00  0.00    +0.000 OA
ATOM      8  H   UNL     1       1.448   3.428  16.866  0.00  0.00    +0.000 HD
ENDBRANCH   3   7
BRANCH   6   9
ATOM      9  O   UNL     1       6.733   4.867  19.012  0.00  0.00    +0.000 OA
ATOM     10  H   UNL     1       7.183   4.001  18.996  0.00  0.00    +0.000 HD
ENDBRANCH   6   9
BRANCH   1  11
ATOM     11  C   UNL     1       6.247   4.036  16.337  0.00  0.00    +0.000 C 
BRANCH  11  13
ATOM     12  O   UNL     1       6.569   5.414  14.383  0.00  0.00    +0.000 OA
ATOM     13  C   UNL     1       6.744   5.245  15.581  0.00  0.00    +0.000 C 
BRANCH  13  14
ATOM     14  O   UNL     1       7.452   6.116  16.341  0.00  0.00    +0.000 OA
ATOM     15  H   UNL     1       7.263   7.050  16.103  0.00  0.00    +0.000 HD
ENDBRANCH  13  14
ENDBRANCH  11  13
ENDBRANCH   1  11
BRANCH   4  16
ATOM     16  C   UNL     1       1.950   4.916  20.216  0.00  0.00    +0.000 C 
BRANCH  16  17
ATOM     17  C   UNL     1       1.499   3.676  20.953  0.00  0.00    +0.000 C 
ATOM     18  O   UNL     1       1.981   3.304  22.011  0.00  0.00    +0.000 OA
BRANCH  17  19
ATOM     19  O   UNL     1       0.485   3.020  20.349  0.00  0.00    +0.000 OA
ATOM     20  H   UNL     1       0.644   2.883  19.393  0.00  0.00    +0.000 HD
ENDBRANCH  17  19
ENDBRANCH  16  17
ENDBRANCH   4  16
TORSDOF 8
ENDMDL
MODEL 5
REMARK VINA RESULT:      -6.4      1.840      5.674
REMARK  Name = 
REMARK  8 active torsions:
REMARK  status: ('A' for Active; 'I' for Inactive)
REMARK    1  A    between atoms: C_2  and  O_3
REMARK    2  A    between atoms: C_2  and  C_4
REMARK    3  A    between atoms: C_4  and  C_5
REMARK    4  A    between atoms: C_7  and  O_8
REMARK    5  A    between atoms: C_9  and  C_10
REMARK    6  A    between atoms: C_10  and  C_11
REMARK    7  A    between atoms: C_11  and  O_13
REMARK    8  A    between atoms: C_15  and  O_16
REMARK                            x       y       z     vdW  Elec       q    Type
REMARK                         _______ _______ _______ _____ _____    ______ ____
ROOT
ATOM      1  C   UNL     1       5.914   4.912  18.244  0.00  0.00    +0.000 A 
ATOM      2  C   UNL     1       5.083   5.363  19.281  0.00  0.00    +0.000 A 
ATOM      3  C   UNL     1       3.704   5.151  19.219  0.00  0.00    +0.000 A 
ATOM      4  C   UNL     1       3.119   4.451  18.160  0.00  0.00    +0.000 A 
ATOM      5  C   UNL     1       3.956   3.964  17.142  0.00  0.00    +0.000 A 
ATOM      6  C   UNL     1       5.335   4.193  17.195  0.00  0.00    +0.000 A 
ENDROOT
BRANCH   3   7
ATOM      7  O   UNL     1       2.891   5.655  20.194  0.00  0.00    +0.000 OA
ATOM      8  H   UNL     1       3.443   6.045  20.893  0.00  0.00    +0.000 HD
ENDBRANCH   3   7
BRANCH   6   9
ATOM      9  O   UNL     1       6.155   3.697  16.218  0.00  0.00    +0.000 OA
ATOM     10  H   UNL     1       5.784   2.847  15.914  0.00  0.00    +0.000 HD
ENDBRANCH   6   9
BRANCH   1  11
ATOM     11  C   UNL     1       7.387   5.246  18.259  0.00  0.00    +0.000 C 
BRANCH  11  13
ATOM     12  O   UNL     1       7.398   7.229  16.885  0.00  0.00    +0.000 OA
ATOM     13  C   UNL     1       7.715   6.683  17.932  0.00  0.00    +0.000 C 
BRANCH  13  14
ATOM     14  O   UNL     1       8.441   7.312  18.888  0.00  0.00    +0.000 OA
ATOM     15  H   UNL     1       9.260   7.715  18.523  0.00  0.00    +0.000 HD
ENDBRANCH  13  14
ENDBRANCH  11  13
ENDBRANCH   1  11
BRANCH   4  16
ATOM     16  C   UNL     1       1.635   4.156  18.139  0.00  0.00    +0.000 C 
BRANCH  16  17
ATOM     17  C   UNL     1       1.213   3.050  19.080  0.00  0.00    +0.000 C 
ATOM     18  O   UNL     1       0.834   3.242  20.223  0.00  0.00    +0.000 OA
BRANCH  17  19
ATOM     19  O   UNL     1       1.263   1.818  18.531  0.00  0.00    +0.000 OA
ATOM     20  H   UNL     1       2.107   1.358  18.719  0.00  0.00    +0.000 HD
ENDBRANCH  17  19
ENDBRANCH  16  17
ENDBRANCH   4  16
TORSDOF 8
ENDMDL
MODEL 6
REMARK VINA RESULT:      -6.4      1.793      5.679
REMARK  Name = 
REMARK  8 active torsions:
REMARK  status: ('A' for Active; 'I' for Inactive)
REMARK    1  A    between atoms: C_2  and  O_3
REMARK    2  A    between atoms: C_2  and  C_4
REMARK    3  A    between atoms: C_4  and  C_5
REMARK    4  A    between atoms: C_7  and  O_8
REMARK    5  A    between atoms: C_9  and  C_10
REMARK    6  A    between atoms: C_10  and  C_11
REMARK    7  A    between atoms: C_11  and  O_13
REMARK    8  A    between atoms: C_15  and  O_16
REMARK                            x       y       z     vdW  Elec       q    Type
REMARK                         _______ _______ _______ _____ _____    ______ ____
ROOT
ATOM      1  C   UNL     1       5.796   4.871  18.291  0.00  0.00    +0.000 A 
ATOM      2  C   UNL     1       4.978   5.336  19.332  0.00  0.00    +0.000 A 
ATOM      3  C   UNL     1       3.596   5.149  19.276  0.00  0.00    +0.000 A 
ATOM      4  C   UNL     1       2.994   4.461  18.218  0.00  0.00    +0.000 A 
ATOM      5  C   UNL     1       3.818   3.960  17.197  0.00  0.00    +0.000 A 
ATOM      6  C   UNL     1       5.201   4.164  17.245  0.00  0.00    +0.000 A 
ENDROOT
BRANCH   3   7
ATOM      7  O   UNL     1       2.795   5.666  20.254  0.00  0.00    +0.000 OA
ATOM      8  H   UNL     1       2.698   5.006  20.963  0.00  0.00    +0.000 HD
ENDBRANCH   3   7
BRANCH   6   9
ATOM      9  O   UNL     1       6.008   3.654  16.264  0.00  0.00    +0.000 OA
ATOM     10  H   UNL     1       6.429   4.402  15.799  0.00  0.00    +0.000 HD
ENDBRANCH   6   9
BRANCH   1  11
ATOM     11  C   UNL     1       7.276   5.179  18.301  0.00  0.00    +0.000 C 
BRANCH  11  13
ATOM     12  O   UNL     1       8.012   7.476  18.261  0.00  0.00    +0.000 OA
ATOM     13  C   UNL     1       7.657   6.482  17.642  0.00  0.00    +0.000 C 
BRANCH  13  14
ATOM     14  O   UNL     1       7.523   6.477  16.293  0.00  0.00    +0.000 OA
ATOM     15  H   UNL     1       6.614   6.719  16.012  0.00  0.00    +0.000 HD
ENDBRANCH  13  14
ENDBRANCH  11  13
ENDBRANCH   1  11
BRANCH   4  16
ATOM     16  C   UNL     1       1.505   4.193  18.203  0.00  0.00    +0.000 C 
BRANCH  16  17
ATOM     17  C   UNL     1       1.071   3.067  19.114  0.00  0.00    +0.000 C 
ATOM     18  O   UNL     1       1.227   1.886  18.851  0.00  0.00    +0.000 OA
BRANCH  17  19
ATOM     19  O   UNL     1       0.514   3.484  20.271  0.00  0.00    +0.000 OA
ATOM     20  H   UNL     1       0.144   4.388  20.205  0.00  0.00    +0.000 HD
ENDBRANCH  17  19
ENDBRANCH  16  17
ENDBRANCH   4  16
TORSDOF 8
ENDMDL
MODEL 7
REMARK VINA RESULT:      -6.4      1.662      1.834
REMARK  Name = 
REMARK  8 active torsions:
REMARK  status: ('A' for Active; 'I' for Inactive)
REMARK    1  A    between atoms: C_2  and  O_3
REMARK    2  A    between atoms: C_2  and  C_4
REMARK    3  A    between atoms: C_4  and  C_5
REMARK    4  A    between atoms: C_7  and  O_8
REMARK    5  A    between atoms: C_9  and  C_10
REMARK    6  A    between atoms: C_10  and  C_11
REMARK    7  A    between atoms: C_11  and  O_13
REMARK    8  A    between atoms: C_15  and  O_16
REMARK                            x       y       z     vdW  Elec       q    Type
REMARK                         _______ _______ _______ _____ _____    ______ ____
ROOT
ATOM      1  C   UNL     1       2.522   4.041  18.616  0.00  0.00    +0.000 A 
ATOM      2  C   UNL     1       2.901   5.330  18.208  0.00  0.00    +0.000 A 
ATOM      3  C   UNL     1       3.976   5.503  17.335  0.00  0.00    +0.000 A 
ATOM      4  C   UNL     1       4.673   4.412  16.809  0.00  0.00    +0.000 A 
ATOM      5  C   UNL     1       4.268   3.120  17.185  0.00  0.00    +0.000 A 
ATOM      6  C   UNL     1       3.202   2.948  18.074  0.00  0.00    +0.000 A 
ENDROOT
BRANCH   3   7
ATOM      7  O   UNL     1       4.387   6.761  16.998  0.00  0.00    +0.000 OA
ATOM      8  H   UNL     1       5.121   6.692  16.363  0.00  0.00    +0.000 HD
ENDBRANCH   3   7
BRANCH   6   9
ATOM      9  O   UNL     1       2.790   1.690  18.421  0.00  0.00    +0.000 OA
ATOM     10  H   UNL     1       1.817   1.702  18.505  0.00  0.00    +0.000 HD
ENDBRANCH   6   9
BRANCH   1  11
ATOM     11  C   UNL     1       1.434   3.866  19.650  0.00  0.00    +0.000 C 
BRANCH  11  13
ATOM     12  O   UNL     1       1.796   2.985  21.866  0.00  0.00    +0.000 OA
ATOM     13  C   UNL     1       1.908   3.917  21.082  0.00  0.00    +0.000 C 
BRANCH  13  14
ATOM     14  O   UNL     1       2.429   5.114  21.447  0.00  0.00    +0.000 OA
ATOM     15  H   UNL     1       2.401   5.768  20.715  0.00  0.00    +0.000 HD
ENDBRANCH  13  14
ENDBRANCH  11  13
ENDBRANCH   1  11
BRANCH   4  16
ATOM     16  C   UNL     1       5.786   4.604  15.802  0.00  0.00    +0.000 C 
BRANCH  16  17
ATOM     17  C   UNL     1       7.112   4.995  16.414  0.00  0.00    +0.000 C 
ATOM     18  O   UNL     1       7.898   4.196  16.894  0.00  0.00    +0.000 OA
BRANCH  17  19
ATOM     19  O   UNL     1       7.369   6.320  16.358  0.00  0.00    +0.000 OA
ATOM     20  H   UNL     1       7.554   6.628  15.448  0.00  0.00    +0.000 HD
ENDBRANCH  17  19
ENDBRANCH  16  17
ENDBRANCH   4  16
TORSDOF 8
ENDMDL
MODEL 8
REMARK VINA RESULT:      -6.4      1.940      2.257
REMARK  Name = 
REMARK  8 active torsions:
REMARK  status: ('A' for Active; 'I' for Inactive)
REMARK    1  A    between atoms: C_2  and  O_3
REMARK    2  A    between atoms: C_2  and  C_4
REMARK    3  A    between atoms: C_4  and  C_5
REMARK    4  A    between atoms: C_7  and  O_8
REMARK    5  A    between atoms: C_9  and  C_10
REMARK    6  A    between atoms: C_10  and  C_11
REMARK    7  A    between atoms: C_11  and  O_13
REMARK    8  A    between atoms: C_15  and  O_16
REMARK                            x       y       z     vdW  Elec       q    Type
REMARK                         _______ _______ _______ _____ _____    ______ ____
ROOT
ATOM      1  C   UNL     1       2.850   5.199  19.523  0.00  0.00    +0.000 A 
ATOM      2  C   UNL     1       3.533   4.060  19.069  0.00  0.00    +0.000 A 
ATOM      3  C   UNL     1       4.349   4.134  17.940  0.00  0.00    +0.000 A 
ATOM      4  C   UNL     1       4.547   5.339  17.259  0.00  0.00    +0.000 A 
ATOM      5  C   UNL     1       3.896   6.488  17.738  0.00  0.00    +0.000 A 
ATOM      6  C   UNL     1       3.063   6.408  18.859  0.00  0.00    +0.000 A 
ENDROOT
BRANCH   3   7
ATOM      7  O   UNL     1       4.954   3.008  17.458  0.00  0.00    +0.000 OA
ATOM      8  H   UNL     1       4.299   2.487  16.961  0.00  0.00    +0.000 HD
ENDBRANCH   3   7
BRANCH   6   9
ATOM      9  O   UNL     1       2.448   7.532  19.343  0.00  0.00    +0.000 OA
ATOM     10  H   UNL     1       1.628   7.257  19.795  0.00  0.00    +0.000 HD
ENDBRANCH   6   9
BRANCH   1  11
ATOM     11  C   UNL     1       1.878   5.086  20.675  0.00  0.00    +0.000 C 
BRANCH  11  13
ATOM     12  O   UNL     1       2.269   3.132  22.035  0.00  0.00    +0.000 OA
ATOM     13  C   UNL     1       1.622   3.677  21.152  0.00  0.00    +0.000 C 
BRANCH  13  14
ATOM     14  O   UNL     1       0.634   3.039  20.479  0.00  0.00    +0.000 OA
ATOM     15  H   UNL     1       0.884   2.119  20.239  0.00  0.00    +0.000 HD
ENDBRANCH  13  14
ENDBRANCH  11  13
ENDBRANCH   1  11
BRANCH   4  16
ATOM     16  C   UNL     1       5.495   5.429  16.083  0.00  0.00    +0.000 C 
BRANCH  16  17
ATOM     17  C   UNL     1       6.942   5.633  16.471  0.00  0.00    +0.000 C 
ATOM     18  O   UNL     1       7.481   6.726  16.525  0.00  0.00    +0.000 OA
BRANCH  17  19
ATOM     19  O   UNL     1       7.590   4.490  16.783  0.00  0.00    +0.000 OA
ATOM     20  H   UNL     1       8.485   4.446  16.388  0.00  0.00    +0.000 HD
ENDBRANCH  17  19
ENDBRANCH  16  17
ENDBRANCH   4  16
TORSDOF 8
ENDMDL
MODEL 9
REMARK VINA RESULT:      -6.4      1.909      5.799
REMARK  Name = 
REMARK  8 active torsions:
REMARK  status: ('A' for Active; 'I' for Inactive)
REMARK    1  A    between atoms: C_2  and  O_3
REMARK    2  A    between atoms: C_2  and  C_4
REMARK    3  A    between atoms: C_4  and  C_5
REMARK    4  A    between atoms: C_7  and  O_8
REMARK    5  A    between atoms: C_9  and  C_10
REMARK    6  A    between atoms: C_10  and  C_11
REMARK    7  A    between atoms: C_11  and  O_13
REMARK    8  A    between atoms: C_15  and  O_16
REMARK                            x       y       z     vdW  Elec       q    Type
REMARK                         _______ _______ _______ _____ _____    ______ ____
ROOT
ATOM      1  C   UNL     1       4.547   5.291  17.229  0.00  0.00    +0.000 A 
ATOM      2  C   UNL     1       3.953   6.461  17.728  0.00  0.00    +0.000 A 
ATOM      3  C   UNL     1       3.018   6.388  18.762  0.00  0.00    +0.000 A 
ATOM      4  C   UNL     1       2.679   5.169  19.357  0.00  0.00    +0.000 A 
ATOM      5  C   UNL     1       3.304   4.003  18.885  0.00  0.00    +0.000 A 
ATOM      6  C   UNL     1       4.228   4.074  17.836  0.00  0.00    +0.000 A 
ENDROOT
BRANCH   3   7
ATOM      7  O   UNL     1       2.389   7.520  19.195  0.00  0.00    +0.000 OA
ATOM      8  H   UNL     1       2.480   7.580  20.162  0.00  0.00    +0.000 HD
ENDBRANCH   3   7
BRANCH   6   9
ATOM      9  O   UNL     1       4.856   2.942  17.393  0.00  0.00    +0.000 OA
ATOM     10  H   UNL     1       5.790   3.164  17.217  0.00  0.00    +0.000 HD
ENDBRANCH   6   9
BRANCH   1  11
ATOM     11  C   UNL     1       5.470   5.364  16.035  0.00  0.00    +0.000 C 
BRANCH  11  13
ATOM     12  O   UNL     1       7.590   4.432  16.712  0.00  0.00    +0.000 OA
ATOM     13  C   UNL     1       6.940   5.411  16.372  0.00  0.00    +0.000 C 
BRANCH  13  14
ATOM     14  O   UNL     1       7.478   6.654  16.313  0.00  0.00    +0.000 OA
ATOM     15  H   UNL     1       8.102   6.822  17.053  0.00  0.00    +0.000 HD
ENDBRANCH  13  14
ENDBRANCH  11  13
ENDBRANCH   1  11
BRANCH   4  16
ATOM     16  C   UNL     1       1.724   5.107  20.528  0.00  0.00    +0.000 C 
BRANCH  16  17
ATOM     17  C   UNL     1       1.546   3.722  21.107  0.00  0.00    +0.000 C 
ATOM     18  O   UNL     1       2.211   3.284  22.032  0.00  0.00    +0.000 OA
BRANCH  17  19
ATOM     19  O   UNL     1       0.557   3.010  20.526  0.00  0.00    +0.000 OA
ATOM     20  H   UNL     1       0.592   3.048  19.548  0.00  0.00    +0.000 HD
ENDBRANCH  17  19
ENDBRANCH  16  17
ENDBRANCH   4  16
TORSDOF 8
ENDMDL
