MODEL 1
REMARK VINA RESULT:      -7.8      0.000      0.000
REMARK  Name = 
REMARK  13 active torsions:
REMARK  status: ('A' for Active; 'I' for Inactive)
REMARK    1  A    between atoms: C_1  and  C_2
REMARK    2  A    between atoms: C_2  and  N_3
REMARK    3  A    between atoms: N_3  and  C_4
REMARK    4  A    between atoms: N_3  and  C_6
REMARK    5  A    between atoms: C_4  and  C_5
REMARK    6  A    between atoms: C_6  and  C_7
REMARK    7  A    between atoms: C_7  and  O_8
REMARK    8  A    between atoms: O_8  and  C_9
REMARK    9  A    between atoms: C_12  and  C_13
REMARK   10  A    between atoms: C_13  and  C_22
REMARK   11  A    between atoms: C_14  and  C_15
REMARK   12  A    between atoms: C_15  and  C_16
REMARK   13  A    between atoms: C_25  and  O_26
REMARK                            x       y       z     vdW  Elec       q    Type
REMARK                         _______ _______ _______ _____ _____    ______ ____
ROOT
ATOM      1  C   UNL     1       4.985   4.521  16.674  0.00  0.00    +0.000 C 
ATOM      2  C   UNL     1       5.063   4.111  15.388  0.00  0.00    +0.000 C 
ENDROOT
BRANCH   1   6
ATOM      3  C   UNL     1       7.828   7.314  18.250  0.00  0.00    +0.000 A 
ATOM      4  C   UNL     1       6.885   7.696  17.290  0.00  0.00    +0.000 A 
ATOM      5  C   UNL     1       5.965   6.781  16.787  0.00  0.00    +0.000 A 
ATOM      6  C   UNL     1       5.974   5.459  17.231  0.00  0.00    +0.000 A 
ATOM      7  C   UNL     1       6.916   5.066  18.191  0.00  0.00    +0.000 A 
ATOM      8  C   UNL     1       7.841   5.989  18.696  0.00  0.00    +0.000 A 
BRANCH   3   9
ATOM      9  O   UNL     1       8.765   8.157  18.804  0.00  0.00    +0.000 OA
BRANCH   9  10
ATOM     10  C   UNL     1       8.618   9.524  18.393  0.00  0.00    +0.000 C 
BRANCH  10  11
ATOM     11  C   UNL     1       9.333  10.492  19.340  0.00  0.00    +0.000 C 
BRANCH  11  12
ATOM     12  N   UNL     1       9.252  11.908  18.906  0.00  0.00    +0.000 NA
BRANCH  12  14
ATOM     13  C   UNL     1       9.652  14.236  19.808  0.00  0.00    +0.000 C 
ATOM     14  C   UNL     1       9.275  12.783  20.089  0.00  0.00    +0.000 C 
ENDBRANCH  12  14
BRANCH  12  15
ATOM     15  C   UNL     1      10.225  12.278  17.864  0.00  0.00    +0.000 C 
ATOM     16  C   UNL     1      11.636  11.725  18.038  0.00  0.00    +0.000 C 
ENDBRANCH  12  15
ENDBRANCH  11  12
ENDBRANCH  10  11
ENDBRANCH   9  10
ENDBRANCH   3   9
ENDBRANCH   1   6
BRANCH   1  17
ATOM     17  C   UNL     1       3.808   4.058  17.438  0.00  0.00    +0.000 A 
ATOM     18  C   UNL     1       2.813   4.967  17.820  0.00  0.00    +0.000 A 
ATOM     19  C   UNL     1       1.710   4.533  18.558  0.00  0.00    +0.000 A 
ATOM     20  C   UNL     1       1.605   3.190  18.911  0.00  0.00    +0.000 A 
ATOM     21  C   UNL     1       2.584   2.276  18.542  0.00  0.00    +0.000 A 
ATOM     22  C   UNL     1       3.688   2.710  17.805  0.00  0.00    +0.000 A 
BRANCH  20  23
ATOM     23  O   UNL     1       0.543   2.725  19.629  0.00  0.00    +0.000 OA
ATOM     24  H   UNL     1       0.527   1.756  19.561  0.00  0.00    +0.000 HD
ENDBRANCH  20  23
ENDBRANCH   1  17
BRANCH   2  25
ATOM     25  C   UNL     1       6.086   4.498  14.354  0.00  0.00    +0.000 C 
BRANCH  25  26
ATOM     26  C   UNL     1       5.959   3.682  13.090  0.00  0.00    +0.000 A 
ATOM     27  C   UNL     1       4.711   3.489  12.481  0.00  0.00    +0.000 A 
ATOM     28  C   UNL     1       4.601   2.716  11.324  0.00  0.00    +0.000 A 
ATOM     29  C   UNL     1       5.735   2.126  10.767  0.00  0.00    +0.000 A 
ATOM     30  C   UNL     1       6.980   2.311  11.365  0.00  0.00    +0.000 A 
ATOM     31  C   UNL     1       7.093   3.083  12.521  0.00  0.00    +0.000 A 
ENDBRANCH  25  26
ENDBRANCH   2  25
TORSDOF 11
ENDMDL
MODEL 2
REMARK VINA RESULT:      -7.8      0.561      1.373
REMARK  Name = 
REMARK  13 active torsions:
REMARK  status: ('A' for Active; 'I' for Inactive)
REMARK    1  A    between atoms: C_1  and  C_2
REMARK    2  A    between atoms: C_2  and  N_3
REMARK    3  A    between atoms: N_3  and  C_4
REMARK    4  A    between atoms: N_3  and  C_6
REMARK    5  A    between atoms: C_4  and  C_5
REMARK    6  A    between atoms: C_6  and  C_7
REMARK    7  A    between atoms: C_7  and  O_8
REMARK    8  A    between atoms: O_8  and  C_9
REMARK    9  A    between atoms: C_12  and  C_13
REMARK   10  A    between atoms: C_13  and  C_22
REMARK   11  A    between atoms: C_14  and  C_15
REMARK   12  A    between atoms: C_15  and  C_16
REMARK   13  A    between atoms: C_25  and  O_26
REMARK                            x       y       z     vdW  Elec       q    Type
REMARK                         _______ _______ _______ _____ _____    ______ ____
ROOT
ATOM      1  C   UNL     1       4.958   4.628  16.699  0.00  0.00    +0.000 C 
ATOM      2  C   UNL     1       5.031   4.231  15.407  0.00  0.00    +0.000 C 
ENDROOT
BRANCH   1   6
ATOM      3  C   UNL     1       7.907   7.233  18.397  0.00  0.00    +0.000 A 
ATOM      4  C   UNL     1       7.785   5.903  18.810  0.00  0.00    +0.000 A 
ATOM      5  C   UNL     1       6.825   5.065  18.250  0.00  0.00    +0.000 A 
ATOM      6  C   UNL     1       5.960   5.545  17.266  0.00  0.00    +0.000 A 
ATOM      7  C   UNL     1       6.074   6.878  16.847  0.00  0.00    +0.000 A 
ATOM      8  C   UNL     1       7.041   7.718  17.412  0.00  0.00    +0.000 A 
BRANCH   3   9
ATOM      9  O   UNL     1       8.832   8.124  18.891  0.00  0.00    +0.000 OA
BRANCH   9  10
ATOM     10  C   UNL     1       8.646   9.465  18.415  0.00  0.00    +0.000 C 
BRANCH  10  11
ATOM     11  C   UNL     1       9.329  10.498  19.316  0.00  0.00    +0.000 C 
BRANCH  11  12
ATOM     12  N   UNL     1       9.699  11.745  18.605  0.00  0.00    +0.000 NA
BRANCH  12  14
ATOM     13  C   UNL     1       8.314  13.774  18.006  0.00  0.00    +0.000 C 
ATOM     14  C   UNL     1       8.860  12.852  19.093  0.00  0.00    +0.000 C 
ENDBRANCH  12  14
BRANCH  12  15
ATOM     15  C   UNL     1      11.143  12.039  18.607  0.00  0.00    +0.000 C 
ATOM     16  C   UNL     1      11.716  12.593  17.307  0.00  0.00    +0.000 C 
ENDBRANCH  12  15
ENDBRANCH  11  12
ENDBRANCH  10  11
ENDBRANCH   9  10
ENDBRANCH   3   9
ENDBRANCH   1   6
BRANCH   1  17
ATOM     17  C   UNL     1       3.774   4.174  17.457  0.00  0.00    +0.000 A 
ATOM     18  C   UNL     1       2.920   5.109  18.056  0.00  0.00    +0.000 A 
ATOM     19  C   UNL     1       1.811   4.680  18.789  0.00  0.00    +0.000 A 
ATOM     20  C   UNL     1       1.559   3.317  18.918  0.00  0.00    +0.000 A 
ATOM     21  C   UNL     1       2.398   2.377  18.332  0.00  0.00    +0.000 A 
ATOM     22  C   UNL     1       3.507   2.805  17.600  0.00  0.00    +0.000 A 
BRANCH  20  23
ATOM     23  O   UNL     1       0.486   2.856  19.623  0.00  0.00    +0.000 OA
ATOM     24  H   UNL     1       0.618   3.075  20.560  0.00  0.00    +0.000 HD
ENDBRANCH  20  23
ENDBRANCH   1  17
BRANCH   2  25
ATOM     25  C   UNL     1       6.060   4.614  14.378  0.00  0.00    +0.000 C 
BRANCH  25  26
ATOM     26  C   UNL     1       5.981   3.752  13.142  0.00  0.00    +0.000 A 
ATOM     27  C   UNL     1       7.145   3.270  12.525  0.00  0.00    +0.000 A 
ATOM     28  C   UNL     1       7.062   2.490  11.371  0.00  0.00    +0.000 A 
ATOM     29  C   UNL     1       5.818   2.188  10.819  0.00  0.00    +0.000 A 
ATOM     30  C   UNL     1       4.655   2.663  11.422  0.00  0.00    +0.000 A 
ATOM     31  C   UNL     1       4.735   3.442  12.577  0.00  0.00    +0.000 A 
ENDBRANCH  25  26
ENDBRANCH   2  25
TORSDOF 11
ENDMDL
MODEL 3
REMARK VINA RESULT:      -7.7      4.476      7.570
REMARK  Name = 
REMARK  13 active torsions:
REMARK  status: ('A' for Active; 'I' for Inactive)
REMARK    1  A    between atoms: C_1  and  C_2
REMARK    2  A    between atoms: C_2  and  N_3
REMARK    3  A    between atoms: N_3  and  C_4
REMARK    4  A    between atoms: N_3  and  C_6
REMARK    5  A    between atoms: C_4  and  C_5
REMARK    6  A    between atoms: C_6  and  C_7
REMARK    7  A    between atoms: C_7  and  O_8
REMARK    8  A    between atoms: O_8  and  C_9
REMARK    9  A    between atoms: C_12  and  C_13
REMARK   10  A    between atoms: C_13  and  C_22
REMARK   11  A    between atoms: C_14  and  C_15
REMARK   12  A    between atoms: C_15  and  C_16
REMARK   13  A    between atoms: C_25  and  O_26
REMARK                            x       y       z     vdW  Elec       q    Type
REMARK                         _______ _______ _______ _____ _____    ______ ____
ROOT
ATOM      1  C   UNL     1       2.527   6.563  19.786  0.00  0.00    +0.000 C 
ATOM      2  C   UNL     1       1.963   5.941  20.847  0.00  0.00    +0.000 C 
ENDROOT
BRANCH   1   6
ATOM      3  C   UNL     1       5.494   4.611  17.386  0.00  0.00    +0.000 A 
ATOM      4  C   UNL     1       4.168   4.724  16.957  0.00  0.00    +0.000 A 
ATOM      5  C   UNL     1       3.213   5.361  17.744  0.00  0.00    +0.000 A 
ATOM      6  C   UNL     1       3.566   5.896  18.983  0.00  0.00    +0.000 A 
ATOM      7  C   UNL     1       4.893   5.787  19.422  0.00  0.00    +0.000 A 
ATOM      8  C   UNL     1       5.851   5.145  18.628  0.00  0.00    +0.000 A 
BRANCH   3   9
ATOM      9  O   UNL     1       6.500   4.005  16.668  0.00  0.00    +0.000 OA
BRANCH   9  10
ATOM     10  C   UNL     1       6.771   4.646  15.412  0.00  0.00    +0.000 C 
BRANCH  10  11
ATOM     11  C   UNL     1       6.225   3.846  14.226  0.00  0.00    +0.000 C 
BRANCH  11  12
ATOM     12  N   UNL     1       7.101   3.896  13.030  0.00  0.00    +0.000 NA
BRANCH  12  14
ATOM     13  C   UNL     1       4.847   3.429  11.985  0.00  0.00    +0.000 C 
ATOM     14  C   UNL     1       6.368   3.372  11.867  0.00  0.00    +0.000 C 
ENDBRANCH  12  14
BRANCH  12  15
ATOM     15  C   UNL     1       7.738   5.204  12.801  0.00  0.00    +0.000 C 
ATOM     16  C   UNL     1       7.669   5.742  11.375  0.00  0.00    +0.000 C 
ENDBRANCH  12  15
ENDBRANCH  11  12
ENDBRANCH  10  11
ENDBRANCH   9  10
ENDBRANCH   3   9
ENDBRANCH   1   6
BRANCH   1  17
ATOM     17  C   UNL     1       1.971   7.884  19.429  0.00  0.00    +0.000 A 
ATOM     18  C   UNL     1       1.181   8.587  20.348  0.00  0.00    +0.000 A 
ATOM     19  C   UNL     1       0.641   9.829  20.005  0.00  0.00    +0.000 A 
ATOM     20  C   UNL     1       0.892  10.362  18.743  0.00  0.00    +0.000 A 
ATOM     21  C   UNL     1       1.671   9.676  17.820  0.00  0.00    +0.000 A 
ATOM     22  C   UNL     1       2.212   8.435  18.163  0.00  0.00    +0.000 A 
BRANCH  20  23
ATOM     23  O   UNL     1       0.384  11.572  18.370  0.00  0.00    +0.000 OA
ATOM     24  H   UNL     1       0.824  12.263  18.891  0.00  0.00    +0.000 HD
ENDBRANCH  20  23
ENDBRANCH   1  17
BRANCH   2  25
ATOM     25  C   UNL     1       2.256   4.562  21.374  0.00  0.00    +0.000 C 
BRANCH  25  26
ATOM     26  C   UNL     1       2.087   3.498  20.317  0.00  0.00    +0.000 A 
ATOM     27  C   UNL     1       3.155   2.664  19.958  0.00  0.00    +0.000 A 
ATOM     28  C   UNL     1       2.994   1.697  18.965  0.00  0.00    +0.000 A 
ATOM     29  C   UNL     1       1.767   1.556  18.319  0.00  0.00    +0.000 A 
ATOM     30  C   UNL     1       0.698   2.380  18.667  0.00  0.00    +0.000 A 
ATOM     31  C   UNL     1       0.857   3.347  19.660  0.00  0.00    +0.000 A 
ENDBRANCH  25  26
ENDBRANCH   2  25
TORSDOF 11
ENDMDL
MODEL 4
REMARK VINA RESULT:      -7.7      0.678      1.555
REMARK  Name = 
REMARK  13 active torsions:
REMARK  status: ('A' for Active; 'I' for Inactive)
REMARK    1  A    between atoms: C_1  and  C_2
REMARK    2  A    between atoms: C_2  and  N_3
REMARK    3  A    between atoms: N_3  and  C_4
REMARK    4  A    between atoms: N_3  and  C_6
REMARK    5  A    between atoms: C_4  and  C_5
REMARK    6  A    between atoms: C_6  and  C_7
REMARK    7  A    between atoms: C_7  and  O_8
REMARK    8  A    between atoms: O_8  and  C_9
REMARK    9  A    between atoms: C_12  and  C_13
REMARK   10  A    between atoms: C_13  and  C_22
REMARK   11  A    between atoms: C_14  and  C_15
REMARK   12  A    between atoms: C_15  and  C_16
REMARK   13  A    between atoms: C_25  and  O_26
REMARK                            x       y       z     vdW  Elec       q    Type
REMARK                         _______ _______ _______ _____ _____    ______ ____
ROOT
ATOM      1  C   UNL     1       5.119   4.605  16.872  0.00  0.00    +0.000 C 
ATOM      2  C   UNL     1       5.253   4.072  15.636  0.00  0.00    +0.000 C 
ENDROOT
BRANCH   1   6
ATOM      3  C   UNL     1       7.924   7.483  18.361  0.00  0.00    +0.000 A 
ATOM      4  C   UNL     1       7.930   6.159  18.810  0.00  0.00    +0.000 A 
ATOM      5  C   UNL     1       7.016   5.232  18.318  0.00  0.00    +0.000 A 
ATOM      6  C   UNL     1       6.070   5.615  17.368  0.00  0.00    +0.000 A 
ATOM      7  C   UNL     1       6.054   6.940  16.913  0.00  0.00    +0.000 A 
ATOM      8  C   UNL     1       6.976   7.871  17.410  0.00  0.00    +0.000 A 
BRANCH   3   9
ATOM      9  O   UNL     1       8.797   8.458  18.789  0.00  0.00    +0.000 OA
BRANCH   9  10
ATOM     10  C   UNL     1       8.574   9.735  18.172  0.00  0.00    +0.000 C 
BRANCH  10  11
ATOM     11  C   UNL     1       9.680  10.739  18.508  0.00  0.00    +0.000 C 
BRANCH  11  12
ATOM     12  N   UNL     1       9.163  12.067  18.918  0.00  0.00    +0.000 NA
BRANCH  12  14
ATOM     13  C   UNL     1      11.373  11.983  20.144  0.00  0.00    +0.000 C 
ATOM     14  C   UNL     1       9.973  12.582  20.034  0.00  0.00    +0.000 C 
ENDBRANCH  12  14
BRANCH  12  15
ATOM     15  C   UNL     1       8.993  13.021  17.808  0.00  0.00    +0.000 C 
ATOM     16  C   UNL     1       9.337  14.474  18.116  0.00  0.00    +0.000 C 
ENDBRANCH  12  15
ENDBRANCH  11  12
ENDBRANCH  10  11
ENDBRANCH   9  10
ENDBRANCH   3   9
ENDBRANCH   1   6
BRANCH   1  17
ATOM     17  C   UNL     1       3.923   4.195  17.636  0.00  0.00    +0.000 A 
ATOM     18  C   UNL     1       3.528   2.852  17.660  0.00  0.00    +0.000 A 
ATOM     19  C   UNL     1       2.387   2.466  18.368  0.00  0.00    +0.000 A 
ATOM     20  C   UNL     1       1.645   3.427  19.050  0.00  0.00    +0.000 A 
ATOM     21  C   UNL     1       2.022   4.764  19.034  0.00  0.00    +0.000 A 
ATOM     22  C   UNL     1       3.163   5.149  18.327  0.00  0.00    +0.000 A 
BRANCH  20  23
ATOM     23  O   UNL     1       0.526   3.092  19.754  0.00  0.00    +0.000 OA
ATOM     24  H   UNL     1       0.097   3.910  20.056  0.00  0.00    +0.000 HD
ENDBRANCH  20  23
ENDBRANCH   1  17
BRANCH   2  25
ATOM     25  C   UNL     1       6.306   4.378  14.606  0.00  0.00    +0.000 C 
BRANCH  25  26
ATOM     26  C   UNL     1       6.013   3.724  13.277  0.00  0.00    +0.000 A 
ATOM     27  C   UNL     1       4.717   3.732  12.742  0.00  0.00    +0.000 A 
ATOM     28  C   UNL     1       4.452   3.108  11.522  0.00  0.00    +0.000 A 
ATOM     29  C   UNL     1       5.477   2.466  10.828  0.00  0.00    +0.000 A 
ATOM     30  C   UNL     1       6.768   2.451  11.351  0.00  0.00    +0.000 A 
ATOM     31  C   UNL     1       7.036   3.075  12.570  0.00  0.00    +0.000 A 
ENDBRANCH  25  26
ENDBRANCH   2  25
TORSDOF 11
ENDMDL
MODEL 5
REMARK VINA RESULT:      -7.7      4.509      7.604
REMARK  Name = 
REMARK  13 active torsions:
REMARK  status: ('A' for Active; 'I' for Inactive)
REMARK    1  A    between atoms: C_1  and  C_2
REMARK    2  A    between atoms: C_2  and  N_3
REMARK    3  A    between atoms: N_3  and  C_4
REMARK    4  A    between atoms: N_3  and  C_6
REMARK    5  A    between atoms: C_4  and  C_5
REMARK    6  A    between atoms: C_6  and  C_7
REMARK    7  A    between atoms: C_7  and  O_8
REMARK    8  A    between atoms: O_8  and  C_9
REMARK    9  A    between atoms: C_12  and  C_13
REMARK   10  A    between atoms: C_13  and  C_22
REMARK   11  A    between atoms: C_14  and  C_15
REMARK   12  A    between atoms: C_15  and  C_16
REMARK   13  A    between atoms: C_25  and  O_26
REMARK                            x       y       z     vdW  Elec       q    Type
REMARK                         _______ _______ _______ _____ _____    ______ ____
ROOT
ATOM      1  C   UNL     1       2.479   6.629  19.813  0.00  0.00    +0.000 C 
ATOM      2  C   UNL     1       1.921   6.014  20.882  0.00  0.00    +0.000 C 
ENDROOT
BRANCH   1   6
ATOM      3  C   UNL     1       5.387   4.641  17.373  0.00  0.00    +0.000 A 
ATOM      4  C   UNL     1       4.055   4.767  16.964  0.00  0.00    +0.000 A 
ATOM      5  C   UNL     1       3.119   5.416  17.764  0.00  0.00    +0.000 A 
ATOM      6  C   UNL     1       3.498   5.950  18.996  0.00  0.00    +0.000 A 
ATOM      7  C   UNL     1       4.830   5.827  19.415  0.00  0.00    +0.000 A 
ATOM      8  C   UNL     1       5.769   5.173  18.608  0.00  0.00    +0.000 A 
BRANCH   3   9
ATOM      9  O   UNL     1       6.375   4.023  16.640  0.00  0.00    +0.000 OA
BRANCH   9  10
ATOM     10  C   UNL     1       5.979   3.711  15.296  0.00  0.00    +0.000 C 
BRANCH  10  11
ATOM     11  C   UNL     1       7.013   4.176  14.266  0.00  0.00    +0.000 C 
BRANCH  11  12
ATOM     12  N   UNL     1       6.642   3.842  12.869  0.00  0.00    +0.000 NA
BRANCH  12  14
ATOM     13  C   UNL     1       4.678   3.029  11.502  0.00  0.00    +0.000 C 
ATOM     14  C   UNL     1       5.180   3.715  12.770  0.00  0.00    +0.000 C 
ENDBRANCH  12  14
BRANCH  12  15
ATOM     15  C   UNL     1       7.239   4.730  11.856  0.00  0.00    +0.000 C 
ATOM     16  C   UNL     1       8.199   5.794  12.380  0.00  0.00    +0.000 C 
ENDBRANCH  12  15
ENDBRANCH  11  12
ENDBRANCH  10  11
ENDBRANCH   9  10
ENDBRANCH   3   9
ENDBRANCH   1   6
BRANCH   1  17
ATOM     17  C   UNL     1       1.935   7.958  19.466  0.00  0.00    +0.000 A 
ATOM     18  C   UNL     1       1.159   8.666  20.392  0.00  0.00    +0.000 A 
ATOM     19  C   UNL     1       0.629   9.915  20.056  0.00  0.00    +0.000 A 
ATOM     20  C   UNL     1       0.879  10.450  18.796  0.00  0.00    +0.000 A 
ATOM     21  C   UNL     1       1.645   9.760  17.866  0.00  0.00    +0.000 A 
ATOM     22  C   UNL     1       2.174   8.512  18.200  0.00  0.00    +0.000 A 
BRANCH  20  23
ATOM     23  O   UNL     1       0.383  11.667  18.430  0.00  0.00    +0.000 OA
ATOM     24  H   UNL     1      -0.356  11.887  19.021  0.00  0.00    +0.000 HD
ENDBRANCH  20  23
ENDBRANCH   1  17
BRANCH   2  25
ATOM     25  C   UNL     1       2.203   4.631  21.404  0.00  0.00    +0.000 C 
BRANCH  25  26
ATOM     26  C   UNL     1       2.041   3.573  20.339  0.00  0.00    +0.000 A 
ATOM     27  C   UNL     1       0.817   3.400  19.678  0.00  0.00    +0.000 A 
ATOM     28  C   UNL     1       0.672   2.406  18.709  0.00  0.00    +0.000 A 
ATOM     29  C   UNL     1       1.745   1.574  18.395  0.00  0.00    +0.000 A 
ATOM     30  C   UNL     1       2.966   1.736  19.046  0.00  0.00    +0.000 A 
ATOM     31  C   UNL     1       3.114   2.729  20.015  0.00  0.00    +0.000 A 
ENDBRANCH  25  26
ENDBRANCH   2  25
TORSDOF 11
ENDMDL
MODEL 6
REMARK VINA RESULT:      -7.7      6.405     10.679
REMARK  Name = 
REMARK  13 active torsions:
REMARK  status: ('A' for Active; 'I' for Inactive)
REMARK    1  A    between atoms: C_1  and  C_2
REMARK    2  A    between atoms: C_2  and  N_3
REMARK    3  A    between atoms: N_3  and  C_4
REMARK    4  A    between atoms: N_3  and  C_6
REMARK    5  A    between atoms: C_4  and  C_5
REMARK    6  A    between atoms: C_6  and  C_7
REMARK    7  A    between atoms: C_7  and  O_8
REMARK    8  A    between atoms: O_8  and  C_9
REMARK    9  A    between atoms: C_12  and  C_13
REMARK   10  A    between atoms: C_13  and  C_22
REMARK   11  A    between atoms: C_14  and  C_15
REMARK   12  A    between atoms: C_15  and  C_16
REMARK   13  A    between atoms: C_25  and  O_26
REMARK                            x       y       z     vdW  Elec       q    Type
REMARK                         _______ _______ _______ _____ _____    ______ ____
ROOT
ATOM      1  C   UNL     1      -0.045  11.026  18.675  0.00  0.00    +0.000 C 
ATOM      2  C   UNL     1       0.470  12.260  18.877  0.00  0.00    +0.000 C 
ENDROOT
BRANCH   1   6
ATOM      3  C   UNL     1       2.357   7.522  19.236  0.00  0.00    +0.000 A 
ATOM      4  C   UNL     1       2.287   8.167  17.998  0.00  0.00    +0.000 A 
ATOM      5  C   UNL     1       1.506   9.306  17.827  0.00  0.00    +0.000 A 
ATOM      6  C   UNL     1       0.770   9.820  18.895  0.00  0.00    +0.000 A 
ATOM      7  C   UNL     1       0.832   9.179  20.140  0.00  0.00    +0.000 A 
ATOM      8  C   UNL     1       1.620   8.033  20.309  0.00  0.00    +0.000 A 
BRANCH   3   9
ATOM      9  O   UNL     1       3.111   6.399  19.492  0.00  0.00    +0.000 OA
BRANCH   9  10
ATOM     10  C   UNL     1       2.976   5.380  18.490  0.00  0.00    +0.000 C 
BRANCH  10  11
ATOM     11  C   UNL     1       1.633   4.648  18.588  0.00  0.00    +0.000 C 
BRANCH  11  12
ATOM     12  N   UNL     1       1.738   3.191  18.333  0.00  0.00    +0.000 NA
BRANCH  12  14
ATOM     13  C   UNL     1       3.633   1.519  18.259  0.00  0.00    +0.000 C 
ATOM     14  C   UNL     1       3.087   2.880  17.834  0.00  0.00    +0.000 C 
ENDBRANCH  12  14
BRANCH  12  15
ATOM     15  C   UNL     1       1.304   2.347  19.459  0.00  0.00    +0.000 C 
ATOM     16  C   UNL     1       1.232   3.031  20.820  0.00  0.00    +0.000 C 
ENDBRANCH  12  15
ENDBRANCH  11  12
ENDBRANCH  10  11
ENDBRANCH   9  10
ENDBRANCH   3   9
ENDBRANCH   1   6
BRANCH   1  17
ATOM     17  C   UNL     1      -1.480  10.965  18.327  0.00  0.00    +0.000 A 
ATOM     18  C   UNL     1      -1.933  10.053  17.364  0.00  0.00    +0.000 A 
ATOM     19  C   UNL     1      -3.286  10.007  17.022  0.00  0.00    +0.000 A 
ATOM     20  C   UNL     1      -4.182  10.873  17.644  0.00  0.00    +0.000 A 
ATOM     21  C   UNL     1      -3.748  11.784  18.598  0.00  0.00    +0.000 A 
ATOM     22  C   UNL     1      -2.395  11.831  18.941  0.00  0.00    +0.000 A 
BRANCH  20  23
ATOM     23  O   UNL     1      -5.511  10.859  17.340  0.00  0.00    +0.000 OA
ATOM     24  H   UNL     1      -5.700  10.058  16.824  0.00  0.00    +0.000 HD
ENDBRANCH  20  23
ENDBRANCH   1  17
BRANCH   2  25
ATOM     25  C   UNL     1       1.859  12.620  19.332  0.00  0.00    +0.000 C 
BRANCH  25  26
ATOM     26  C   UNL     1       2.312  13.954  18.787  0.00  0.00    +0.000 A 
ATOM     27  C   UNL     1       3.571  14.096  18.188  0.00  0.00    +0.000 A 
ATOM     28  C   UNL     1       3.989  15.337  17.706  0.00  0.00    +0.000 A 
ATOM     29  C   UNL     1       3.155  16.448  17.822  0.00  0.00    +0.000 A 
ATOM     30  C   UNL     1       1.901  16.319  18.417  0.00  0.00    +0.000 A 
ATOM     31  C   UNL     1       1.481  15.079  18.899  0.00  0.00    +0.000 A 
ENDBRANCH  25  26
ENDBRANCH   2  25
TORSDOF 11
ENDMDL
MODEL 7
REMARK VINA RESULT:      -7.7      0.868      1.746
REMARK  Name = 
REMARK  13 active torsions:
REMARK  status: ('A' for Active; 'I' for Inactive)
REMARK    1  A    between atoms: C_1  and  C_2
REMARK    2  A    between atoms: C_2  and  N_3
REMARK    3  A    between atoms: N_3  and  C_4
REMARK    4  A    between atoms: N_3  and  C_6
REMARK    5  A    between atoms: C_4  and  C_5
REMARK    6  A    between atoms: C_6  and  C_7
REMARK    7  A    between atoms: C_7  and  O_8
REMARK    8  A    between atoms: O_8  and  C_9
REMARK    9  A    between atoms: C_12  and  C_13
REMARK   10  A    between atoms: C_13  and  C_22
REMARK   11  A    between atoms: C_14  and  C_15
REMARK   12  A    between atoms: C_15  and  C_16
REMARK   13  A    between atoms: C_25  and  O_26
REMARK                            x       y       z     vdW  Elec       q    Type
REMARK                         _______ _______ _______ _____ _____    ______ ____
ROOT
ATOM      1  C   UNL     1       5.053   4.861  16.868  0.00  0.00    +0.000 C 
ATOM      2  C   UNL     1       5.137   4.373  15.609  0.00  0.00    +0.000 C 
ENDROOT
BRANCH   1   6
ATOM      3  C   UNL     1       7.980   7.597  18.389  0.00  0.00    +0.000 A 
ATOM      4  C   UNL     1       7.939   6.264  18.810  0.00  0.00    +0.000 A 
ATOM      5  C   UNL     1       6.986   5.383  18.308  0.00  0.00    +0.000 A 
ATOM      6  C   UNL     1       6.046   5.822  17.375  0.00  0.00    +0.000 A 
ATOM      7  C   UNL     1       6.077   7.157  16.948  0.00  0.00    +0.000 A 
ATOM      8  C   UNL     1       7.038   8.041  17.455  0.00  0.00    +0.000 A 
BRANCH   3   9
ATOM      9  O   UNL     1       8.893   8.529  18.828  0.00  0.00    +0.000 OA
BRANCH   9  10
ATOM     10  C   UNL     1       8.598   9.865  18.396  0.00  0.00    +0.000 C 
BRANCH  10  11
ATOM     11  C   UNL     1       9.795  10.806  18.572  0.00  0.00    +0.000 C 
BRANCH  11  12
ATOM     12  N   UNL     1       9.780  11.957  17.636  0.00  0.00    +0.000 NA
BRANCH  12  14
ATOM     13  C   UNL     1       8.181  13.817  18.251  0.00  0.00    +0.000 C 
ATOM     14  C   UNL     1       8.410  12.486  17.538  0.00  0.00    +0.000 C 
ENDBRANCH  12  14
BRANCH  12  15
ATOM     15  C   UNL     1      10.802  12.979  17.918  0.00  0.00    +0.000 C 
ATOM     16  C   UNL     1      11.797  13.258  16.796  0.00  0.00    +0.000 C 
ENDBRANCH  12  15
ENDBRANCH  11  12
ENDBRANCH  10  11
ENDBRANCH   9  10
ENDBRANCH   3   9
ENDBRANCH   1   6
BRANCH   1  17
ATOM     17  C   UNL     1       3.866   4.455  17.648  0.00  0.00    +0.000 A 
ATOM     18  C   UNL     1       3.274   3.205  17.432  0.00  0.00    +0.000 A 
ATOM     19  C   UNL     1       2.141   2.828  18.158  0.00  0.00    +0.000 A 
ATOM     20  C   UNL     1       1.605   3.705  19.098  0.00  0.00    +0.000 A 
ATOM     21  C   UNL     1       2.179   4.950  19.322  0.00  0.00    +0.000 A 
ATOM     22  C   UNL     1       3.311   5.326  18.597  0.00  0.00    +0.000 A 
BRANCH  20  23
ATOM     23  O   UNL     1       0.501   3.375  19.828  0.00  0.00    +0.000 OA
ATOM     24  H   UNL     1       0.276   4.127  20.400  0.00  0.00    +0.000 HD
ENDBRANCH  20  23
ENDBRANCH   1  17
BRANCH   2  25
ATOM     25  C   UNL     1       6.172   4.689  14.562  0.00  0.00    +0.000 C 
BRANCH  25  26
ATOM     26  C   UNL     1       5.979   3.876  13.304  0.00  0.00    +0.000 A 
ATOM     27  C   UNL     1       7.078   3.340  12.618  0.00  0.00    +0.000 A 
ATOM     28  C   UNL     1       6.890   2.608  11.445  0.00  0.00    +0.000 A 
ATOM     29  C   UNL     1       5.605   2.409  10.943  0.00  0.00    +0.000 A 
ATOM     30  C   UNL     1       4.505   2.939  11.616  0.00  0.00    +0.000 A 
ATOM     31  C   UNL     1       4.690   3.670  12.789  0.00  0.00    +0.000 A 
ENDBRANCH  25  26
ENDBRANCH   2  25
TORSDOF 11
ENDMDL
MODEL 8
REMARK VINA RESULT:      -7.7      6.470     10.643
REMARK  Name = 
REMARK  13 active torsions:
REMARK  status: ('A' for Active; 'I' for Inactive)
REMARK    1  A    between atoms: C_1  and  C_2
REMARK    2  A    between atoms: C_2  and  N_3
REMARK    3  A    between atoms: N_3  and  C_4
REMARK    4  A    between atoms: N_3  and  C_6
REMARK    5  A    between atoms: C_4  and  C_5
REMARK    6  A    between atoms: C_6  and  C_7
REMARK    7  A    between atoms: C_7  and  O_8
REMARK    8  A    between atoms: O_8  and  C_9
REMARK    9  A    between atoms: C_12  and  C_13
REMARK   10  A    between atoms: C_13  and  C_22
REMARK   11  A    between atoms: C_14  and  C_15
REMARK   12  A    between atoms: C_15  and  C_16
REMARK   13  A    between atoms: C_25  and  O_26
REMARK                            x       y       z     vdW  Elec       q    Type
REMARK                         _______ _______ _______ _____ _____    ______ ____
ROOT
ATOM      1  C   UNL     1      -0.111  11.203  18.730  0.00  0.00    +0.000 C 
ATOM      2  C   UNL     1       0.390  12.435  18.978  0.00  0.00    +0.000 C 
ENDROOT
BRANCH   1   6
ATOM      3  C   UNL     1       2.261   7.688  19.347  0.00  0.00    +0.000 A 
ATOM      4  C   UNL     1       1.440   8.200  20.357  0.00  0.00    +0.000 A 
ATOM      5  C   UNL     1       0.672   9.341  20.145  0.00  0.00    +0.000 A 
ATOM      6  C   UNL     1       0.715   9.998  18.915  0.00  0.00    +0.000 A 
ATOM      7  C   UNL     1       1.536   9.494  17.897  0.00  0.00    +0.000 A 
ATOM      8  C   UNL     1       2.308   8.345  18.114  0.00  0.00    +0.000 A 
BRANCH   3   9
ATOM      9  O   UNL     1       3.044   6.562  19.471  0.00  0.00    +0.000 OA
BRANCH   9  10
ATOM     10  C   UNL     1       3.191   5.830  18.245  0.00  0.00    +0.000 C 
BRANCH  10  11
ATOM     11  C   UNL     1       2.041   4.845  18.019  0.00  0.00    +0.000 C 
BRANCH  11  12
ATOM     12  N   UNL     1       2.180   3.590  18.798  0.00  0.00    +0.000 NA
BRANCH  12  14
ATOM     13  C   UNL     1       1.501   3.251  21.210  0.00  0.00    +0.000 C 
ATOM     14  C   UNL     1       1.074   3.490  19.763  0.00  0.00    +0.000 C 
ENDBRANCH  12  14
BRANCH  12  15
ATOM     15  C   UNL     1       2.371   2.384  17.974  0.00  0.00    +0.000 C 
ATOM     16  C   UNL     1       3.576   1.517  18.324  0.00  0.00    +0.000 C 
ENDBRANCH  12  15
ENDBRANCH  11  12
ENDBRANCH  10  11
ENDBRANCH   9  10
ENDBRANCH   3   9
ENDBRANCH   1   6
BRANCH   1  17
ATOM     17  C   UNL     1      -1.543  11.139  18.369  0.00  0.00    +0.000 A 
ATOM     18  C   UNL     1      -2.456  12.027  18.950  0.00  0.00    +0.000 A 
ATOM     19  C   UNL     1      -3.812  11.955  18.622  0.00  0.00    +0.000 A 
ATOM     20  C   UNL     1      -4.249  10.994  17.715  0.00  0.00    +0.000 A 
ATOM     21  C   UNL     1      -3.356  10.104  17.132  0.00  0.00    +0.000 A 
ATOM     22  C   UNL     1      -2.001  10.176  17.459  0.00  0.00    +0.000 A 
BRANCH  20  23
ATOM     23  O   UNL     1      -5.564  10.891  17.367  0.00  0.00    +0.000 OA
ATOM     24  H   UNL     1      -6.031  11.677  17.696  0.00  0.00    +0.000 HD
ENDBRANCH  20  23
ENDBRANCH   1  17
BRANCH   2  25
ATOM     25  C   UNL     1       1.772  12.792  19.454  0.00  0.00    +0.000 C 
BRANCH  25  26
ATOM     26  C   UNL     1       2.271  14.081  18.845  0.00  0.00    +0.000 A 
ATOM     27  C   UNL     1       3.536  14.150  18.244  0.00  0.00    +0.000 A 
ATOM     28  C   UNL     1       3.996  15.351  17.702  0.00  0.00    +0.000 A 
ATOM     29  C   UNL     1       3.201  16.494  17.759  0.00  0.00    +0.000 A 
ATOM     30  C   UNL     1       1.942  16.437  18.355  0.00  0.00    +0.000 A 
ATOM     31  C   UNL     1       1.479  15.238  18.897  0.00  0.00    +0.000 A 
ENDBRANCH  25  26
ENDBRANCH   2  25
TORSDOF 11
ENDMDL
MODEL 9
REMARK VINA RESULT:      -7.7      4.550      8.025
REMARK  Name = 
REMARK  13 active torsions:
REMARK  status: ('A' for Active; 'I' for Inactive)
REMARK    1  A    between atoms: C_1  and  C_2
REMARK    2  A    between atoms: C_2  and  N_3
REMARK    3  A    between atoms: N_3  and  C_4
REMARK    4  A    between atoms: N_3  and  C_6
REMARK    5  A    between atoms: C_4  and  C_5
REMARK    6  A    between atoms: C_6  and  C_7
REMARK    7  A    between atoms: C_7  and  O_8
REMARK    8  A    between atoms: O_8  and  C_9
REMARK    9  A    between atoms: C_12  and  C_13
REMARK   10  A    between atoms: C_13  and  C_22
REMARK   11  A    between atoms: C_14  and  C_15
REMARK   12  A    between atoms: C_15  and  C_16
REMARK   13  A    between atoms: C_25  and  O_26
REMARK                            x       y       z     vdW  Elec       q    Type
REMARK                         _______ _______ _______ _____ _____    ______ ____
ROOT
ATOM      1  C   UNL     1       2.493   6.510  19.908  0.00  0.00    +0.000 C 
ATOM      2  C   UNL     1       2.092   5.835  21.010  0.00  0.00    +0.000 C 
ENDROOT
BRANCH   1   6
ATOM      3  C   UNL     1       5.223   4.724  17.128  0.00  0.00    +0.000 A 
ATOM      4  C   UNL     1       5.664   5.256  18.344  0.00  0.00    +0.000 A 
ATOM      5  C   UNL     1       4.769   5.832  19.240  0.00  0.00    +0.000 A 
ATOM      6  C   UNL     1       3.409   5.892  18.934  0.00  0.00    +0.000 A 
ATOM      7  C   UNL     1       2.957   5.363  17.717  0.00  0.00    +0.000 A 
ATOM      8  C   UNL     1       3.861   4.784  16.817  0.00  0.00    +0.000 A 
BRANCH   3   9
ATOM      9  O   UNL     1       6.040   4.131  16.192  0.00  0.00    +0.000 OA
BRANCH   9  10
ATOM     10  C   UNL     1       5.685   4.452  14.839  0.00  0.00    +0.000 C 
BRANCH  10  11
ATOM     11  C   UNL     1       6.720   3.938  13.833  0.00  0.00    +0.000 C 
BRANCH  11  12
ATOM     12  N   UNL     1       6.121   3.171  12.714  0.00  0.00    +0.000 NA
BRANCH  12  14
ATOM     13  C   UNL     1       4.129   3.154  11.157  0.00  0.00    +0.000 C 
ATOM     14  C   UNL     1       4.775   3.695  12.430  0.00  0.00    +0.000 C 
ENDBRANCH  12  14
BRANCH  12  15
ATOM     15  C   UNL     1       6.985   3.058  11.526  0.00  0.00    +0.000 C 
ATOM     16  C   UNL     1       7.264   1.642  11.033  0.00  0.00    +0.000 C 
ENDBRANCH  12  15
ENDBRANCH  11  12
ENDBRANCH  10  11
ENDBRANCH   9  10
ENDBRANCH   3   9
ENDBRANCH   1   6
BRANCH   1  17
ATOM     17  C   UNL     1       1.883   7.838  19.695  0.00  0.00    +0.000 A 
ATOM     18  C   UNL     1       2.013   8.484  18.459  0.00  0.00    +0.000 A 
ATOM     19  C   UNL     1       1.451   9.748  18.264  0.00  0.00    +0.000 A 
ATOM     20  C   UNL     1       0.762  10.362  19.307  0.00  0.00    +0.000 A 
ATOM     21  C   UNL     1       0.627   9.736  20.540  0.00  0.00    +0.000 A 
ATOM     22  C   UNL     1       1.188   8.472  20.735  0.00  0.00    +0.000 A 
BRANCH  20  23
ATOM     23  O   UNL     1       0.198  11.594  19.157  0.00  0.00    +0.000 OA
ATOM     24  H   UNL     1      -0.255  11.622  18.298  0.00  0.00    +0.000 HD
ENDBRANCH  20  23
ENDBRANCH   1  17
BRANCH   2  25
ATOM     25  C   UNL     1       2.466   4.438  21.426  0.00  0.00    +0.000 C 
BRANCH  25  26
ATOM     26  C   UNL     1       2.198   3.426  20.338  0.00  0.00    +0.000 A 
ATOM     27  C   UNL     1       3.223   2.601  19.855  0.00  0.00    +0.000 A 
ATOM     28  C   UNL     1       2.969   1.682  18.835  0.00  0.00    +0.000 A 
ATOM     29  C   UNL     1       1.692   1.582  18.286  0.00  0.00    +0.000 A 
ATOM     30  C   UNL     1       0.666   2.399  18.758  0.00  0.00    +0.000 A 
ATOM     31  C   UNL     1       0.916   3.317  19.778  0.00  0.00    +0.000 A 
ENDBRANCH  25  26
ENDBRANCH   2  25
TORSDOF 11
ENDMDL
