MODEL 1
REMARK VINA RESULT:      -8.5      0.000      0.000
REMARK  Name = 
REMARK  6 active torsions:
REMARK  status: ('A' for Active; 'I' for Inactive)
REMARK    1  A    between atoms: C_2  and  O_5
REMARK    2  A    between atoms: O_5  and  C_6
REMARK    3  A    between atoms: C_9  and  C_10
REMARK    4  A    between atoms: C_10  and  O_11
REMARK    5  A    between atoms: O_11  and  C_12
REMARK    6  A    between atoms: C_17  and  C_18
REMARK                            x       y       z     vdW  Elec       q    Type
REMARK                         _______ _______ _______ _____ _____    ______ ____
ROOT
ATOM      1  C   UNL     1       2.440   4.623  19.770  0.00  0.00    +0.000 A 
ATOM      2  C   UNL     1       1.672   4.270  20.895  0.00  0.00    +0.000 A 
ATOM      3  C   UNL     1       1.951   3.134  21.639  0.00  0.00    +0.000 A 
ATOM      4  C   UNL     1       2.985   2.299  21.252  0.00  0.00    +0.000 A 
ATOM      5  C   UNL     1       3.726   2.603  20.112  0.00  0.00    +0.000 A 
ATOM      6  C   UNL     1       3.466   3.760  19.344  0.00  0.00    +0.000 A 
ENDROOT
BRANCH   6   7
ATOM      7  C   UNL     1       4.314   3.943  18.151  0.00  0.00    +0.000 A 
ATOM      8  N   UNL     1       3.950   3.806  16.884  0.00  0.00    +0.000 NA
ATOM      9  C   UNL     1       5.077   4.141  16.185  0.00  0.00    +0.000 A 
ATOM     10  C   UNL     1       5.335   4.221  14.813  0.00  0.00    +0.000 A 
ATOM     11  C   UNL     1       6.618   4.623  14.434  0.00  0.00    +0.000 A 
ATOM     12  C   UNL     1       7.559   4.911  15.423  0.00  0.00    +0.000 A 
ATOM     13  N   UNL     1       7.358   4.839  16.760  0.00  0.00    +0.000 NA
ATOM     14  C   UNL     1       6.102   4.458  17.065  0.00  0.00    +0.000 A 
ATOM     15  O   UNL     1       5.617   4.324  18.333  0.00  0.00    +0.000 OA
ENDBRANCH   6   7
BRANCH   1  16
ATOM     16  O   UNL     1       2.159   5.769  19.069  0.00  0.00    +0.000 OA
BRANCH  16  17
ATOM     17  C   UNL     1       2.738   6.969  19.614  0.00  0.00    +0.000 C 
BRANCH  17  21
ATOM     18  C   UNL     1       0.182  10.370  18.937  0.00  0.00    +0.000 A 
ATOM     19  C   UNL     1       0.947   9.848  17.889  0.00  0.00    +0.000 A 
ATOM     20  C   UNL     1       1.770   8.743  18.106  0.00  0.00    +0.000 A 
ATOM     21  C   UNL     1       1.856   8.164  19.383  0.00  0.00    +0.000 A 
ATOM     22  C   UNL     1       1.103   8.705  20.424  0.00  0.00    +0.000 A 
ATOM     23  C   UNL     1       0.307   9.822  20.208  0.00  0.00    +0.000 A 
BRANCH  18  24
ATOM     24  O   UNL     1      -0.606  11.431  18.614  0.00  0.00    +0.000 OA
BRANCH  24  26
ATOM     25  F   UNL     1      -2.336   9.920  18.161  0.00  0.00    +0.000 F 
ATOM     26  C   UNL     1      -1.992  11.205  18.382  0.00  0.00    +0.000 C 
ATOM     27  F   UNL     1      -2.364  11.914  17.293  0.00  0.00    +0.000 F 
ATOM     28  F   UNL     1      -2.694  11.660  19.442  0.00  0.00    +0.000 F 
ENDBRANCH  24  26
ENDBRANCH  18  24
ENDBRANCH  17  21
ENDBRANCH  16  17
ENDBRANCH   1  16
TORSDOF 6
ENDMDL
MODEL 2
REMARK VINA RESULT:      -8.5      0.196      1.124
REMARK  Name = 
REMARK  6 active torsions:
REMARK  status: ('A' for Active; 'I' for Inactive)
REMARK    1  A    between atoms: C_2  and  O_5
REMARK    2  A    between atoms: O_5  and  C_6
REMARK    3  A    between atoms: C_9  and  C_10
REMARK    4  A    between atoms: C_10  and  O_11
REMARK    5  A    between atoms: O_11  and  C_12
REMARK    6  A    between atoms: C_17  and  C_18
REMARK                            x       y       z     vdW  Elec       q    Type
REMARK                         _______ _______ _______ _____ _____    ______ ____
ROOT
ATOM      1  C   UNL     1       2.444   4.698  19.739  0.00  0.00    +0.000 A 
ATOM      2  C   UNL     1       1.677   4.360  20.870  0.00  0.00    +0.000 A 
ATOM      3  C   UNL     1       1.952   3.230  21.625  0.00  0.00    +0.000 A 
ATOM      4  C   UNL     1       2.981   2.387  21.245  0.00  0.00    +0.000 A 
ATOM      5  C   UNL     1       3.722   2.676  20.100  0.00  0.00    +0.000 A 
ATOM      6  C   UNL     1       3.466   3.826  19.321  0.00  0.00    +0.000 A 
ENDROOT
BRANCH   6   7
ATOM      7  C   UNL     1       4.313   3.993  18.125  0.00  0.00    +0.000 A 
ATOM      8  N   UNL     1       3.952   3.823  16.861  0.00  0.00    +0.000 NA
ATOM      9  C   UNL     1       5.075   4.156  16.155  0.00  0.00    +0.000 A 
ATOM     10  C   UNL     1       5.334   4.209  14.782  0.00  0.00    +0.000 A 
ATOM     11  C   UNL     1       6.612   4.618  14.395  0.00  0.00    +0.000 A 
ATOM     12  C   UNL     1       7.548   4.940  15.378  0.00  0.00    +0.000 A 
ATOM     13  N   UNL     1       7.347   4.896  16.716  0.00  0.00    +0.000 NA
ATOM     14  C   UNL     1       6.095   4.506  17.028  0.00  0.00    +0.000 A 
ATOM     15  O   UNL     1       5.611   4.394  18.299  0.00  0.00    +0.000 OA
ENDBRANCH   6   7
BRANCH   1  16
ATOM     16  O   UNL     1       2.168   5.838  19.027  0.00  0.00    +0.000 OA
BRANCH  16  17
ATOM     17  C   UNL     1       2.716   7.047  19.583  0.00  0.00    +0.000 C 
BRANCH  17  21
ATOM     18  C   UNL     1       0.109  10.428  19.003  0.00  0.00    +0.000 A 
ATOM     19  C   UNL     1       0.224   9.840  20.267  0.00  0.00    +0.000 A 
ATOM     20  C   UNL     1       1.072   8.748  20.456  0.00  0.00    +0.000 A 
ATOM     21  C   UNL     1       1.796   8.219  19.376  0.00  0.00    +0.000 A 
ATOM     22  C   UNL     1       1.660   8.802  18.117  0.00  0.00    +0.000 A 
ATOM     23  C   UNL     1       0.793   9.870  17.929  0.00  0.00    +0.000 A 
BRANCH  18  24
ATOM     24  O   UNL     1      -0.724  11.502  18.931  0.00  0.00    +0.000 OA
BRANCH  24  26
ATOM     25  F   UNL     1      -2.004  11.750  16.986  0.00  0.00    +0.000 F 
ATOM     26  C   UNL     1      -1.976  11.349  18.274  0.00  0.00    +0.000 C 
ATOM     27  F   UNL     1      -2.901  12.076  18.941  0.00  0.00    +0.000 F 
ATOM     28  F   UNL     1      -2.343  10.050  18.325  0.00  0.00    +0.000 F 
ENDBRANCH  24  26
ENDBRANCH  18  24
ENDBRANCH  17  21
ENDBRANCH  16  17
ENDBRANCH   1  16
TORSDOF 6
ENDMDL
MODEL 3
REMARK VINA RESULT:      -8.4      0.752      1.011
REMARK  Name = 
REMARK  6 active torsions:
REMARK  status: ('A' for Active; 'I' for Inactive)
REMARK    1  A    between atoms: C_2  and  O_5
REMARK    2  A    between atoms: O_5  and  C_6
REMARK    3  A    between atoms: C_9  and  C_10
REMARK    4  A    between atoms: C_10  and  O_11
REMARK    5  A    between atoms: O_11  and  C_12
REMARK    6  A    between atoms: C_17  and  C_18
REMARK                            x       y       z     vdW  Elec       q    Type
REMARK                         _______ _______ _______ _____ _____    ______ ____
ROOT
ATOM      1  C   UNL     1       2.802   4.872  19.910  0.00  0.00    +0.000 A 
ATOM      2  C   UNL     1       1.848   4.566  20.899  0.00  0.00    +0.000 A 
ATOM      3  C   UNL     1       1.383   3.274  21.086  0.00  0.00    +0.000 A 
ATOM      4  C   UNL     1       1.834   2.257  20.262  0.00  0.00    +0.000 A 
ATOM      5  C   UNL     1       2.741   2.547  19.244  0.00  0.00    +0.000 A 
ATOM      6  C   UNL     1       3.237   3.855  19.041  0.00  0.00    +0.000 A 
ENDROOT
BRANCH   6   7
ATOM      7  C   UNL     1       4.172   4.019  17.912  0.00  0.00    +0.000 A 
ATOM      8  N   UNL     1       3.895   3.906  16.622  0.00  0.00    +0.000 NA
ATOM      9  C   UNL     1       5.079   4.208  16.007  0.00  0.00    +0.000 A 
ATOM     10  C   UNL     1       5.436   4.292  14.658  0.00  0.00    +0.000 A 
ATOM     11  C   UNL     1       6.755   4.652  14.375  0.00  0.00    +0.000 A 
ATOM     12  C   UNL     1       7.632   4.899  15.431  0.00  0.00    +0.000 A 
ATOM     13  N   UNL     1       7.336   4.823  16.750  0.00  0.00    +0.000 NA
ATOM     14  C   UNL     1       6.048   4.482  16.961  0.00  0.00    +0.000 A 
ATOM     15  O   UNL     1       5.471   4.353  18.190  0.00  0.00    +0.000 OA
ENDBRANCH   6   7
BRANCH   1  16
ATOM     16  O   UNL     1       3.267   6.155  19.767  0.00  0.00    +0.000 OA
BRANCH  16  17
ATOM     17  C   UNL     1       2.827   6.829  18.574  0.00  0.00    +0.000 C 
BRANCH  17  21
ATOM     18  C   UNL     1       0.567  10.384  19.481  0.00  0.00    +0.000 A 
ATOM     19  C   UNL     1       1.140  10.221  18.215  0.00  0.00    +0.000 A 
ATOM     20  C   UNL     1       1.867   9.067  17.919  0.00  0.00    +0.000 A 
ATOM     21  C   UNL     1       2.049   8.075  18.897  0.00  0.00    +0.000 A 
ATOM     22  C   UNL     1       1.489   8.257  20.160  0.00  0.00    +0.000 A 
ATOM     23  C   UNL     1       0.791   9.420  20.457  0.00  0.00    +0.000 A 
BRANCH  18  24
ATOM     24  O   UNL     1      -0.142  11.531  19.659  0.00  0.00    +0.000 OA
BRANCH  24  26
ATOM     25  F   UNL     1      -1.402  12.299  17.841  0.00  0.00    +0.000 F 
ATOM     26  C   UNL     1      -1.410  11.653  19.025  0.00  0.00    +0.000 C 
ATOM     27  F   UNL     1      -2.236  12.336  19.849  0.00  0.00    +0.000 F 
ATOM     28  F   UNL     1      -1.927  10.420  18.836  0.00  0.00    +0.000 F 
ENDBRANCH  24  26
ENDBRANCH  18  24
ENDBRANCH  17  21
ENDBRANCH  16  17
ENDBRANCH   1  16
TORSDOF 6
ENDMDL
MODEL 4
REMARK VINA RESULT:      -8.4      2.285      4.934
REMARK  Name = 
REMARK  6 active torsions:
REMARK  status: ('A' for Active; 'I' for Inactive)
REMARK    1  A    between atoms: C_2  and  O_5
REMARK    2  A    between atoms: O_5  and  C_6
REMARK    3  A    between atoms: C_9  and  C_10
REMARK    4  A    between atoms: C_10  and  O_11
REMARK    5  A    between atoms: O_11  and  C_12
REMARK    6  A    between atoms: C_17  and  C_18
REMARK                            x       y       z     vdW  Elec       q    Type
REMARK                         _______ _______ _______ _____ _____    ______ ____
ROOT
ATOM      1  C   UNL     1       4.879   5.941  16.722  0.00  0.00    +0.000 A 
ATOM      2  C   UNL     1       5.677   6.300  15.620  0.00  0.00    +0.000 A 
ATOM      3  C   UNL     1       6.199   5.348  14.758  0.00  0.00    +0.000 A 
ATOM      4  C   UNL     1       5.965   4.005  14.998  0.00  0.00    +0.000 A 
ATOM      5  C   UNL     1       5.220   3.625  16.113  0.00  0.00    +0.000 A 
ATOM      6  C   UNL     1       4.669   4.578  16.999  0.00  0.00    +0.000 A 
ENDROOT
BRANCH   6   7
ATOM      7  C   UNL     1       3.923   4.030  18.147  0.00  0.00    +0.000 A 
ATOM      8  N   UNL     1       4.427   3.424  19.212  0.00  0.00    +0.000 NA
ATOM      9  C   UNL     1       3.331   3.171  19.991  0.00  0.00    +0.000 A 
ATOM     10  C   UNL     1       3.197   2.579  21.250  0.00  0.00    +0.000 A 
ATOM     11  C   UNL     1       1.905   2.493  21.774  0.00  0.00    +0.000 A 
ATOM     12  C   UNL     1       0.836   2.988  21.027  0.00  0.00    +0.000 A 
ATOM     13  N   UNL     1       0.915   3.561  19.803  0.00  0.00    +0.000 NA
ATOM     14  C   UNL     1       2.185   3.625  19.354  0.00  0.00    +0.000 A 
ATOM     15  O   UNL     1       2.560   4.172  18.163  0.00  0.00    +0.000 OA
ENDBRANCH   6   7
BRANCH   1  16
ATOM     16  O   UNL     1       4.351   6.907  17.542  0.00  0.00    +0.000 OA
BRANCH  16  17
ATOM     17  C   UNL     1       3.100   7.461  17.097  0.00  0.00    +0.000 C 
BRANCH  17  21
ATOM     18  C   UNL     1       0.954   9.382  20.302  0.00  0.00    +0.000 A 
ATOM     19  C   UNL     1       1.094  10.025  19.067  0.00  0.00    +0.000 A 
ATOM     20  C   UNL     1       1.784   9.401  18.027  0.00  0.00    +0.000 A 
ATOM     21  C   UNL     1       2.363   8.136  18.221  0.00  0.00    +0.000 A 
ATOM     22  C   UNL     1       2.232   7.513  19.461  0.00  0.00    +0.000 A 
ATOM     23  C   UNL     1       1.569   8.151  20.500  0.00  0.00    +0.000 A 
BRANCH  18  24
ATOM     24  O   UNL     1       0.242  10.064  21.239  0.00  0.00    +0.000 OA
BRANCH  24  26
ATOM     25  F   UNL     1      -0.868   8.173  22.060  0.00  0.00    +0.000 F 
ATOM     26  C   UNL     1      -0.277   9.350  22.354  0.00  0.00    +0.000 C 
ATOM     27  F   UNL     1      -1.203  10.122  22.964  0.00  0.00    +0.000 F 
ATOM     28  F   UNL     1       0.724   9.117  23.231  0.00  0.00    +0.000 F 
ENDBRANCH  24  26
ENDBRANCH  18  24
ENDBRANCH  17  21
ENDBRANCH  16  17
ENDBRANCH   1  16
TORSDOF 6
ENDMDL
MODEL 5
REMARK VINA RESULT:      -8.3      4.028      6.808
REMARK  Name = 
REMARK  6 active torsions:
REMARK  status: ('A' for Active; 'I' for Inactive)
REMARK    1  A    between atoms: C_2  and  O_5
REMARK    2  A    between atoms: O_5  and  C_6
REMARK    3  A    between atoms: C_9  and  C_10
REMARK    4  A    between atoms: C_10  and  O_11
REMARK    5  A    between atoms: O_11  and  C_12
REMARK    6  A    between atoms: C_17  and  C_18
REMARK                            x       y       z     vdW  Elec       q    Type
REMARK                         _______ _______ _______ _____ _____    ______ ____
ROOT
ATOM      1  C   UNL     1       2.355   3.634  19.170  0.00  0.00    +0.000 A 
ATOM      2  C   UNL     1       2.489   2.347  19.722  0.00  0.00    +0.000 A 
ATOM      3  C   UNL     1       2.387   2.127  21.087  0.00  0.00    +0.000 A 
ATOM      4  C   UNL     1       2.184   3.197  21.940  0.00  0.00    +0.000 A 
ATOM      5  C   UNL     1       2.099   4.487  21.418  0.00  0.00    +0.000 A 
ATOM      6  C   UNL     1       2.190   4.734  20.031  0.00  0.00    +0.000 A 
ENDROOT
BRANCH   6   7
ATOM      7  C   UNL     1       2.105   6.150  19.624  0.00  0.00    +0.000 A 
ATOM      8  N   UNL     1       2.488   6.673  18.468  0.00  0.00    +0.000 NA
ATOM      9  C   UNL     1       2.141   7.992  18.578  0.00  0.00    +0.000 A 
ATOM     10  C   UNL     1       2.255   9.064  17.689  0.00  0.00    +0.000 A 
ATOM     11  C   UNL     1       1.773  10.301  18.124  0.00  0.00    +0.000 A 
ATOM     12  C   UNL     1       1.218  10.401  19.400  0.00  0.00    +0.000 A 
ATOM     13  N   UNL     1       1.094   9.395  20.298  0.00  0.00    +0.000 NA
ATOM     14  C   UNL     1       1.567   8.226  19.818  0.00  0.00    +0.000 A 
ATOM     15  O   UNL     1       1.548   7.044  20.499  0.00  0.00    +0.000 OA
ENDBRANCH   6   7
BRANCH   1  16
ATOM     16  O   UNL     1       2.432   3.819  17.812  0.00  0.00    +0.000 OA
BRANCH  16  17
ATOM     17  C   UNL     1       3.594   3.245  17.187  0.00  0.00    +0.000 C 
BRANCH  17  21
ATOM     18  C   UNL     1       6.794   6.101  16.777  0.00  0.00    +0.000 A 
ATOM     19  C   UNL     1       6.737   5.267  17.899  0.00  0.00    +0.000 A 
ATOM     20  C   UNL     1       5.704   4.338  18.029  0.00  0.00    +0.000 A 
ATOM     21  C   UNL     1       4.703   4.251  17.049  0.00  0.00    +0.000 A 
ATOM     22  C   UNL     1       4.760   5.100  15.944  0.00  0.00    +0.000 A 
ATOM     23  C   UNL     1       5.775   6.041  15.834  0.00  0.00    +0.000 A 
BRANCH  18  24
ATOM     24  O   UNL     1       7.855   6.952  16.733  0.00  0.00    +0.000 OA
BRANCH  24  26
ATOM     25  F   UNL     1       8.440   7.646  18.892  0.00  0.00    +0.000 F 
ATOM     26  C   UNL     1       7.928   7.998  17.694  0.00  0.00    +0.000 C 
ATOM     27  F   UNL     1       6.679   8.466  17.914  0.00  0.00    +0.000 F 
ATOM     28  F   UNL     1       8.674   9.005  17.190  0.00  0.00    +0.000 F 
ENDBRANCH  24  26
ENDBRANCH  18  24
ENDBRANCH  17  21
ENDBRANCH  16  17
ENDBRANCH   1  16
TORSDOF 6
ENDMDL
MODEL 6
REMARK VINA RESULT:      -8.3      1.595      1.854
REMARK  Name = 
REMARK  6 active torsions:
REMARK  status: ('A' for Active; 'I' for Inactive)
REMARK    1  A    between atoms: C_2  and  O_5
REMARK    2  A    between atoms: O_5  and  C_6
REMARK    3  A    between atoms: C_9  and  C_10
REMARK    4  A    between atoms: C_10  and  O_11
REMARK    5  A    between atoms: O_11  and  C_12
REMARK    6  A    between atoms: C_17  and  C_18
REMARK                            x       y       z     vdW  Elec       q    Type
REMARK                         _______ _______ _______ _____ _____    ______ ____
ROOT
ATOM      1  C   UNL     1       2.342   4.744  19.663  0.00  0.00    +0.000 A 
ATOM      2  C   UNL     1       1.549   4.420  20.780  0.00  0.00    +0.000 A 
ATOM      3  C   UNL     1       1.818   3.310  21.565  0.00  0.00    +0.000 A 
ATOM      4  C   UNL     1       2.869   2.473  21.231  0.00  0.00    +0.000 A 
ATOM      5  C   UNL     1       3.636   2.748  20.101  0.00  0.00    +0.000 A 
ATOM      6  C   UNL     1       3.387   3.878  19.291  0.00  0.00    +0.000 A 
ENDROOT
BRANCH   6   7
ATOM      7  C   UNL     1       4.263   4.031  18.114  0.00  0.00    +0.000 A 
ATOM      8  N   UNL     1       3.924   3.884  16.842  0.00  0.00    +0.000 NA
ATOM      9  C   UNL     1       5.071   4.191  16.163  0.00  0.00    +0.000 A 
ATOM     10  C   UNL     1       5.360   4.249  14.796  0.00  0.00    +0.000 A 
ATOM     11  C   UNL     1       6.658   4.624  14.440  0.00  0.00    +0.000 A 
ATOM     12  C   UNL     1       7.581   4.910  15.445  0.00  0.00    +0.000 A 
ATOM     13  N   UNL     1       7.351   4.859  16.779  0.00  0.00    +0.000 NA
ATOM     14  C   UNL     1       6.082   4.502  17.061  0.00  0.00    +0.000 A 
ATOM     15  O   UNL     1       5.568   4.393  18.319  0.00  0.00    +0.000 OA
ENDBRANCH   6   7
BRANCH   1  16
ATOM     16  O   UNL     1       2.070   5.866  18.920  0.00  0.00    +0.000 OA
BRANCH  16  17
ATOM     17  C   UNL     1       2.735   7.062  19.364  0.00  0.00    +0.000 C 
BRANCH  17  21
ATOM     18  C   UNL     1      -0.113  10.065  20.564  0.00  0.00    +0.000 A 
ATOM     19  C   UNL     1       0.452  10.105  19.285  0.00  0.00    +0.000 A 
ATOM     20  C   UNL     1       1.369   9.130  18.894  0.00  0.00    +0.000 A 
ATOM     21  C   UNL     1       1.751   8.117  19.789  0.00  0.00    +0.000 A 
ATOM     22  C   UNL     1       1.195   8.098  21.068  0.00  0.00    +0.000 A 
ATOM     23  C   UNL     1       0.304   9.087  21.460  0.00  0.00    +0.000 A 
BRANCH  18  24
ATOM     24  O   UNL     1      -1.015  11.046  20.836  0.00  0.00    +0.000 OA
BRANCH  24  26
ATOM     25  F   UNL     1      -0.736  11.531  23.110  0.00  0.00    +0.000 F 
ATOM     26  C   UNL     1      -0.702  11.999  21.845  0.00  0.00    +0.000 C 
ATOM     27  F   UNL     1      -1.593  13.013  21.768  0.00  0.00    +0.000 F 
ATOM     28  F   UNL     1       0.530  12.500  21.607  0.00  0.00    +0.000 F 
ENDBRANCH  24  26
ENDBRANCH  18  24
ENDBRANCH  17  21
ENDBRANCH  16  17
ENDBRANCH   1  16
TORSDOF 6
ENDMDL
MODEL 7
REMARK VINA RESULT:      -8.3      2.452      5.107
REMARK  Name = 
REMARK  6 active torsions:
REMARK  status: ('A' for Active; 'I' for Inactive)
REMARK    1  A    between atoms: C_2  and  O_5
REMARK    2  A    between atoms: O_5  and  C_6
REMARK    3  A    between atoms: C_9  and  C_10
REMARK    4  A    between atoms: C_10  and  O_11
REMARK    5  A    between atoms: O_11  and  C_12
REMARK    6  A    between atoms: C_17  and  C_18
REMARK                            x       y       z     vdW  Elec       q    Type
REMARK                         _______ _______ _______ _____ _____    ______ ____
ROOT
ATOM      1  C   UNL     1       5.264   5.762  16.794  0.00  0.00    +0.000 A 
ATOM      2  C   UNL     1       6.137   6.079  15.736  0.00  0.00    +0.000 A 
ATOM      3  C   UNL     1       6.565   5.117  14.833  0.00  0.00    +0.000 A 
ATOM      4  C   UNL     1       6.158   3.803  14.988  0.00  0.00    +0.000 A 
ATOM      5  C   UNL     1       5.334   3.459  16.059  0.00  0.00    +0.000 A 
ATOM      6  C   UNL     1       4.878   4.423  16.985  0.00  0.00    +0.000 A 
ENDROOT
BRANCH   6   7
ATOM      7  C   UNL     1       4.031   3.912  18.079  0.00  0.00    +0.000 A 
ATOM      8  N   UNL     1       4.423   3.564  19.297  0.00  0.00    +0.000 NA
ATOM      9  C   UNL     1       3.259   3.223  19.928  0.00  0.00    +0.000 A 
ATOM     10  C   UNL     1       2.994   2.796  21.232  0.00  0.00    +0.000 A 
ATOM     11  C   UNL     1       1.658   2.546  21.557  0.00  0.00    +0.000 A 
ATOM     12  C   UNL     1       0.678   2.725  20.580  0.00  0.00    +0.000 A 
ATOM     13  N   UNL     1       0.887   3.127  19.304  0.00  0.00    +0.000 NA
ATOM     14  C   UNL     1       2.190   3.363  19.054  0.00  0.00    +0.000 A 
ATOM     15  O   UNL     1       2.684   3.799  17.859  0.00  0.00    +0.000 OA
ENDBRANCH   6   7
BRANCH   1  16
ATOM     16  O   UNL     1       4.834   6.740  17.656  0.00  0.00    +0.000 OA
BRANCH  16  17
ATOM     17  C   UNL     1       3.648   7.438  17.236  0.00  0.00    +0.000 C 
BRANCH  17  21
ATOM     18  C   UNL     1       1.003   8.249  20.539  0.00  0.00    +0.000 A 
ATOM     19  C   UNL     1       1.125   9.172  19.495  0.00  0.00    +0.000 A 
ATOM     20  C   UNL     1       1.977   8.907  18.423  0.00  0.00    +0.000 A 
ATOM     21  C   UNL     1       2.735   7.726  18.396  0.00  0.00    +0.000 A 
ATOM     22  C   UNL     1       2.619   6.822  19.452  0.00  0.00    +0.000 A 
ATOM     23  C   UNL     1       1.791   7.105  20.529  0.00  0.00    +0.000 A 
BRANCH  18  24
ATOM     24  O   UNL     1       0.127   8.591  21.523  0.00  0.00    +0.000 OA
BRANCH  24  26
ATOM     25  F   UNL     1       0.311  10.806  22.259  0.00  0.00    +0.000 F 
ATOM     26  C   UNL     1       0.552   9.506  22.526  0.00  0.00    +0.000 C 
ATOM     27  F   UNL     1       1.887   9.371  22.690  0.00  0.00    +0.000 F 
ATOM     28  F   UNL     1      -0.051   9.190  23.692  0.00  0.00    +0.000 F 
ENDBRANCH  24  26
ENDBRANCH  18  24
ENDBRANCH  17  21
ENDBRANCH  16  17
ENDBRANCH   1  16
TORSDOF 6
ENDMDL
MODEL 8
REMARK VINA RESULT:      -8.2      0.874      1.187
REMARK  Name = 
REMARK  6 active torsions:
REMARK  status: ('A' for Active; 'I' for Inactive)
REMARK    1  A    between atoms: C_2  and  O_5
REMARK    2  A    between atoms: O_5  and  C_6
REMARK    3  A    between atoms: C_9  and  C_10
REMARK    4  A    between atoms: C_10  and  O_11
REMARK    5  A    between atoms: O_11  and  C_12
REMARK    6  A    between atoms: C_17  and  C_18
REMARK                            x       y       z     vdW  Elec       q    Type
REMARK                         _______ _______ _______ _____ _____    ______ ____
ROOT
ATOM      1  C   UNL     1       2.199   4.367  19.951  0.00  0.00    +0.000 A 
ATOM      2  C   UNL     1       1.318   3.890  20.940  0.00  0.00    +0.000 A 
ATOM      3  C   UNL     1       1.613   2.765  21.694  0.00  0.00    +0.000 A 
ATOM      4  C   UNL     1       2.783   2.066  21.453  0.00  0.00    +0.000 A 
ATOM      5  C   UNL     1       3.645   2.493  20.445  0.00  0.00    +0.000 A 
ATOM      6  C   UNL     1       3.370   3.642  19.670  0.00  0.00    +0.000 A 
ENDROOT
BRANCH   6   7
ATOM      7  C   UNL     1       4.359   3.962  18.623  0.00  0.00    +0.000 A 
ATOM      8  N   UNL     1       5.649   4.214  18.793  0.00  0.00    +0.000 NA
ATOM      9  C   UNL     1       6.117   4.387  17.520  0.00  0.00    +0.000 A 
ATOM     10  C   UNL     1       7.397   4.651  17.023  0.00  0.00    +0.000 A 
ATOM     11  C   UNL     1       7.528   4.751  15.636  0.00  0.00    +0.000 A 
ATOM     12  C   UNL     1       6.397   4.591  14.834  0.00  0.00    +0.000 A 
ATOM     13  N   UNL     1       5.139   4.344  15.269  0.00  0.00    +0.000 NA
ATOM     14  C   UNL     1       5.077   4.247  16.612  0.00  0.00    +0.000 A 
ATOM     15  O   UNL     1       3.941   3.982  17.319  0.00  0.00    +0.000 OA
ENDBRANCH   6   7
BRANCH   1  16
ATOM     16  O   UNL     1       1.894   5.501  19.239  0.00  0.00    +0.000 OA
BRANCH  16  17
ATOM     17  C   UNL     1       2.727   6.638  19.525  0.00  0.00    +0.000 C 
BRANCH  17  21
ATOM     18  C   UNL     1       0.561  10.323  18.984  0.00  0.00    +0.000 A 
ATOM     19  C   UNL     1       1.306   9.786  17.929  0.00  0.00    +0.000 A 
ATOM     20  C   UNL     1       2.003   8.590  18.102  0.00  0.00    +0.000 A 
ATOM     21  C   UNL     1       1.981   7.931  19.342  0.00  0.00    +0.000 A 
ATOM     22  C   UNL     1       1.250   8.486  20.392  0.00  0.00    +0.000 A 
ATOM     23  C   UNL     1       0.582   9.691  20.221  0.00  0.00    +0.000 A 
BRANCH  18  24
ATOM     24  O   UNL     1      -0.102  11.478  18.704  0.00  0.00    +0.000 OA
BRANCH  24  26
ATOM     25  F   UNL     1      -1.999  10.209  18.181  0.00  0.00    +0.000 F 
ATOM     26  C   UNL     1      -1.509  11.425  18.502  0.00  0.00    +0.000 C 
ATOM     27  F   UNL     1      -1.829  12.266  17.494  0.00  0.00    +0.000 F 
ATOM     28  F   UNL     1      -2.129  11.853  19.623  0.00  0.00    +0.000 F 
ENDBRANCH  24  26
ENDBRANCH  18  24
ENDBRANCH  17  21
ENDBRANCH  16  17
ENDBRANCH   1  16
TORSDOF 6
ENDMDL
MODEL 9
REMARK VINA RESULT:      -8.2      0.793      1.391
REMARK  Name = 
REMARK  6 active torsions:
REMARK  status: ('A' for Active; 'I' for Inactive)
REMARK    1  A    between atoms: C_2  and  O_5
REMARK    2  A    between atoms: O_5  and  C_6
REMARK    3  A    between atoms: C_9  and  C_10
REMARK    4  A    between atoms: C_10  and  O_11
REMARK    5  A    between atoms: O_11  and  C_12
REMARK    6  A    between atoms: C_17  and  C_18
REMARK                            x       y       z     vdW  Elec       q    Type
REMARK                         _______ _______ _______ _____ _____    ______ ____
ROOT
ATOM      1  C   UNL     1       3.001   4.878  20.032  0.00  0.00    +0.000 A 
ATOM      2  C   UNL     1       2.130   4.566  21.092  0.00  0.00    +0.000 A 
ATOM      3  C   UNL     1       1.770   3.258  21.377  0.00  0.00    +0.000 A 
ATOM      4  C   UNL     1       2.245   2.229  20.583  0.00  0.00    +0.000 A 
ATOM      5  C   UNL     1       3.069   2.521  19.497  0.00  0.00    +0.000 A 
ATOM      6  C   UNL     1       3.457   3.845  19.194  0.00  0.00    +0.000 A 
ENDROOT
BRANCH   6   7
ATOM      7  C   UNL     1       4.313   4.006  18.003  0.00  0.00    +0.000 A 
ATOM      8  N   UNL     1       3.950   3.875  16.735  0.00  0.00    +0.000 NA
ATOM      9  C   UNL     1       5.086   4.184  16.039  0.00  0.00    +0.000 A 
ATOM     10  C   UNL     1       5.350   4.256  14.668  0.00  0.00    +0.000 A 
ATOM     11  C   UNL     1       6.643   4.629  14.292  0.00  0.00    +0.000 A 
ATOM     12  C   UNL     1       7.586   4.899  15.284  0.00  0.00    +0.000 A 
ATOM     13  N   UNL     1       7.380   4.834  16.621  0.00  0.00    +0.000 NA
ATOM     14  C   UNL     1       6.114   4.480  16.922  0.00  0.00    +0.000 A 
ATOM     15  O   UNL     1       5.623   4.360  18.188  0.00  0.00    +0.000 OA
ENDBRANCH   6   7
BRANCH   1  16
ATOM     16  O   UNL     1       3.364   6.180  19.791  0.00  0.00    +0.000 OA
BRANCH  16  17
ATOM     17  C   UNL     1       2.795   6.757  18.602  0.00  0.00    +0.000 C 
BRANCH  17  21
ATOM     18  C   UNL     1       0.685  10.408  19.486  0.00  0.00    +0.000 A 
ATOM     19  C   UNL     1       0.832   9.426  20.472  0.00  0.00    +0.000 A 
ATOM     20  C   UNL     1       1.520   8.246  20.188  0.00  0.00    +0.000 A 
ATOM     21  C   UNL     1       2.047   8.026  18.905  0.00  0.00    +0.000 A 
ATOM     22  C   UNL     1       1.879   9.004  17.926  0.00  0.00    +0.000 A 
ATOM     23  C   UNL     1       1.168  10.163  18.207  0.00  0.00    +0.000 A 
BRANCH  18  24
ATOM     24  O   UNL     1       0.020  11.530  19.873  0.00  0.00    +0.000 OA
BRANCH  24  26
ATOM     25  F   UNL     1      -2.112  12.468  20.112  0.00  0.00    +0.000 F 
ATOM     26  C   UNL     1      -1.262  11.790  19.313  0.00  0.00    +0.000 C 
ATOM     27  F   UNL     1      -1.847  10.608  19.017  0.00  0.00    +0.000 F 
ATOM     28  F   UNL     1      -1.107  12.485  18.166  0.00  0.00    +0.000 F 
ENDBRANCH  24  26
ENDBRANCH  18  24
ENDBRANCH  17  21
ENDBRANCH  16  17
ENDBRANCH   1  16
TORSDOF 6
ENDMDL
