MODEL 1
REMARK VINA RESULT:      -6.0      0.000      0.000
REMARK  Name = 
REMARK  5 active torsions:
REMARK  status: ('A' for Active; 'I' for Inactive)
REMARK    1  A    between atoms: C_1  and  O_2
REMARK    2  A    between atoms: O_2  and  C_3
REMARK    3  A    between atoms: C_5  and  C_6
REMARK    4  A    between atoms: C_7  and  C_8
REMARK    5  A    between atoms: C_12  and  O_13
REMARK                            x       y       z     vdW  Elec       q    Type
REMARK                         _______ _______ _______ _____ _____    ______ ____
ROOT
ATOM      1  C   UNL     1       5.595   4.772  18.900  0.00  0.00    +0.000 A 
ATOM      2  C   UNL     1       4.385   5.053  19.556  0.00  0.00    +0.000 A 
ATOM      3  C   UNL     1       3.136   4.830  18.950  0.00  0.00    +0.000 A 
ATOM      4  C   UNL     1       3.120   4.269  17.672  0.00  0.00    +0.000 A 
ATOM      5  C   UNL     1       4.314   4.012  16.991  0.00  0.00    +0.000 A 
ATOM      6  C   UNL     1       5.547   4.267  17.598  0.00  0.00    +0.000 A 
ENDROOT
BRANCH   1   8
ATOM      7  C   UNL     1       7.661   5.955  19.170  0.00  0.00    +0.000 C 
ATOM      8  O   UNL     1       6.698   5.038  19.669  0.00  0.00    +0.000 OA
ENDBRANCH   1   8
BRANCH   3   9
ATOM      9  C   UNL     1       1.920   5.094  19.737  0.00  0.00    +0.000 C 
ATOM     10  C   UNL     1       1.239   4.321  20.598  0.00  0.00    +0.000 C 
BRANCH  10  11
ATOM     11  C   UNL     1       1.505   2.919  20.975  0.00  0.00    +0.000 C 
ATOM     12  O   UNL     1       1.500   2.572  22.152  0.00  0.00    +0.000 OA
ENDBRANCH  10  11
ENDBRANCH   3   9
BRANCH   6  13
ATOM     13  O   UNL     1       6.685   4.002  16.889  0.00  0.00    +0.000 OA
ATOM     14  H   UNL     1       6.447   3.601  16.037  0.00  0.00    +0.000 HD
ENDBRANCH   6  13
TORSDOF 4
ENDMDL
MODEL 2
REMARK VINA RESULT:      -5.9      1.970      2.988
REMARK  Name = 
REMARK  5 active torsions:
REMARK  status: ('A' for Active; 'I' for Inactive)
REMARK    1  A    between atoms: C_1  and  O_2
REMARK    2  A    between atoms: O_2  and  C_3
REMARK    3  A    between atoms: C_5  and  C_6
REMARK    4  A    between atoms: C_7  and  C_8
REMARK    5  A    between atoms: C_12  and  O_13
REMARK                            x       y       z     vdW  Elec       q    Type
REMARK                         _______ _______ _______ _____ _____    ______ ____
ROOT
ATOM      1  C   UNL     1       5.862   4.145  16.422  0.00  0.00    +0.000 A 
ATOM      2  C   UNL     1       4.489   4.374  16.614  0.00  0.00    +0.000 A 
ATOM      3  C   UNL     1       3.977   4.881  17.822  0.00  0.00    +0.000 A 
ATOM      4  C   UNL     1       4.883   5.202  18.833  0.00  0.00    +0.000 A 
ATOM      5  C   UNL     1       6.250   4.951  18.672  0.00  0.00    +0.000 A 
ATOM      6  C   UNL     1       6.738   4.420  17.474  0.00  0.00    +0.000 A 
ENDROOT
BRANCH   1   8
ATOM      7  C   UNL     1       6.593   4.598  14.185  0.00  0.00    +0.000 C 
ATOM      8  O   UNL     1       6.158   3.672  15.171  0.00  0.00    +0.000 OA
ENDBRANCH   1   8
BRANCH   3   9
ATOM      9  C   UNL     1       2.532   5.149  17.910  0.00  0.00    +0.000 C 
ATOM     10  C   UNL     1       1.491   4.328  18.123  0.00  0.00    +0.000 C 
BRANCH  10  11
ATOM     11  C   UNL     1       1.504   2.861  18.290  0.00  0.00    +0.000 C 
ATOM     12  O   UNL     1       0.465   2.241  18.493  0.00  0.00    +0.000 OA
ENDBRANCH  10  11
ENDBRANCH   3   9
BRANCH   6  13
ATOM     13  O   UNL     1       8.082   4.190  17.368  0.00  0.00    +0.000 OA
ATOM     14  H   UNL     1       8.476   4.170  18.256  0.00  0.00    +0.000 HD
ENDBRANCH   6  13
TORSDOF 4
ENDMDL
MODEL 3
REMARK VINA RESULT:      -5.8      2.056      2.508
REMARK  Name = 
REMARK  5 active torsions:
REMARK  status: ('A' for Active; 'I' for Inactive)
REMARK    1  A    between atoms: C_1  and  O_2
REMARK    2  A    between atoms: O_2  and  C_3
REMARK    3  A    between atoms: C_5  and  C_6
REMARK    4  A    between atoms: C_7  and  C_8
REMARK    5  A    between atoms: C_12  and  O_13
REMARK                            x       y       z     vdW  Elec       q    Type
REMARK                         _______ _______ _______ _____ _____    ______ ____
ROOT
ATOM      1  C   UNL     1       3.563   6.063  17.614  0.00  0.00    +0.000 A 
ATOM      2  C   UNL     1       2.486   5.516  18.331  0.00  0.00    +0.000 A 
ATOM      3  C   UNL     1       2.269   4.129  18.415  0.00  0.00    +0.000 A 
ATOM      4  C   UNL     1       3.192   3.285  17.794  0.00  0.00    +0.000 A 
ATOM      5  C   UNL     1       4.252   3.812  17.050  0.00  0.00    +0.000 A 
ATOM      6  C   UNL     1       4.434   5.195  16.954  0.00  0.00    +0.000 A 
ENDROOT
BRANCH   1   8
ATOM      7  C   UNL     1       2.418   8.131  18.009  0.00  0.00    +0.000 C 
ATOM      8  O   UNL     1       3.609   7.431  17.675  0.00  0.00    +0.000 OA
ENDBRANCH   1   8
BRANCH   3   9
ATOM      9  C   UNL     1       1.152   3.644  19.242  0.00  0.00    +0.000 C 
ATOM     10  C   UNL     1       1.065   3.409  20.561  0.00  0.00    +0.000 C 
BRANCH  10  11
ATOM     11  C   UNL     1       2.122   3.533  21.583  0.00  0.00    +0.000 C 
ATOM     12  O   UNL     1       2.720   2.544  21.995  0.00  0.00    +0.000 OA
ENDBRANCH  10  11
ENDBRANCH   3   9
BRANCH   6  13
ATOM     13  O   UNL     1       5.484   5.659  16.211  0.00  0.00    +0.000 OA
ATOM     14  H   UNL     1       5.184   5.836  15.305  0.00  0.00    +0.000 HD
ENDBRANCH   6  13
TORSDOF 4
ENDMDL
MODEL 4
REMARK VINA RESULT:      -5.7      1.828      4.879
REMARK  Name = 
REMARK  5 active torsions:
REMARK  status: ('A' for Active; 'I' for Inactive)
REMARK    1  A    between atoms: C_1  and  O_2
REMARK    2  A    between atoms: O_2  and  C_3
REMARK    3  A    between atoms: C_5  and  C_6
REMARK    4  A    between atoms: C_7  and  C_8
REMARK    5  A    between atoms: C_12  and  O_13
REMARK                            x       y       z     vdW  Elec       q    Type
REMARK                         _______ _______ _______ _____ _____    ______ ____
ROOT
ATOM      1  C   UNL     1       3.230   2.979  19.641  0.00  0.00    +0.000 A 
ATOM      2  C   UNL     1       4.129   4.029  19.393  0.00  0.00    +0.000 A 
ATOM      3  C   UNL     1       4.319   4.564  18.106  0.00  0.00    +0.000 A 
ATOM      4  C   UNL     1       3.546   4.050  17.064  0.00  0.00    +0.000 A 
ATOM      5  C   UNL     1       2.669   2.984  17.286  0.00  0.00    +0.000 A 
ATOM      6  C   UNL     1       2.515   2.445  18.567  0.00  0.00    +0.000 A 
ENDROOT
BRANCH   1   8
ATOM      7  C   UNL     1       2.121   3.139  21.759  0.00  0.00    +0.000 C 
ATOM      8  O   UNL     1       3.176   2.619  20.962  0.00  0.00    +0.000 OA
ENDBRANCH   1   8
BRANCH   3   9
ATOM      9  C   UNL     1       5.235   5.706  17.953  0.00  0.00    +0.000 C 
ATOM     10  C   UNL     1       6.446   5.798  17.380  0.00  0.00    +0.000 C 
BRANCH  10  11
ATOM     11  C   UNL     1       7.247   4.724  16.759  0.00  0.00    +0.000 C 
ATOM     12  O   UNL     1       8.162   4.186  17.373  0.00  0.00    +0.000 OA
ENDBRANCH  10  11
ENDBRANCH   3   9
BRANCH   6  13
ATOM     13  O   UNL     1       1.647   1.401  18.730  0.00  0.00    +0.000 OA
ATOM     14  H   UNL     1       1.721   1.060  19.636  0.00  0.00    +0.000 HD
ENDBRANCH   6  13
TORSDOF 4
ENDMDL
MODEL 5
REMARK VINA RESULT:      -5.7      1.831      2.501
REMARK  Name = 
REMARK  5 active torsions:
REMARK  status: ('A' for Active; 'I' for Inactive)
REMARK    1  A    between atoms: C_1  and  O_2
REMARK    2  A    between atoms: O_2  and  C_3
REMARK    3  A    between atoms: C_5  and  C_6
REMARK    4  A    between atoms: C_7  and  C_8
REMARK    5  A    between atoms: C_12  and  O_13
REMARK                            x       y       z     vdW  Elec       q    Type
REMARK                         _______ _______ _______ _____ _____    ______ ____
ROOT
ATOM      1  C   UNL     1       4.840   4.894  16.964  0.00  0.00    +0.000 A 
ATOM      2  C   UNL     1       3.761   4.218  17.557  0.00  0.00    +0.000 A 
ATOM      3  C   UNL     1       2.697   4.901  18.172  0.00  0.00    +0.000 A 
ATOM      4  C   UNL     1       2.712   6.296  18.144  0.00  0.00    +0.000 A 
ATOM      5  C   UNL     1       3.793   6.987  17.587  0.00  0.00    +0.000 A 
ATOM      6  C   UNL     1       4.857   6.290  17.005  0.00  0.00    +0.000 A 
ENDROOT
BRANCH   1   8
ATOM      7  C   UNL     1       5.825   3.975  14.983  0.00  0.00    +0.000 C 
ATOM      8  O   UNL     1       5.759   4.049  16.400  0.00  0.00    +0.000 OA
ENDBRANCH   1   8
BRANCH   3   9
ATOM      9  C   UNL     1       1.577   4.111  18.710  0.00  0.00    +0.000 C 
ATOM     10  C   UNL     1       1.291   3.721  19.963  0.00  0.00    +0.000 C 
BRANCH  10  11
ATOM     11  C   UNL     1       2.076   3.948  21.193  0.00  0.00    +0.000 C 
ATOM     12  O   UNL     1       2.039   3.147  22.121  0.00  0.00    +0.000 OA
ENDBRANCH  10  11
ENDBRANCH   3   9
BRANCH   6  13
ATOM     13  O   UNL     1       5.891   7.011  16.477  0.00  0.00    +0.000 OA
ATOM     14  H   UNL     1       5.547   7.834  16.093  0.00  0.00    +0.000 HD
ENDBRANCH   6  13
TORSDOF 4
ENDMDL
MODEL 6
REMARK VINA RESULT:      -5.6      2.029      5.070
REMARK  Name = 
REMARK  5 active torsions:
REMARK  status: ('A' for Active; 'I' for Inactive)
REMARK    1  A    between atoms: C_1  and  O_2
REMARK    2  A    between atoms: O_2  and  C_3
REMARK    3  A    between atoms: C_5  and  C_6
REMARK    4  A    between atoms: C_7  and  C_8
REMARK    5  A    between atoms: C_12  and  O_13
REMARK                            x       y       z     vdW  Elec       q    Type
REMARK                         _______ _______ _______ _____ _____    ______ ____
ROOT
ATOM      1  C   UNL     1       3.091   4.777  18.925  0.00  0.00    +0.000 A 
ATOM      2  C   UNL     1       4.385   5.114  19.358  0.00  0.00    +0.000 A 
ATOM      3  C   UNL     1       5.528   4.837  18.587  0.00  0.00    +0.000 A 
ATOM      4  C   UNL     1       5.345   4.249  17.335  0.00  0.00    +0.000 A 
ATOM      5  C   UNL     1       4.068   3.878  16.900  0.00  0.00    +0.000 A 
ATOM      6  C   UNL     1       2.946   4.135  17.694  0.00  0.00    +0.000 A 
ENDROOT
BRANCH   1   8
ATOM      7  C   UNL     1       2.105   4.549  21.097  0.00  0.00    +0.000 C 
ATOM      8  O   UNL     1       2.114   5.151  19.810  0.00  0.00    +0.000 OA
ENDBRANCH   1   8
BRANCH   3   9
ATOM      9  C   UNL     1       6.836   5.284  19.092  0.00  0.00    +0.000 C 
ATOM     10  C   UNL     1       7.651   6.272  18.687  0.00  0.00    +0.000 C 
BRANCH  10  11
ATOM     11  C   UNL     1       7.472   7.194  17.548  0.00  0.00    +0.000 C 
ATOM     12  O   UNL     1       7.641   6.811  16.395  0.00  0.00    +0.000 OA
ENDBRANCH  10  11
ENDBRANCH   3   9
BRANCH   6  13
ATOM     13  O   UNL     1       1.721   3.749  17.225  0.00  0.00    +0.000 OA
ATOM     14  H   UNL     1       1.290   4.504  16.791  0.00  0.00    +0.000 HD
ENDBRANCH   6  13
TORSDOF 4
ENDMDL
MODEL 7
REMARK VINA RESULT:      -5.6      1.832      1.956
REMARK  Name = 
REMARK  5 active torsions:
REMARK  status: ('A' for Active; 'I' for Inactive)
REMARK    1  A    between atoms: C_1  and  O_2
REMARK    2  A    between atoms: O_2  and  C_3
REMARK    3  A    between atoms: C_5  and  C_6
REMARK    4  A    between atoms: C_7  and  C_8
REMARK    5  A    between atoms: C_12  and  O_13
REMARK                            x       y       z     vdW  Elec       q    Type
REMARK                         _______ _______ _______ _____ _____    ______ ____
ROOT
ATOM      1  C   UNL     1       6.200   4.814  18.588  0.00  0.00    +0.000 A 
ATOM      2  C   UNL     1       4.822   5.058  18.710  0.00  0.00    +0.000 A 
ATOM      3  C   UNL     1       3.931   4.877  17.637  0.00  0.00    +0.000 A 
ATOM      4  C   UNL     1       4.447   4.397  16.432  0.00  0.00    +0.000 A 
ATOM      5  C   UNL     1       5.821   4.178  16.282  0.00  0.00    +0.000 A 
ATOM      6  C   UNL     1       6.695   4.392  17.352  0.00  0.00    +0.000 A 
ENDROOT
BRANCH   1   8
ATOM      7  C   UNL     1       8.014   5.895  19.719  0.00  0.00    +0.000 C 
ATOM      8  O   UNL     1       6.889   5.028  19.752  0.00  0.00    +0.000 OA
ENDBRANCH   1   8
BRANCH   3   9
ATOM      9  C   UNL     1       2.495   5.096  17.876  0.00  0.00    +0.000 C 
ATOM     10  C   UNL     1       1.525   4.254  18.268  0.00  0.00    +0.000 C 
BRANCH  10  11
ATOM     11  C   UNL     1       1.625   2.805  18.535  0.00  0.00    +0.000 C 
ATOM     12  O   UNL     1       1.937   2.020  17.645  0.00  0.00    +0.000 OA
ENDBRANCH  10  11
ENDBRANCH   3   9
BRANCH   6  13
ATOM     13  O   UNL     1       8.029   4.167  17.152  0.00  0.00    +0.000 OA
ATOM     14  H   UNL     1       8.205   4.099  16.199  0.00  0.00    +0.000 HD
ENDBRANCH   6  13
TORSDOF 4
ENDMDL
MODEL 8
REMARK VINA RESULT:      -5.6      2.016      2.951
REMARK  Name = 
REMARK  5 active torsions:
REMARK  status: ('A' for Active; 'I' for Inactive)
REMARK    1  A    between atoms: C_1  and  O_2
REMARK    2  A    between atoms: O_2  and  C_3
REMARK    3  A    between atoms: C_5  and  C_6
REMARK    4  A    between atoms: C_7  and  C_8
REMARK    5  A    between atoms: C_12  and  O_13
REMARK                            x       y       z     vdW  Elec       q    Type
REMARK                         _______ _______ _______ _____ _____    ______ ____
ROOT
ATOM      1  C   UNL     1       5.662   4.569  16.164  0.00  0.00    +0.000 A 
ATOM      2  C   UNL     1       4.382   4.183  16.597  0.00  0.00    +0.000 A 
ATOM      3  C   UNL     1       3.599   4.995  17.436  0.00  0.00    +0.000 A 
ATOM      4  C   UNL     1       4.110   6.241  17.803  0.00  0.00    +0.000 A 
ATOM      5  C   UNL     1       5.395   6.629  17.409  0.00  0.00    +0.000 A 
ATOM      6  C   UNL     1       6.171   5.795  16.598  0.00  0.00    +0.000 A 
ENDROOT
BRANCH   1   8
ATOM      7  C   UNL     1       6.193   3.872  13.935  0.00  0.00    +0.000 C 
ATOM      8  O   UNL     1       6.250   3.649  15.337  0.00  0.00    +0.000 OA
ENDBRANCH   1   8
BRANCH   3   9
ATOM      9  C   UNL     1       2.244   4.537  17.785  0.00  0.00    +0.000 C 
ATOM     10  C   UNL     1       1.729   4.105  18.948  0.00  0.00    +0.000 C 
BRANCH  10  11
ATOM     11  C   UNL     1       2.418   3.919  20.240  0.00  0.00    +0.000 C 
ATOM     12  O   UNL     1       2.334   4.763  21.126  0.00  0.00    +0.000 OA
ENDBRANCH  10  11
ENDBRANCH   3   9
BRANCH   6  13
ATOM     13  O   UNL     1       7.421   6.219  16.243  0.00  0.00    +0.000 OA
ATOM     14  H   UNL     1       7.938   5.463  15.919  0.00  0.00    +0.000 HD
ENDBRANCH   6  13
TORSDOF 4
ENDMDL
MODEL 9
REMARK VINA RESULT:      -5.6      1.943      5.219
REMARK  Name = 
REMARK  5 active torsions:
REMARK  status: ('A' for Active; 'I' for Inactive)
REMARK    1  A    between atoms: C_1  and  O_2
REMARK    2  A    between atoms: O_2  and  C_3
REMARK    3  A    between atoms: C_5  and  C_6
REMARK    4  A    between atoms: C_7  and  C_8
REMARK    5  A    between atoms: C_12  and  O_13
REMARK                            x       y       z     vdW  Elec       q    Type
REMARK                         _______ _______ _______ _____ _____    ______ ____
ROOT
ATOM      1  C   UNL     1       3.148   4.153  19.669  0.00  0.00    +0.000 A 
ATOM      2  C   UNL     1       3.741   3.696  18.480  0.00  0.00    +0.000 A 
ATOM      3  C   UNL     1       4.046   4.563  17.415  0.00  0.00    +0.000 A 
ATOM      4  C   UNL     1       3.784   5.923  17.583  0.00  0.00    +0.000 A 
ATOM      5  C   UNL     1       3.166   6.392  18.747  0.00  0.00    +0.000 A 
ATOM      6  C   UNL     1       2.842   5.511  19.783  0.00  0.00    +0.000 A 
ENDROOT
BRANCH   1   8
ATOM      7  C   UNL     1       1.657   2.581  20.693  0.00  0.00    +0.000 C 
ATOM      8  O   UNL     1       2.952   3.157  20.589  0.00  0.00    +0.000 OA
ENDBRANCH   1   8
BRANCH   3   9
ATOM      9  C   UNL     1       4.726   4.005  16.234  0.00  0.00    +0.000 C 
ATOM     10  C   UNL     1       6.007   4.069  15.838  0.00  0.00    +0.000 C 
BRANCH  10  11
ATOM     11  C   UNL     1       7.128   4.783  16.481  0.00  0.00    +0.000 C 
ATOM     12  O   UNL     1       7.469   5.897  16.097  0.00  0.00    +0.000 OA
ENDBRANCH  10  11
ENDBRANCH   3   9
BRANCH   6  13
ATOM     13  O   UNL     1       2.235   6.019  20.898  0.00  0.00    +0.000 OA
ATOM     14  H   UNL     1       2.610   5.597  21.689  0.00  0.00    +0.000 HD
ENDBRANCH   6  13
TORSDOF 4
ENDMDL
