MODEL 1
REMARK VINA RESULT:      -5.6      0.000      0.000
REMARK  Name = 
REMARK  5 active torsions:
REMARK  status: ('A' for Active; 'I' for Inactive)
REMARK    1  A    between atoms: C_1  and  C_2
REMARK    2  A    between atoms: C_2  and  O_3
REMARK    3  A    between atoms: C_2  and  C_4
REMARK    4  A    between atoms: C_4  and  O_5
REMARK    5  A    between atoms: O_5  and  C_6
REMARK                            x       y       z     vdW  Elec       q    Type
REMARK                         _______ _______ _______ _____ _____    ______ ____
ROOT
ATOM      1  C   UNL     1       3.518   3.969  19.445  0.00  0.00    +0.000 A 
ATOM      2  C   UNL     1       2.825   4.928  20.197  0.00  0.00    +0.000 A 
ATOM      3  C   UNL     1       1.514   4.700  20.625  0.00  0.00    +0.000 A 
ATOM      4  C   UNL     1       0.873   3.509  20.309  0.00  0.00    +0.000 A 
ATOM      5  C   UNL     1       1.540   2.544  19.556  0.00  0.00    +0.000 A 
ATOM      6  C   UNL     1       2.855   2.771  19.129  0.00  0.00    +0.000 A 
ATOM      7 CL   UNL     1       3.629   1.529  18.206  0.00  0.00    +0.000 Cl
ENDROOT
BRANCH   1   8
ATOM      8  O   UNL     1       4.809   4.130  18.997  0.00  0.00    +0.000 OA
BRANCH   8   9
ATOM      9  C   UNL     1       5.417   5.398  19.274  0.00  0.00    +0.000 C 
BRANCH   9  11
ATOM     10  C   UNL     1       7.399   6.460  18.076  0.00  0.00    +0.000 C 
ATOM     11  C   UNL     1       6.927   5.359  19.012  0.00  0.00    +0.000 C 
BRANCH  11  12
ATOM     12  O   UNL     1       7.647   5.455  20.241  0.00  0.00    +0.000 OA
ATOM     13  H   UNL     1       8.042   6.346  20.259  0.00  0.00    +0.000 HD
ENDBRANCH  11  12
ENDBRANCH   9  11
ENDBRANCH   8   9
ENDBRANCH   1   8
TORSDOF 4
ENDMDL
MODEL 2
REMARK VINA RESULT:      -5.5      1.739      1.798
REMARK  Name = 
REMARK  5 active torsions:
REMARK  status: ('A' for Active; 'I' for Inactive)
REMARK    1  A    between atoms: C_1  and  C_2
REMARK    2  A    between atoms: C_2  and  O_3
REMARK    3  A    between atoms: C_2  and  C_4
REMARK    4  A    between atoms: C_4  and  O_5
REMARK    5  A    between atoms: O_5  and  C_6
REMARK                            x       y       z     vdW  Elec       q    Type
REMARK                         _______ _______ _______ _____ _____    ______ ____
ROOT
ATOM      1  C   UNL     1       4.121   4.127  18.759  0.00  0.00    +0.000 A 
ATOM      2  C   UNL     1       3.591   5.411  18.576  0.00  0.00    +0.000 A 
ATOM      3  C   UNL     1       2.303   5.594  18.064  0.00  0.00    +0.000 A 
ATOM      4  C   UNL     1       1.523   4.495  17.727  0.00  0.00    +0.000 A 
ATOM      5  C   UNL     1       2.032   3.209  17.894  0.00  0.00    +0.000 A 
ATOM      6  C   UNL     1       3.323   3.025  18.408  0.00  0.00    +0.000 A 
ATOM      7 CL   UNL     1       3.891   1.403  18.599  0.00  0.00    +0.000 Cl
ENDROOT
BRANCH   1   8
ATOM      8  O   UNL     1       5.378   3.879  19.261  0.00  0.00    +0.000 OA
BRANCH   8   9
ATOM      9  C   UNL     1       6.360   4.898  19.029  0.00  0.00    +0.000 C 
BRANCH   9  11
ATOM     10  C   UNL     1       7.200   6.089  16.938  0.00  0.00    +0.000 C 
ATOM     11  C   UNL     1       6.990   4.756  17.638  0.00  0.00    +0.000 C 
BRANCH  11  12
ATOM     12  O   UNL     1       8.242   4.076  17.727  0.00  0.00    +0.000 OA
ATOM     13  H   UNL     1       8.816   4.468  17.043  0.00  0.00    +0.000 HD
ENDBRANCH  11  12
ENDBRANCH   9  11
ENDBRANCH   8   9
ENDBRANCH   1   8
TORSDOF 4
ENDMDL
MODEL 3
REMARK VINA RESULT:      -5.5      1.572      1.636
REMARK  Name = 
REMARK  5 active torsions:
REMARK  status: ('A' for Active; 'I' for Inactive)
REMARK    1  A    between atoms: C_1  and  C_2
REMARK    2  A    between atoms: C_2  and  O_3
REMARK    3  A    between atoms: C_2  and  C_4
REMARK    4  A    between atoms: C_4  and  O_5
REMARK    5  A    between atoms: O_5  and  C_6
REMARK                            x       y       z     vdW  Elec       q    Type
REMARK                         _______ _______ _______ _____ _____    ______ ____
ROOT
ATOM      1  C   UNL     1       4.353   4.088  18.932  0.00  0.00    +0.000 A 
ATOM      2  C   UNL     1       3.577   4.917  18.111  0.00  0.00    +0.000 A 
ATOM      3  C   UNL     1       2.256   4.585  17.793  0.00  0.00    +0.000 A 
ATOM      4  C   UNL     1       1.691   3.417  18.291  0.00  0.00    +0.000 A 
ATOM      5  C   UNL     1       2.446   2.575  19.103  0.00  0.00    +0.000 A 
ATOM      6  C   UNL     1       3.769   2.909  19.424  0.00  0.00    +0.000 A 
ATOM      7 CL   UNL     1       4.650   1.824  20.444  0.00  0.00    +0.000 Cl
ENDROOT
BRANCH   1   8
ATOM      8  O   UNL     1       5.655   4.360  19.286  0.00  0.00    +0.000 OA
BRANCH   8   9
ATOM      9  C   UNL     1       6.514   4.805  18.228  0.00  0.00    +0.000 C 
BRANCH   9  11
ATOM     10  C   UNL     1       7.857   6.970  18.282  0.00  0.00    +0.000 C 
ATOM     11  C   UNL     1       7.742   5.539  18.782  0.00  0.00    +0.000 C 
BRANCH  11  12
ATOM     12  O   UNL     1       7.713   5.546  20.209  0.00  0.00    +0.000 OA
ATOM     13  H   UNL     1       7.358   4.679  20.480  0.00  0.00    +0.000 HD
ENDBRANCH  11  12
ENDBRANCH   9  11
ENDBRANCH   8   9
ENDBRANCH   1   8
TORSDOF 4
ENDMDL
MODEL 4
REMARK VINA RESULT:      -5.5      2.117      2.494
REMARK  Name = 
REMARK  5 active torsions:
REMARK  status: ('A' for Active; 'I' for Inactive)
REMARK    1  A    between atoms: C_1  and  C_2
REMARK    2  A    between atoms: C_2  and  O_3
REMARK    3  A    between atoms: C_2  and  C_4
REMARK    4  A    between atoms: C_4  and  O_5
REMARK    5  A    between atoms: O_5  and  C_6
REMARK                            x       y       z     vdW  Elec       q    Type
REMARK                         _______ _______ _______ _____ _____    ______ ____
ROOT
ATOM      1  C   UNL     1       4.105   4.268  18.007  0.00  0.00    +0.000 A 
ATOM      2  C   UNL     1       3.997   2.872  18.077  0.00  0.00    +0.000 A 
ATOM      3  C   UNL     1       2.748   2.247  18.139  0.00  0.00    +0.000 A 
ATOM      4  C   UNL     1       1.586   3.007  18.132  0.00  0.00    +0.000 A 
ATOM      5  C   UNL     1       1.669   4.397  18.071  0.00  0.00    +0.000 A 
ATOM      6  C   UNL     1       2.921   5.024  18.006  0.00  0.00    +0.000 A 
ATOM      7 CL   UNL     1       2.954   6.751  17.922  0.00  0.00    +0.000 Cl
ENDROOT
BRANCH   1   8
ATOM      8  O   UNL     1       5.302   4.944  17.940  0.00  0.00    +0.000 OA
BRANCH   8   9
ATOM      9  C   UNL     1       5.888   5.312  19.195  0.00  0.00    +0.000 C 
BRANCH   9  11
ATOM     10  C   UNL     1       7.789   6.786  18.355  0.00  0.00    +0.000 C 
ATOM     11  C   UNL     1       7.405   5.499  19.066  0.00  0.00    +0.000 C 
BRANCH  11  12
ATOM     12  O   UNL     1       8.018   5.480  20.355  0.00  0.00    +0.000 OA
ATOM     13  H   UNL     1       7.881   4.582  20.710  0.00  0.00    +0.000 HD
ENDBRANCH  11  12
ENDBRANCH   9  11
ENDBRANCH   8   9
ENDBRANCH   1   8
TORSDOF 4
ENDMDL
MODEL 5
REMARK VINA RESULT:      -5.5      1.583      1.712
REMARK  Name = 
REMARK  5 active torsions:
REMARK  status: ('A' for Active; 'I' for Inactive)
REMARK    1  A    between atoms: C_1  and  C_2
REMARK    2  A    between atoms: C_2  and  O_3
REMARK    3  A    between atoms: C_2  and  C_4
REMARK    4  A    between atoms: C_4  and  O_5
REMARK    5  A    between atoms: O_5  and  C_6
REMARK                            x       y       z     vdW  Elec       q    Type
REMARK                         _______ _______ _______ _____ _____    ______ ____
ROOT
ATOM      1  C   UNL     1       4.048   3.813  19.006  0.00  0.00    +0.000 A 
ATOM      2  C   UNL     1       3.141   3.738  20.073  0.00  0.00    +0.000 A 
ATOM      3  C   UNL     1       1.764   3.673  19.845  0.00  0.00    +0.000 A 
ATOM      4  C   UNL     1       1.269   3.684  18.546  0.00  0.00    +0.000 A 
ATOM      5  C   UNL     1       2.152   3.765  17.471  0.00  0.00    +0.000 A 
ATOM      6  C   UNL     1       3.533   3.828  17.700  0.00  0.00    +0.000 A 
ATOM      7 CL   UNL     1       4.575   3.919  16.321  0.00  0.00    +0.000 Cl
ENDROOT
BRANCH   1   8
ATOM      8  O   UNL     1       5.414   3.875  19.163  0.00  0.00    +0.000 OA
BRANCH   8   9
ATOM      9  C   UNL     1       5.974   5.188  19.290  0.00  0.00    +0.000 C 
BRANCH   9  11
ATOM     10  C   UNL     1       7.942   6.628  18.549  0.00  0.00    +0.000 C 
ATOM     11  C   UNL     1       7.055   5.435  18.230  0.00  0.00    +0.000 C 
BRANCH  11  12
ATOM     12  O   UNL     1       7.874   4.275  18.077  0.00  0.00    +0.000 OA
ATOM     13  H   UNL     1       7.542   3.620  18.719  0.00  0.00    +0.000 HD
ENDBRANCH  11  12
ENDBRANCH   9  11
ENDBRANCH   8   9
ENDBRANCH   1   8
TORSDOF 4
ENDMDL
MODEL 6
REMARK VINA RESULT:      -5.4      1.669      1.825
REMARK  Name = 
REMARK  5 active torsions:
REMARK  status: ('A' for Active; 'I' for Inactive)
REMARK    1  A    between atoms: C_1  and  C_2
REMARK    2  A    between atoms: C_2  and  O_3
REMARK    3  A    between atoms: C_2  and  C_4
REMARK    4  A    between atoms: C_4  and  O_5
REMARK    5  A    between atoms: O_5  and  C_6
REMARK                            x       y       z     vdW  Elec       q    Type
REMARK                         _______ _______ _______ _____ _____    ______ ____
ROOT
ATOM      1  C   UNL     1       3.206   3.321  19.220  0.00  0.00    +0.000 A 
ATOM      2  C   UNL     1       3.537   2.743  20.453  0.00  0.00    +0.000 A 
ATOM      3  C   UNL     1       2.575   2.579  21.454  0.00  0.00    +0.000 A 
ATOM      4  C   UNL     1       1.266   2.992  21.239  0.00  0.00    +0.000 A 
ATOM      5  C   UNL     1       0.916   3.576  20.024  0.00  0.00    +0.000 A 
ATOM      6  C   UNL     1       1.879   3.737  19.019  0.00  0.00    +0.000 A 
ATOM      7 CL   UNL     1       1.377   4.461  17.530  0.00  0.00    +0.000 Cl
ENDROOT
BRANCH   1   8
ATOM      8  O   UNL     1       4.103   3.506  18.193  0.00  0.00    +0.000 OA
BRANCH   8   9
ATOM      9  C   UNL     1       4.819   4.748  18.199  0.00  0.00    +0.000 C 
BRANCH   9  11
ATOM     10  C   UNL     1       7.241   4.963  17.436  0.00  0.00    +0.000 C 
ATOM     11  C   UNL     1       6.298   4.534  18.548  0.00  0.00    +0.000 C 
BRANCH  11  12
ATOM     12  O   UNL     1       6.633   5.243  19.741  0.00  0.00    +0.000 OA
ATOM     13  H   UNL     1       5.914   5.885  19.889  0.00  0.00    +0.000 HD
ENDBRANCH  11  12
ENDBRANCH   9  11
ENDBRANCH   8   9
ENDBRANCH   1   8
TORSDOF 4
ENDMDL
MODEL 7
REMARK VINA RESULT:      -5.4      2.818      5.255
REMARK  Name = 
REMARK  5 active torsions:
REMARK  status: ('A' for Active; 'I' for Inactive)
REMARK    1  A    between atoms: C_1  and  C_2
REMARK    2  A    between atoms: C_2  and  O_3
REMARK    3  A    between atoms: C_2  and  C_4
REMARK    4  A    between atoms: C_4  and  O_5
REMARK    5  A    between atoms: O_5  and  C_6
REMARK                            x       y       z     vdW  Elec       q    Type
REMARK                         _______ _______ _______ _____ _____    ______ ____
ROOT
ATOM      1  C   UNL     1       5.836   4.367  17.758  0.00  0.00    +0.000 A 
ATOM      2  C   UNL     1       5.102   3.885  16.664  0.00  0.00    +0.000 A 
ATOM      3  C   UNL     1       5.391   4.303  15.362  0.00  0.00    +0.000 A 
ATOM      4  C   UNL     1       6.418   5.209  15.130  0.00  0.00    +0.000 A 
ATOM      5  C   UNL     1       7.156   5.706  16.203  0.00  0.00    +0.000 A 
ATOM      6  C   UNL     1       6.868   5.286  17.508  0.00  0.00    +0.000 A 
ATOM      7 CL   UNL     1       7.828   5.934  18.794  0.00  0.00    +0.000 Cl
ENDROOT
BRANCH   1   8
ATOM      8  O   UNL     1       5.605   3.993  19.062  0.00  0.00    +0.000 OA
BRANCH   8   9
ATOM      9  C   UNL     1       4.230   3.830  19.435  0.00  0.00    +0.000 C 
BRANCH   9  11
ATOM     10  C   UNL     1       3.144   1.639  18.718  0.00  0.00    +0.000 C 
ATOM     11  C   UNL     1       3.923   2.372  19.799  0.00  0.00    +0.000 C 
BRANCH  11  12
ATOM     12  O   UNL     1       5.132   1.661  20.062  0.00  0.00    +0.000 OA
ATOM     13  H   UNL     1       5.225   1.003  19.347  0.00  0.00    +0.000 HD
ENDBRANCH  11  12
ENDBRANCH   9  11
ENDBRANCH   8   9
ENDBRANCH   1   8
TORSDOF 4
ENDMDL
MODEL 8
REMARK VINA RESULT:      -5.4      2.907      3.314
REMARK  Name = 
REMARK  5 active torsions:
REMARK  status: ('A' for Active; 'I' for Inactive)
REMARK    1  A    between atoms: C_1  and  C_2
REMARK    2  A    between atoms: C_2  and  O_3
REMARK    3  A    between atoms: C_2  and  C_4
REMARK    4  A    between atoms: C_4  and  O_5
REMARK    5  A    between atoms: O_5  and  C_6
REMARK                            x       y       z     vdW  Elec       q    Type
REMARK                         _______ _______ _______ _____ _____    ______ ____
ROOT
ATOM      1  C   UNL     1       3.883   4.379  17.560  0.00  0.00    +0.000 A 
ATOM      2  C   UNL     1       3.880   2.978  17.522  0.00  0.00    +0.000 A 
ATOM      3  C   UNL     1       2.739   2.249  17.869  0.00  0.00    +0.000 A 
ATOM      4  C   UNL     1       1.581   2.909  18.261  0.00  0.00    +0.000 A 
ATOM      5  C   UNL     1       1.563   4.301  18.314  0.00  0.00    +0.000 A 
ATOM      6  C   UNL     1       2.706   5.033  17.963  0.00  0.00    +0.000 A 
ATOM      7 CL   UNL     1       2.615   6.758  18.041  0.00  0.00    +0.000 Cl
ENDROOT
BRANCH   1   8
ATOM      8  O   UNL     1       4.970   5.155  17.227  0.00  0.00    +0.000 OA
BRANCH   8   9
ATOM      9  C   UNL     1       6.253   4.526  17.351  0.00  0.00    +0.000 C 
BRANCH   9  11
ATOM     10  C   UNL     1       6.274   4.099  14.839  0.00  0.00    +0.000 C 
ATOM     11  C   UNL     1       7.045   4.618  16.041  0.00  0.00    +0.000 C 
BRANCH  11  12
ATOM     12  O   UNL     1       7.438   5.968  15.794  0.00  0.00    +0.000 OA
ATOM     13  H   UNL     1       6.983   6.513  16.463  0.00  0.00    +0.000 HD
ENDBRANCH  11  12
ENDBRANCH   9  11
ENDBRANCH   8   9
ENDBRANCH   1   8
TORSDOF 4
ENDMDL
MODEL 9
REMARK VINA RESULT:      -5.3      1.717      1.822
REMARK  Name = 
REMARK  5 active torsions:
REMARK  status: ('A' for Active; 'I' for Inactive)
REMARK    1  A    between atoms: C_1  and  C_2
REMARK    2  A    between atoms: C_2  and  O_3
REMARK    3  A    between atoms: C_2  and  C_4
REMARK    4  A    between atoms: C_4  and  O_5
REMARK    5  A    between atoms: O_5  and  C_6
REMARK                            x       y       z     vdW  Elec       q    Type
REMARK                         _______ _______ _______ _____ _____    ______ ____
ROOT
ATOM      1  C   UNL     1       3.995   3.779  18.378  0.00  0.00    +0.000 A 
ATOM      2  C   UNL     1       3.054   4.457  17.590  0.00  0.00    +0.000 A 
ATOM      3  C   UNL     1       1.684   4.226  17.743  0.00  0.00    +0.000 A 
ATOM      4  C   UNL     1       1.231   3.314  18.687  0.00  0.00    +0.000 A 
ATOM      5  C   UNL     1       2.147   2.623  19.477  0.00  0.00    +0.000 A 
ATOM      6  C   UNL     1       3.521   2.856  19.326  0.00  0.00    +0.000 A 
ATOM      7 CL   UNL     1       4.606   1.973  20.344  0.00  0.00    +0.000 Cl
ENDROOT
BRANCH   1   8
ATOM      8  O   UNL     1       5.355   3.964  18.280  0.00  0.00    +0.000 OA
BRANCH   8   9
ATOM      9  C   UNL     1       5.784   5.267  17.866  0.00  0.00    +0.000 C 
BRANCH   9  11
ATOM     10  C   UNL     1       7.901   6.181  18.951  0.00  0.00    +0.000 C 
ATOM     11  C   UNL     1       7.314   5.358  17.816  0.00  0.00    +0.000 C 
BRANCH  11  12
ATOM     12  O   UNL     1       7.889   4.051  17.844  0.00  0.00    +0.000 OA
ATOM     13  H   UNL     1       7.248   3.480  18.306  0.00  0.00    +0.000 HD
ENDBRANCH  11  12
ENDBRANCH   9  11
ENDBRANCH   8   9
ENDBRANCH   1   8
TORSDOF 4
ENDMDL
