MODEL 1
REMARK VINA RESULT:      -9.2      0.000      0.000
REMARK  Name = 
REMARK  6 active torsions:
REMARK  status: ('A' for Active; 'I' for Inactive)
REMARK    1  A    between atoms: C_1  and  C_2
REMARK    2  A    between atoms: C_2  and  C_3
REMARK    3  A    between atoms: C_14  and  C_15
REMARK    4  A    between atoms: C_29  and  O_30
REMARK    5  A    between atoms: C_29  and  C_31
REMARK    6  A    between atoms: C_31  and  C_32
REMARK                            x       y       z     vdW  Elec       q    Type
REMARK                         _______ _______ _______ _____ _____    ______ ____
ROOT
ATOM      1  C   UNL     1       0.644  10.085  19.398  0.00  0.00    +0.000 A 
ATOM      2  C   UNL     1       1.345   8.906  19.349  0.00  0.00    +0.000 A 
ATOM      3  C   UNL     1       1.195   7.916  20.312  0.00  0.00    +0.000 A 
ATOM      4  N   UNL     1       0.472   8.079  21.438  0.00  0.00    +0.000 NA
ATOM      5  C   UNL     1      -0.116   9.307  21.600  0.00  0.00    +0.000 A 
ATOM      6  C   UNL     1      -0.583   9.742  22.861  0.00  0.00    +0.000 A 
ATOM      7  C   UNL     1      -0.820  11.107  23.142  0.00  0.00    +0.000 A 
ATOM      8  C   UNL     1      -0.818  11.964  22.072  0.00  0.00    +0.000 A 
ATOM      9  C   UNL     1      -0.826  11.476  20.776  0.00  0.00    +0.000 A 
ATOM     10  C   UNL     1      -0.162  10.280  20.545  0.00  0.00    +0.000 A 
ATOM     11  C   UNL     1      -1.051  12.671  19.928  0.00  0.00    +0.000 C 
ATOM     12  C   UNL     1       0.002  13.450  20.683  0.00  0.00    +0.000 C 
ATOM     13  C   UNL     1       0.285  14.780  20.019  0.00  0.00    +0.000 C 
ATOM     14  O   UNL     1      -0.502  13.339  22.061  0.00  0.00    +0.000 OA
ATOM     15  C   UNL     1       1.990   6.769  19.815  0.00  0.00    +0.000 A 
ATOM     16  C   UNL     1       2.185   5.503  20.222  0.00  0.00    +0.000 A 
ATOM     17  C   UNL     1       2.953   4.581  19.350  0.00  0.00    +0.000 A 
ATOM     18  C   UNL     1       3.577   5.038  18.252  0.00  0.00    +0.000 A 
ATOM     19  C   UNL     1       3.507   6.465  17.905  0.00  0.00    +0.000 A 
ATOM     20  O   UNL     1       4.136   6.915  16.947  0.00  0.00    +0.000 OA
ATOM     21  N   UNL     1       2.648   7.189  18.661  0.00  0.00    +0.000 N 
ATOM     22  C   UNL     1       2.372   8.548  18.340  0.00  0.00    +0.000 C 
ATOM     23  C   UNL     1       4.304   4.222  17.254  0.00  0.00    +0.000 C 
ATOM     24  O   UNL     1       4.119   2.811  17.406  0.00  0.00    +0.000 OA
ATOM     25  C   UNL     1       3.731   2.237  18.560  0.00  0.00    +0.000 C 
ATOM     26  O   UNL     1       3.949   1.038  18.733  0.00  0.00    +0.000 OA
ATOM     27  C   UNL     1       3.005   3.100  19.642  0.00  0.00    +0.000 C 
ENDROOT
BRANCH   1  29
ATOM     28  C   UNL     1       2.213  11.851  18.548  0.00  0.00    +0.000 C 
ATOM     29  C   UNL     1       0.933  11.074  18.296  0.00  0.00    +0.000 C 
ENDBRANCH   1  29
BRANCH  27  30
ATOM     30  O   UNL     1       3.712   2.963  20.887  0.00  0.00    +0.000 OA
ATOM     31  H   UNL     1       4.056   2.052  20.930  0.00  0.00    +0.000 HD
ENDBRANCH  27  30
BRANCH  27  32
ATOM     32  C   UNL     1       1.608   2.466  19.859  0.00  0.00    +0.000 C 
ATOM     33  C   UNL     1       0.688   2.474  18.642  0.00  0.00    +0.000 C 
ENDBRANCH  27  32
TORSDOF 3
ENDMDL
MODEL 2
REMARK VINA RESULT:      -9.0      1.553      8.854
REMARK  Name = 
REMARK  6 active torsions:
REMARK  status: ('A' for Active; 'I' for Inactive)
REMARK    1  A    between atoms: C_1  and  C_2
REMARK    2  A    between atoms: C_2  and  C_3
REMARK    3  A    between atoms: C_14  and  C_15
REMARK    4  A    between atoms: C_29  and  O_30
REMARK    5  A    between atoms: C_29  and  C_31
REMARK    6  A    between atoms: C_31  and  C_32
REMARK                            x       y       z     vdW  Elec       q    Type
REMARK                         _______ _______ _______ _____ _____    ______ ____
ROOT
ATOM      1  C   UNL     1       2.181   5.871  19.725  0.00  0.00    +0.000 A 
ATOM      2  C   UNL     1       1.770   7.147  20.022  0.00  0.00    +0.000 A 
ATOM      3  C   UNL     1       2.027   8.222  19.182  0.00  0.00    +0.000 A 
ATOM      4  N   UNL     1       2.814   8.140  18.091  0.00  0.00    +0.000 NA
ATOM      5  C   UNL     1       3.377   6.913  17.849  0.00  0.00    +0.000 A 
ATOM      6  C   UNL     1       4.485   6.766  16.984  0.00  0.00    +0.000 A 
ATOM      7  C   UNL     1       5.316   5.622  17.019  0.00  0.00    +0.000 A 
ATOM      8  C   UNL     1       4.862   4.555  17.750  0.00  0.00    +0.000 A 
ATOM      9  C   UNL     1       3.558   4.521  18.216  0.00  0.00    +0.000 A 
ATOM     10  C   UNL     1       2.978   5.732  18.563  0.00  0.00    +0.000 A 
ATOM     11  C   UNL     1       3.385   3.146  18.742  0.00  0.00    +0.000 C 
ATOM     12  C   UNL     1       4.698   3.226  19.486  0.00  0.00    +0.000 C 
ATOM     13  C   UNL     1       4.892   2.029  20.391  0.00  0.00    +0.000 C 
ATOM     14  O   UNL     1       5.622   3.553  18.390  0.00  0.00    +0.000 OA
ATOM     15  C   UNL     1       1.292   9.362  19.777  0.00  0.00    +0.000 A 
ATOM     16  C   UNL     1       1.060  10.635  19.412  0.00  0.00    +0.000 A 
ATOM     17  C   UNL     1       0.120  11.452  20.219  0.00  0.00    +0.000 A 
ATOM     18  C   UNL     1      -0.368  10.985  21.380  0.00  0.00    +0.000 A 
ATOM     19  C   UNL     1       0.028   9.655  21.865  0.00  0.00    +0.000 A 
ATOM     20  O   UNL     1      -0.349   9.243  22.962  0.00  0.00    +0.000 OA
ATOM     21  N   UNL     1       0.749   8.923  20.982  0.00  0.00    +0.000 N 
ATOM     22  C   UNL     1       1.072   7.565  21.263  0.00  0.00    +0.000 C 
ATOM     23  C   UNL     1      -1.371  11.653  22.239  0.00  0.00    +0.000 C 
ATOM     24  O   UNL     1      -1.995  12.790  21.634  0.00  0.00    +0.000 OA
ATOM     25  C   UNL     1      -1.448  13.478  20.614  0.00  0.00    +0.000 C 
ATOM     26  O   UNL     1      -1.831  14.627  20.397  0.00  0.00    +0.000 OA
ATOM     27  C   UNL     1      -0.353  12.800  19.730  0.00  0.00    +0.000 C 
ENDROOT
BRANCH   1  29
ATOM     28  C   UNL     1       0.677   3.951  20.316  0.00  0.00    +0.000 C 
ATOM     29  C   UNL     1       1.851   4.812  20.747  0.00  0.00    +0.000 C 
ENDBRANCH   1  29
BRANCH  27  30
ATOM     30  O   UNL     1       0.809  13.648  19.709  0.00  0.00    +0.000 OA
ATOM     31  H   UNL     1       0.638  14.394  20.312  0.00  0.00    +0.000 HD
ENDBRANCH  27  30
BRANCH  27  32
ATOM     32  C   UNL     1      -0.901  12.771  18.281  0.00  0.00    +0.000 C 
ATOM     33  C   UNL     1      -2.094  11.849  18.049  0.00  0.00    +0.000 C 
ENDBRANCH  27  32
TORSDOF 3
ENDMDL
MODEL 3
REMARK VINA RESULT:      -8.3      1.256      1.552
REMARK  Name = 
REMARK  6 active torsions:
REMARK  status: ('A' for Active; 'I' for Inactive)
REMARK    1  A    between atoms: C_1  and  C_2
REMARK    2  A    between atoms: C_2  and  C_3
REMARK    3  A    between atoms: C_14  and  C_15
REMARK    4  A    between atoms: C_29  and  O_30
REMARK    5  A    between atoms: C_29  and  C_31
REMARK    6  A    between atoms: C_31  and  C_32
REMARK                            x       y       z     vdW  Elec       q    Type
REMARK                         _______ _______ _______ _____ _____    ______ ____
ROOT
ATOM      1  C   UNL     1      -0.192  11.275  19.612  0.00  0.00    +0.000 A 
ATOM      2  C   UNL     1       0.581  10.142  19.564  0.00  0.00    +0.000 A 
ATOM      3  C   UNL     1       0.561   9.189  20.573  0.00  0.00    +0.000 A 
ATOM      4  N   UNL     1      -0.097   9.355  21.738  0.00  0.00    +0.000 NA
ATOM      5  C   UNL     1      -0.754  10.549  21.891  0.00  0.00    +0.000 A 
ATOM      6  C   UNL     1      -1.164  11.010  23.162  0.00  0.00    +0.000 A 
ATOM      7  C   UNL     1      -1.473  12.369  23.403  0.00  0.00    +0.000 A 
ATOM      8  C   UNL     1      -1.598  13.175  22.301  0.00  0.00    +0.000 A 
ATOM      9  C   UNL     1      -1.659  12.629  21.030  0.00  0.00    +0.000 A 
ATOM     10  C   UNL     1      -0.933  11.469  20.803  0.00  0.00    +0.000 A 
ATOM     11  C   UNL     1      -2.017  13.769  20.151  0.00  0.00    +0.000 C 
ATOM     12  C   UNL     1      -0.972  14.646  20.801  0.00  0.00    +0.000 C 
ATOM     13  C   UNL     1      -0.822  15.960  20.066  0.00  0.00    +0.000 C 
ATOM     14  O   UNL     1      -1.376  14.565  22.213  0.00  0.00    +0.000 OA
ATOM     15  C   UNL     1       1.396   8.074  20.070  0.00  0.00    +0.000 A 
ATOM     16  C   UNL     1       1.701   6.842  20.514  0.00  0.00    +0.000 A 
ATOM     17  C   UNL     1       2.470   5.932  19.629  0.00  0.00    +0.000 A 
ATOM     18  C   UNL     1       2.990   6.379  18.474  0.00  0.00    +0.000 A 
ATOM     19  C   UNL     1       2.802   7.782  18.075  0.00  0.00    +0.000 A 
ATOM     20  O   UNL     1       3.335   8.228  17.059  0.00  0.00    +0.000 OA
ATOM     21  N   UNL     1       1.948   8.483  18.858  0.00  0.00    +0.000 N 
ATOM     22  C   UNL     1       1.561   9.806  18.502  0.00  0.00    +0.000 C 
ATOM     23  C   UNL     1       3.702   5.568  17.463  0.00  0.00    +0.000 C 
ATOM     24  O   UNL     1       3.622   4.155  17.684  0.00  0.00    +0.000 OA
ATOM     25  C   UNL     1       3.349   3.610  18.884  0.00  0.00    +0.000 C 
ATOM     26  O   UNL     1       3.658   2.437  19.090  0.00  0.00    +0.000 OA
ATOM     27  C   UNL     1       2.640   4.473  19.977  0.00  0.00    +0.000 C 
ENDROOT
BRANCH   1  29
ATOM     28  C   UNL     1       1.221  13.066  18.563  0.00  0.00    +0.000 C 
ATOM     29  C   UNL     1      -0.043  12.230  18.454  0.00  0.00    +0.000 C 
ENDBRANCH   1  29
BRANCH  27  30
ATOM     30  O   UNL     1       3.434   4.437  21.176  0.00  0.00    +0.000 OA
ATOM     31  H   UNL     1       2.963   3.881  21.823  0.00  0.00    +0.000 HD
ENDBRANCH  27  30
BRANCH  27  32
ATOM     32  C   UNL     1       1.305   3.761  20.314  0.00  0.00    +0.000 C 
ATOM     33  C   UNL     1       1.324   2.893  21.568  0.00  0.00    +0.000 C 
ENDBRANCH  27  32
TORSDOF 3
ENDMDL
MODEL 4
REMARK VINA RESULT:      -8.2      1.798      3.817
REMARK  Name = 
REMARK  6 active torsions:
REMARK  status: ('A' for Active; 'I' for Inactive)
REMARK    1  A    between atoms: C_1  and  C_2
REMARK    2  A    between atoms: C_2  and  C_3
REMARK    3  A    between atoms: C_14  and  C_15
REMARK    4  A    between atoms: C_29  and  O_30
REMARK    5  A    between atoms: C_29  and  C_31
REMARK    6  A    between atoms: C_31  and  C_32
REMARK                            x       y       z     vdW  Elec       q    Type
REMARK                         _______ _______ _______ _____ _____    ______ ____
ROOT
ATOM      1  C   UNL     1       0.452  10.102  20.798  0.00  0.00    +0.000 A 
ATOM      2  C   UNL     1       1.127   9.130  20.103  0.00  0.00    +0.000 A 
ATOM      3  C   UNL     1       1.892   9.419  18.980  0.00  0.00    +0.000 A 
ATOM      4  N   UNL     1       1.924  10.634  18.396  0.00  0.00    +0.000 NA
ATOM      5  C   UNL     1       1.133  11.596  18.971  0.00  0.00    +0.000 A 
ATOM      6  C   UNL     1       0.784  12.776  18.277  0.00  0.00    +0.000 A 
ATOM      7  C   UNL     1      -0.316  13.576  18.665  0.00  0.00    +0.000 A 
ATOM      8  C   UNL     1      -0.877  13.299  19.885  0.00  0.00    +0.000 A 
ATOM      9  C   UNL     1      -0.244  12.449  20.777  0.00  0.00    +0.000 A 
ATOM     10  C   UNL     1       0.493  11.404  20.242  0.00  0.00    +0.000 A 
ATOM     11  C   UNL     1      -1.021  12.582  22.033  0.00  0.00    +0.000 C 
ATOM     12  C   UNL     1      -2.325  12.433  21.285  0.00  0.00    +0.000 C 
ATOM     13  C   UNL     1      -3.496  12.315  22.237  0.00  0.00    +0.000 C 
ATOM     14  O   UNL     1      -2.208  13.518  20.299  0.00  0.00    +0.000 OA
ATOM     15  C   UNL     1       2.566   8.147  18.633  0.00  0.00    +0.000 A 
ATOM     16  C   UNL     1       3.489   7.779  17.728  0.00  0.00    +0.000 A 
ATOM     17  C   UNL     1       4.046   6.405  17.790  0.00  0.00    +0.000 A 
ATOM     18  C   UNL     1       3.526   5.494  18.630  0.00  0.00    +0.000 A 
ATOM     19  C   UNL     1       2.395   5.852  19.497  0.00  0.00    +0.000 A 
ATOM     20  O   UNL     1       1.857   5.009  20.216  0.00  0.00    +0.000 OA
ATOM     21  N   UNL     1       2.072   7.167  19.491  0.00  0.00    +0.000 N 
ATOM     22  C   UNL     1       1.095   7.675  20.393  0.00  0.00    +0.000 C 
ATOM     23  C   UNL     1       4.032   4.122  18.853  0.00  0.00    +0.000 C 
ATOM     24  O   UNL     1       5.307   3.863  18.256  0.00  0.00    +0.000 OA
ATOM     25  C   UNL     1       5.801   4.581  17.230  0.00  0.00    +0.000 C 
ATOM     26  O   UNL     1       6.693   4.094  16.536  0.00  0.00    +0.000 OA
ATOM     27  C   UNL     1       5.241   6.013  16.954  0.00  0.00    +0.000 C 
ENDROOT
BRANCH   1  29
ATOM     28  C   UNL     1       0.478   9.548  23.247  0.00  0.00    +0.000 C 
ATOM     29  C   UNL     1      -0.357   9.631  21.980  0.00  0.00    +0.000 C 
ENDBRANCH   1  29
BRANCH  27  30
ATOM     30  O   UNL     1       4.810   6.081  15.584  0.00  0.00    +0.000 OA
ATOM     31  H   UNL     1       3.835   6.074  15.583  0.00  0.00    +0.000 HD
ENDBRANCH  27  30
BRANCH  27  32
ATOM     32  C   UNL     1       6.433   6.995  17.088  0.00  0.00    +0.000 C 
ATOM     33  C   UNL     1       7.425   6.674  18.200  0.00  0.00    +0.000 C 
ENDBRANCH  27  32
TORSDOF 3
ENDMDL
MODEL 5
REMARK VINA RESULT:      -7.3      9.075     11.635
REMARK  Name = 
REMARK  6 active torsions:
REMARK  status: ('A' for Active; 'I' for Inactive)
REMARK    1  A    between atoms: C_1  and  C_2
REMARK    2  A    between atoms: C_2  and  C_3
REMARK    3  A    between atoms: C_14  and  C_15
REMARK    4  A    between atoms: C_29  and  O_30
REMARK    5  A    between atoms: C_29  and  C_31
REMARK    6  A    between atoms: C_31  and  C_32
REMARK                            x       y       z     vdW  Elec       q    Type
REMARK                         _______ _______ _______ _____ _____    ______ ____
ROOT
ATOM      1  C   UNL     1       9.891  14.533  21.163  0.00  0.00    +0.000 A 
ATOM      2  C   UNL     1       8.864  14.229  22.021  0.00  0.00    +0.000 A 
ATOM      3  C   UNL     1       8.551  12.921  22.365  0.00  0.00    +0.000 A 
ATOM      4  N   UNL     1       9.122  11.844  21.789  0.00  0.00    +0.000 NA
ATOM      5  C   UNL     1      10.044  12.107  20.809  0.00  0.00    +0.000 A 
ATOM      6  C   UNL     1      10.442  11.116  19.884  0.00  0.00    +0.000 A 
ATOM      7  C   UNL     1      11.063  11.443  18.656  0.00  0.00    +0.000 A 
ATOM      8  C   UNL     1      11.486  12.738  18.508  0.00  0.00    +0.000 A 
ATOM      9  C   UNL     1      11.520  13.599  19.592  0.00  0.00    +0.000 A 
ATOM     10  C   UNL     1      10.548  13.430  20.566  0.00  0.00    +0.000 A 
ATOM     11  C   UNL     1      12.234  14.800  19.093  0.00  0.00    +0.000 C 
ATOM     12  C   UNL     1      11.391  14.824  17.839  0.00  0.00    +0.000 C 
ATOM     13  C   UNL     1      11.646  16.077  17.029  0.00  0.00    +0.000 C 
ATOM     14  O   UNL     1      11.634  13.473  17.312  0.00  0.00    +0.000 OA
ATOM     15  C   UNL     1       7.508  13.035  23.412  0.00  0.00    +0.000 A 
ATOM     16  C   UNL     1       6.862  12.163  24.206  0.00  0.00    +0.000 A 
ATOM     17  C   UNL     1       5.970  12.689  25.269  0.00  0.00    +0.000 A 
ATOM     18  C   UNL     1       5.686  14.000  25.337  0.00  0.00    +0.000 A 
ATOM     19  C   UNL     1       6.259  14.930  24.354  0.00  0.00    +0.000 A 
ATOM     20  O   UNL     1       5.949  16.122  24.354  0.00  0.00    +0.000 OA
ATOM     21  N   UNL     1       7.189  14.385  23.534  0.00  0.00    +0.000 N 
ATOM     22  C   UNL     1       7.929  15.204  22.635  0.00  0.00    +0.000 C 
ATOM     23  C   UNL     1       4.884  14.668  26.386  0.00  0.00    +0.000 C 
ATOM     24  O   UNL     1       4.583  13.836  27.511  0.00  0.00    +0.000 OA
ATOM     25  C   UNL     1       4.601  12.491  27.461  0.00  0.00    +0.000 C 
ATOM     26  O   UNL     1       3.987  11.855  28.317  0.00  0.00    +0.000 OA
ATOM     27  C   UNL     1       5.405  11.774  26.329  0.00  0.00    +0.000 C 
ENDROOT
BRANCH   1  29
ATOM     28  C   UNL     1      11.054  16.653  21.842  0.00  0.00    +0.000 C 
ATOM     29  C   UNL     1      10.093  15.998  20.864  0.00  0.00    +0.000 C 
ENDBRANCH   1  29
BRANCH  27  30
ATOM     30  O   UNL     1       4.523  10.866  25.645  0.00  0.00    +0.000 OA
ATOM     31  H   UNL     1       4.880  10.731  24.748  0.00  0.00    +0.000 HD
ENDBRANCH  27  30
BRANCH  27  32
ATOM     32  C   UNL     1       6.480  10.902  27.026  0.00  0.00    +0.000 C 
ATOM     33  C   UNL     1       7.226  11.573  28.174  0.00  0.00    +0.000 C 
ENDBRANCH  27  32
TORSDOF 3
ENDMDL
MODEL 6
REMARK VINA RESULT:      -6.7      7.052      9.057
REMARK  Name = 
REMARK  6 active torsions:
REMARK  status: ('A' for Active; 'I' for Inactive)
REMARK    1  A    between atoms: C_1  and  C_2
REMARK    2  A    between atoms: C_2  and  C_3
REMARK    3  A    between atoms: C_14  and  C_15
REMARK    4  A    between atoms: C_29  and  O_30
REMARK    5  A    between atoms: C_29  and  C_31
REMARK    6  A    between atoms: C_31  and  C_32
REMARK                            x       y       z     vdW  Elec       q    Type
REMARK                         _______ _______ _______ _____ _____    ______ ____
ROOT
ATOM      1  C   UNL     1       3.294  14.762  19.446  0.00  0.00    +0.000 A 
ATOM      2  C   UNL     1       2.094  14.187  19.780  0.00  0.00    +0.000 A 
ATOM      3  C   UNL     1       1.658  14.094  21.095  0.00  0.00    +0.000 A 
ATOM      4  N   UNL     1       2.422  14.423  22.155  0.00  0.00    +0.000 NA
ATOM      5  C   UNL     1       3.692  14.853  21.868  0.00  0.00    +0.000 A 
ATOM      6  C   UNL     1       4.704  14.879  22.854  0.00  0.00    +0.000 A 
ATOM      7  C   UNL     1       6.077  14.931  22.518  0.00  0.00    +0.000 A 
ATOM      8  C   UNL     1       6.379  15.205  21.209  0.00  0.00    +0.000 A 
ATOM      9  C   UNL     1       5.398  15.644  20.335  0.00  0.00    +0.000 A 
ATOM     10  C   UNL     1       4.113  15.161  20.530  0.00  0.00    +0.000 A 
ATOM     11  C   UNL     1       6.139  16.043  19.114  0.00  0.00    +0.000 C 
ATOM     12  C   UNL     1       6.940  14.762  19.137  0.00  0.00    +0.000 C 
ATOM     13  C   UNL     1       7.777  14.614  17.885  0.00  0.00    +0.000 C 
ATOM     14  O   UNL     1       7.527  14.822  20.484  0.00  0.00    +0.000 OA
ATOM     15  C   UNL     1       0.276  13.566  21.008  0.00  0.00    +0.000 A 
ATOM     16  C   UNL     1      -0.708  13.335  21.894  0.00  0.00    +0.000 A 
ATOM     17  C   UNL     1      -2.045  12.934  21.391  0.00  0.00    +0.000 A 
ATOM     18  C   UNL     1      -2.230  12.652  20.091  0.00  0.00    +0.000 A 
ATOM     19  C   UNL     1      -1.103  12.736  19.151  0.00  0.00    +0.000 A 
ATOM     20  O   UNL     1      -1.236  12.406  17.972  0.00  0.00    +0.000 OA
ATOM     21  N   UNL     1       0.027  13.271  19.670  0.00  0.00    +0.000 N 
ATOM     22  C   UNL     1       1.146  13.546  18.834  0.00  0.00    +0.000 C 
ATOM     23  C   UNL     1      -3.518  12.322  19.442  0.00  0.00    +0.000 C 
ATOM     24  O   UNL     1      -4.664  12.539  20.272  0.00  0.00    +0.000 OA
ATOM     25  C   UNL     1      -4.605  12.588  21.616  0.00  0.00    +0.000 C 
ATOM     26  O   UNL     1      -5.633  12.403  22.265  0.00  0.00    +0.000 OA
ATOM     27  C   UNL     1      -3.240  12.888  22.314  0.00  0.00    +0.000 C 
ENDROOT
BRANCH   1  29
ATOM     28  C   UNL     1       3.225  16.057  17.296  0.00  0.00    +0.000 C 
ATOM     29  C   UNL     1       3.643  14.766  17.979  0.00  0.00    +0.000 C 
ENDBRANCH   1  29
BRANCH  27  30
ATOM     30  O   UNL     1      -2.971  11.841  23.263  0.00  0.00    +0.000 OA
ATOM     31  H   UNL     1      -3.570  11.972  24.021  0.00  0.00    +0.000 HD
ENDBRANCH  27  30
BRANCH  27  32
ATOM     32  C   UNL     1      -3.432  14.188  23.137  0.00  0.00    +0.000 C 
ATOM     33  C   UNL     1      -3.456  14.007  24.650  0.00  0.00    +0.000 C 
ENDBRANCH  27  32
TORSDOF 3
ENDMDL
MODEL 7
REMARK VINA RESULT:      -6.6      8.682     10.777
REMARK  Name = 
REMARK  6 active torsions:
REMARK  status: ('A' for Active; 'I' for Inactive)
REMARK    1  A    between atoms: C_1  and  C_2
REMARK    2  A    between atoms: C_2  and  C_3
REMARK    3  A    between atoms: C_14  and  C_15
REMARK    4  A    between atoms: C_29  and  O_30
REMARK    5  A    between atoms: C_29  and  C_31
REMARK    6  A    between atoms: C_31  and  C_32
REMARK                            x       y       z     vdW  Elec       q    Type
REMARK                         _______ _______ _______ _____ _____    ______ ____
ROOT
ATOM      1  C   UNL     1       7.489  13.214  24.717  0.00  0.00    +0.000 A 
ATOM      2  C   UNL     1       7.968  13.154  23.432  0.00  0.00    +0.000 A 
ATOM      3  C   UNL     1       8.169  14.293  22.663  0.00  0.00    +0.000 A 
ATOM      4  N   UNL     1       7.784  15.526  23.048  0.00  0.00    +0.000 NA
ATOM      5  C   UNL     1       7.154  15.605  24.264  0.00  0.00    +0.000 A 
ATOM      6  C   UNL     1       6.385  16.734  24.626  0.00  0.00    +0.000 A 
ATOM      7  C   UNL     1       5.426  16.686  25.664  0.00  0.00    +0.000 A 
ATOM      8  C   UNL     1       5.445  15.576  26.468  0.00  0.00    +0.000 A 
ATOM      9  C   UNL     1       6.501  14.680  26.411  0.00  0.00    +0.000 A 
ATOM     10  C   UNL     1       7.110  14.498  25.178  0.00  0.00    +0.000 A 
ATOM     11  C   UNL     1       6.280  13.768  27.558  0.00  0.00    +0.000 C 
ATOM     12  C   UNL     1       4.823  13.602  27.192  0.00  0.00    +0.000 C 
ATOM     13  C   UNL     1       4.161  12.534  28.037  0.00  0.00    +0.000 C 
ATOM     14  O   UNL     1       4.374  15.003  27.185  0.00  0.00    +0.000 OA
ATOM     15  C   UNL     1       8.830  13.814  21.427  0.00  0.00    +0.000 A 
ATOM     16  C   UNL     1       9.359  14.408  20.344  0.00  0.00    +0.000 A 
ATOM     17  C   UNL     1      10.092  13.576  19.358  0.00  0.00    +0.000 A 
ATOM     18  C   UNL     1      10.093  12.237  19.459  0.00  0.00    +0.000 A 
ATOM     19  C   UNL     1       9.362  11.580  20.552  0.00  0.00    +0.000 A 
ATOM     20  O   UNL     1       9.288  10.352  20.615  0.00  0.00    +0.000 OA
ATOM     21  N   UNL     1       8.871  12.423  21.491  0.00  0.00    +0.000 N 
ATOM     22  C   UNL     1       8.271  11.913  22.677  0.00  0.00    +0.000 C 
ATOM     23  C   UNL     1      10.844  11.295  18.600  0.00  0.00    +0.000 C 
ATOM     24  O   UNL     1      11.798  11.923  17.737  0.00  0.00    +0.000 OA
ATOM     25  C   UNL     1      11.730  13.220  17.379  0.00  0.00    +0.000 C 
ATOM     26  O   UNL     1      12.332  13.593  16.374  0.00  0.00    +0.000 OA
ATOM     27  C   UNL     1      10.899  14.214  18.252  0.00  0.00    +0.000 C 
ENDROOT
BRANCH   1  29
ATOM     28  C   UNL     1       6.014  11.201  24.991  0.00  0.00    +0.000 C 
ATOM     29  C   UNL     1       7.299  11.891  25.417  0.00  0.00    +0.000 C 
ENDBRANCH   1  29
BRANCH  27  30
ATOM     30  O   UNL     1       9.952  14.888  17.404  0.00  0.00    +0.000 OA
ATOM     31  H   UNL     1       9.188  15.135  17.956  0.00  0.00    +0.000 HD
ENDBRANCH  27  30
BRANCH  27  32
ATOM     32  C   UNL     1      11.885  15.299  18.757  0.00  0.00    +0.000 C 
ATOM     33  C   UNL     1      11.596  16.719  18.281  0.00  0.00    +0.000 C 
ENDBRANCH  27  32
TORSDOF 3
ENDMDL
MODEL 8
REMARK VINA RESULT:      -6.6      1.565      8.385
REMARK  Name = 
REMARK  6 active torsions:
REMARK  status: ('A' for Active; 'I' for Inactive)
REMARK    1  A    between atoms: C_1  and  C_2
REMARK    2  A    between atoms: C_2  and  C_3
REMARK    3  A    between atoms: C_14  and  C_15
REMARK    4  A    between atoms: C_29  and  O_30
REMARK    5  A    between atoms: C_29  and  C_31
REMARK    6  A    between atoms: C_31  and  C_32
REMARK                            x       y       z     vdW  Elec       q    Type
REMARK                         _______ _______ _______ _____ _____    ______ ____
ROOT
ATOM      1  C   UNL     1       3.355   6.097  18.837  0.00  0.00    +0.000 A 
ATOM      2  C   UNL     1       2.621   7.255  18.906  0.00  0.00    +0.000 A 
ATOM      3  C   UNL     1       1.577   7.415  19.807  0.00  0.00    +0.000 A 
ATOM      4  N   UNL     1       1.104   6.418  20.582  0.00  0.00    +0.000 NA
ATOM      5  C   UNL     1       1.710   5.198  20.424  0.00  0.00    +0.000 A 
ATOM      6  C   UNL     1       1.102   4.006  20.878  0.00  0.00    +0.000 A 
ATOM      7  C   UNL     1       1.490   2.735  20.395  0.00  0.00    +0.000 A 
ATOM      8  C   UNL     1       2.644   2.685  19.656  0.00  0.00    +0.000 A 
ATOM      9  C   UNL     1       3.496   3.776  19.602  0.00  0.00    +0.000 A 
ATOM     10  C   UNL     1       2.918   5.035  19.665  0.00  0.00    +0.000 A 
ATOM     11  C   UNL     1       4.709   3.269  18.917  0.00  0.00    +0.000 C 
ATOM     12  C   UNL     1       3.872   2.615  17.842  0.00  0.00    +0.000 C 
ATOM     13  C   UNL     1       4.737   2.075  16.723  0.00  0.00    +0.000 C 
ATOM     14  O   UNL     1       2.994   1.758  18.652  0.00  0.00    +0.000 OA
ATOM     15  C   UNL     1       1.162   8.831  19.671  0.00  0.00    +0.000 A 
ATOM     16  C   UNL     1       0.286   9.628  20.307  0.00  0.00    +0.000 A 
ATOM     17  C   UNL     1       0.262  11.074  19.976  0.00  0.00    +0.000 A 
ATOM     18  C   UNL     1       0.986  11.552  18.950  0.00  0.00    +0.000 A 
ATOM     19  C   UNL     1       1.810  10.643  18.142  0.00  0.00    +0.000 A 
ATOM     20  O   UNL     1       2.418  11.050  17.152  0.00  0.00    +0.000 OA
ATOM     21  N   UNL     1       1.899   9.381  18.625  0.00  0.00    +0.000 N 
ATOM     22  C   UNL     1       2.780   8.438  18.025  0.00  0.00    +0.000 C 
ATOM     23  C   UNL     1       1.119  12.974  18.562  0.00  0.00    +0.000 C 
ATOM     24  O   UNL     1       0.581  13.895  19.517  0.00  0.00    +0.000 OA
ATOM     25  C   UNL     1      -0.346  13.553  20.431  0.00  0.00    +0.000 C 
ATOM     26  O   UNL     1      -1.023  14.438  20.953  0.00  0.00    +0.000 OA
ATOM     27  C   UNL     1      -0.530  12.049  20.814  0.00  0.00    +0.000 C 
ENDROOT
BRANCH   1  29
ATOM     28  C   UNL     1       5.816   6.306  18.385  0.00  0.00    +0.000 C 
ATOM     29  C   UNL     1       4.440   6.062  17.789  0.00  0.00    +0.000 C 
ENDBRANCH   1  29
BRANCH  27  30
ATOM     30  O   UNL     1      -1.913  11.697  20.637  0.00  0.00    +0.000 OA
ATOM     31  H   UNL     1      -1.941  10.866  20.127  0.00  0.00    +0.000 HD
ENDBRANCH  27  30
BRANCH  27  32
ATOM     32  C   UNL     1      -0.238  11.934  22.332  0.00  0.00    +0.000 C 
ATOM     33  C   UNL     1      -1.279  11.169  23.143  0.00  0.00    +0.000 C 
ENDBRANCH  27  32
TORSDOF 3
ENDMDL
MODEL 9
REMARK VINA RESULT:      -6.6      1.704      3.620
REMARK  Name = 
REMARK  6 active torsions:
REMARK  status: ('A' for Active; 'I' for Inactive)
REMARK    1  A    between atoms: C_1  and  C_2
REMARK    2  A    between atoms: C_2  and  C_3
REMARK    3  A    between atoms: C_14  and  C_15
REMARK    4  A    between atoms: C_29  and  O_30
REMARK    5  A    between atoms: C_29  and  C_31
REMARK    6  A    between atoms: C_31  and  C_32
REMARK                            x       y       z     vdW  Elec       q    Type
REMARK                         _______ _______ _______ _____ _____    ______ ____
ROOT
ATOM      1  C   UNL     1       0.623   9.985  21.305  0.00  0.00    +0.000 A 
ATOM      2  C   UNL     1       1.176   8.904  20.664  0.00  0.00    +0.000 A 
ATOM      3  C   UNL     1       1.546   8.947  19.327  0.00  0.00    +0.000 A 
ATOM      4  N   UNL     1       1.270   9.985  18.512  0.00  0.00    +0.000 NA
ATOM      5  C   UNL     1       0.574  11.022  19.079  0.00  0.00    +0.000 A 
ATOM      6  C   UNL     1      -0.093  11.984  18.287  0.00  0.00    +0.000 A 
ATOM      7  C   UNL     1      -1.118  12.806  18.811  0.00  0.00    +0.000 A 
ATOM      8  C   UNL     1      -1.268  12.807  20.174  0.00  0.00    +0.000 A 
ATOM      9  C   UNL     1      -0.312  12.226  20.991  0.00  0.00    +0.000 A 
ATOM     10  C   UNL     1       0.354  11.115  20.495  0.00  0.00    +0.000 A 
ATOM     11  C   UNL     1      -0.703  12.623  22.365  0.00  0.00    +0.000 C 
ATOM     12  C   UNL     1      -2.142  12.243  22.104  0.00  0.00    +0.000 C 
ATOM     13  C   UNL     1      -2.967  12.308  23.371  0.00  0.00    +0.000 C 
ATOM     14  O   UNL     1      -2.439  13.062  20.919  0.00  0.00    +0.000 OA
ATOM     15  C   UNL     1       2.232   7.659  19.074  0.00  0.00    +0.000 A 
ATOM     16  C   UNL     1       2.891   7.124  18.031  0.00  0.00    +0.000 A 
ATOM     17  C   UNL     1       3.594   5.830  18.215  0.00  0.00    +0.000 A 
ATOM     18  C   UNL     1       3.446   5.127  19.351  0.00  0.00    +0.000 A 
ATOM     19  C   UNL     1       2.580   5.635  20.424  0.00  0.00    +0.000 A 
ATOM     20  O   UNL     1       2.372   4.968  21.438  0.00  0.00    +0.000 OA
ATOM     21  N   UNL     1       2.121   6.895  20.233  0.00  0.00    +0.000 N 
ATOM     22  C   UNL     1       1.394   7.562  21.259  0.00  0.00    +0.000 C 
ATOM     23  C   UNL     1       4.148   3.873  19.700  0.00  0.00    +0.000 C 
ATOM     24  O   UNL     1       5.217   3.533  18.811  0.00  0.00    +0.000 OA
ATOM     25  C   UNL     1       5.310   4.003  17.553  0.00  0.00    +0.000 C 
ATOM     26  O   UNL     1       6.013   3.402  16.742  0.00  0.00    +0.000 OA
ATOM     27  C   UNL     1       4.535   5.301  17.159  0.00  0.00    +0.000 C 
ENDROOT
BRANCH   1  29
ATOM     28  C   UNL     1      -1.000   8.926  22.901  0.00  0.00    +0.000 C 
ATOM     29  C   UNL     1       0.248   9.778  22.751  0.00  0.00    +0.000 C 
ENDBRANCH   1  29
BRANCH  27  30
ATOM     30  O   UNL     1       3.722   5.017  16.007  0.00  0.00    +0.000 OA
ATOM     31  H   UNL     1       3.900   4.096  15.742  0.00  0.00    +0.000 HD
ENDBRANCH  27  30
BRANCH  27  32
ATOM     32  C   UNL     1       5.594   6.336  16.704  0.00  0.00    +0.000 C 
ATOM     33  C   UNL     1       5.593   6.664  15.215  0.00  0.00    +0.000 C 
ENDBRANCH  27  32
TORSDOF 3
ENDMDL
