MODEL 1
REMARK VINA RESULT:      -7.7      0.000      0.000
REMARK  Name = 
REMARK  8 active torsions:
REMARK  status: ('A' for Active; 'I' for Inactive)
REMARK    1  A    between atoms: C_1  and  N_2
REMARK    2  A    between atoms: N_2  and  C_3
REMARK    3  A    between atoms: N_2  and  S_9
REMARK    4  A    between atoms: S_9  and  C_12
REMARK    5  A    between atoms: C_15  and  N_16
REMARK    6  A    between atoms: N_16  and  C_17
REMARK    7  A    between atoms: C_17  and  N_19
REMARK    8  A    between atoms: C_20  and  C_22
REMARK                            x       y       z     vdW  Elec       q    Type
REMARK                         _______ _______ _______ _____ _____    ______ ____
ROOT
ATOM      1  C   UNL     1       2.193   7.160  19.250  0.00  0.00    +0.000 A 
ATOM      2  C   UNL     1       2.191   8.006  18.138  0.00  0.00    +0.000 A 
ATOM      3  C   UNL     1       1.658   9.304  18.254  0.00  0.00    +0.000 A 
ATOM      4  C   UNL     1       1.088   9.748  19.459  0.00  0.00    +0.000 A 
ATOM      5  C   UNL     1       1.166   8.912  20.571  0.00  0.00    +0.000 A 
ATOM      6  C   UNL     1       1.703   7.624  20.473  0.00  0.00    +0.000 A 
ENDROOT
BRANCH   1   7
ATOM      7  S   UNL     1       2.694   5.448  19.110  0.00  0.00    +0.000 S 
ATOM      8  O   UNL     1       1.848   4.858  18.091  0.00  0.00    +0.000 OA
ATOM      9  O   UNL     1       2.758   4.892  20.445  0.00  0.00    +0.000 OA
BRANCH   7  11
ATOM     10  C   UNL     1       5.250   4.656  19.243  0.00  0.00    +0.000 C 
ATOM     11  N   UNL     1       4.299   5.513  18.517  0.00  0.00    +0.000 NA
BRANCH  11  12
ATOM     12  C   UNL     1       4.445   5.604  17.015  0.00  0.00    +0.000 C 
ATOM     13  C   UNL     1       5.481   6.662  16.602  0.00  0.00    +0.000 C 
ATOM     14  C   UNL     1       6.911   6.144  16.472  0.00  0.00    +0.000 C 
ATOM     15  C   UNL     1       6.987   4.935  15.557  0.00  0.00    +0.000 C 
ATOM     16  C   UNL     1       6.068   3.817  16.037  0.00  0.00    +0.000 C 
ATOM     17  C   UNL     1       4.627   4.276  16.262  0.00  0.00    +0.000 C 
ENDBRANCH  11  12
ENDBRANCH   7  11
ENDBRANCH   1   7
BRANCH   4  18
ATOM     18  N   UNL     1       0.473  11.027  19.478  0.00  0.00    +0.000 N 
ATOM     19  H   UNL     1      -0.341  11.119  18.875  0.00  0.00    +0.000 HD
BRANCH  18  20
ATOM     20  C   UNL     1       0.680  12.108  20.313  0.00  0.00    +0.000 C 
ATOM     21  S   UNL     1       2.056  13.037  20.536  0.00  0.00    +0.000 S 
BRANCH  20  22
ATOM     22  N   UNL     1      -0.382  12.436  21.141  0.00  0.00    +0.000 N 
ATOM     23  C   UNL     1      -0.736  11.926  22.386  0.00  0.00    +0.000 C 
ATOM     24  O   UNL     1      -0.181  10.932  22.847  0.00  0.00    +0.000 OA
ATOM     25  H   UNL     1      -0.912  13.237  20.819  0.00  0.00    +0.000 HD
BRANCH  23  26
ATOM     26  C   UNL     1      -1.778  12.651  23.100  0.00  0.00    +0.000 A 
ATOM     27  C   UNL     1      -3.027  12.164  23.441  0.00  0.00    +0.000 A 
ATOM     28  C   UNL     1      -3.776  13.076  24.238  0.00  0.00    +0.000 A 
ATOM     29  C   UNL     1      -3.088  14.247  24.460  0.00  0.00    +0.000 A 
ATOM     30  S   UNL     1      -1.563  14.250  23.685  0.00  0.00    +0.000 S 
ENDBRANCH  23  26
ENDBRANCH  20  22
ENDBRANCH  18  20
ENDBRANCH   4  18
TORSDOF 7
ENDMDL
MODEL 2
REMARK VINA RESULT:      -7.6      2.808      3.451
REMARK  Name = 
REMARK  8 active torsions:
REMARK  status: ('A' for Active; 'I' for Inactive)
REMARK    1  A    between atoms: C_1  and  N_2
REMARK    2  A    between atoms: N_2  and  C_3
REMARK    3  A    between atoms: N_2  and  S_9
REMARK    4  A    between atoms: S_9  and  C_12
REMARK    5  A    between atoms: C_15  and  N_16
REMARK    6  A    between atoms: N_16  and  C_17
REMARK    7  A    between atoms: C_17  and  N_19
REMARK    8  A    between atoms: C_20  and  C_22
REMARK                            x       y       z     vdW  Elec       q    Type
REMARK                         _______ _______ _______ _____ _____    ______ ____
ROOT
ATOM      1  C   UNL     1       2.088   6.452  19.248  0.00  0.00    +0.000 A 
ATOM      2  C   UNL     1       2.111   7.484  18.306  0.00  0.00    +0.000 A 
ATOM      3  C   UNL     1       1.746   8.787  18.695  0.00  0.00    +0.000 A 
ATOM      4  C   UNL     1       1.318   9.058  20.005  0.00  0.00    +0.000 A 
ATOM      5  C   UNL     1       1.372   8.028  20.942  0.00  0.00    +0.000 A 
ATOM      6  C   UNL     1       1.743   6.732  20.572  0.00  0.00    +0.000 A 
ENDROOT
BRANCH   1   7
ATOM      7  S   UNL     1       2.371   4.752  18.766  0.00  0.00    +0.000 S 
ATOM      8  O   UNL     1       1.702   4.573  17.492  0.00  0.00    +0.000 OA
ATOM      9  O   UNL     1       2.058   3.910  19.901  0.00  0.00    +0.000 OA
BRANCH   7  11
ATOM     10  C   UNL     1       4.720   3.562  19.260  0.00  0.00    +0.000 C 
ATOM     11  N   UNL     1       4.062   4.647  18.515  0.00  0.00    +0.000 NA
BRANCH  11  12
ATOM     12  C   UNL     1       4.538   4.918  17.106  0.00  0.00    +0.000 C 
ATOM     13  C   UNL     1       4.790   6.415  16.864  0.00  0.00    +0.000 C 
ATOM     14  C   UNL     1       6.208   6.887  17.181  0.00  0.00    +0.000 C 
ATOM     15  C   UNL     1       7.250   6.046  16.465  0.00  0.00    +0.000 C 
ATOM     16  C   UNL     1       7.102   4.568  16.810  0.00  0.00    +0.000 C 
ATOM     17  C   UNL     1       5.685   4.035  16.589  0.00  0.00    +0.000 C 
ENDBRANCH  11  12
ENDBRANCH   7  11
ENDBRANCH   1   7
BRANCH   4  18
ATOM     18  N   UNL     1       0.863  10.369  20.303  0.00  0.00    +0.000 N 
ATOM     19  H   UNL     1       1.448  11.118  19.939  0.00  0.00    +0.000 HD
BRANCH  18  20
ATOM     20  C   UNL     1      -0.334  10.802  20.840  0.00  0.00    +0.000 C 
ATOM     21  S   UNL     1      -0.762  11.038  22.443  0.00  0.00    +0.000 S 
BRANCH  20  22
ATOM     22  N   UNL     1      -1.358  11.009  19.930  0.00  0.00    +0.000 N 
ATOM     23  C   UNL     1      -1.371  11.744  18.749  0.00  0.00    +0.000 C 
ATOM     24  O   UNL     1      -0.434  12.480  18.448  0.00  0.00    +0.000 OA
ATOM     25  H   UNL     1      -2.184  10.453  20.120  0.00  0.00    +0.000 HD
BRANCH  23  26
ATOM     26  C   UNL     1      -2.540  11.568  17.900  0.00  0.00    +0.000 A 
ATOM     27  C   UNL     1      -2.538  11.166  16.575  0.00  0.00    +0.000 A 
ATOM     28  C   UNL     1      -3.849  10.975  16.054  0.00  0.00    +0.000 A 
ATOM     29  C   UNL     1      -4.818  11.264  16.987  0.00  0.00    +0.000 A 
ATOM     30  S   UNL     1      -4.144  11.789  18.469  0.00  0.00    +0.000 S 
ENDBRANCH  23  26
ENDBRANCH  20  22
ENDBRANCH  18  20
ENDBRANCH   4  18
TORSDOF 7
ENDMDL
MODEL 3
REMARK VINA RESULT:      -7.6      2.784      3.096
REMARK  Name = 
REMARK  8 active torsions:
REMARK  status: ('A' for Active; 'I' for Inactive)
REMARK    1  A    between atoms: C_1  and  N_2
REMARK    2  A    between atoms: N_2  and  C_3
REMARK    3  A    between atoms: N_2  and  S_9
REMARK    4  A    between atoms: S_9  and  C_12
REMARK    5  A    between atoms: C_15  and  N_16
REMARK    6  A    between atoms: N_16  and  C_17
REMARK    7  A    between atoms: C_17  and  N_19
REMARK    8  A    between atoms: C_20  and  C_22
REMARK                            x       y       z     vdW  Elec       q    Type
REMARK                         _______ _______ _______ _____ _____    ______ ____
ROOT
ATOM      1  C   UNL     1       2.202   6.919  19.358  0.00  0.00    +0.000 A 
ATOM      2  C   UNL     1       2.178   7.884  18.348  0.00  0.00    +0.000 A 
ATOM      3  C   UNL     1       1.650   9.161  18.620  0.00  0.00    +0.000 A 
ATOM      4  C   UNL     1       1.107   9.466  19.879  0.00  0.00    +0.000 A 
ATOM      5  C   UNL     1       1.208   8.511  20.889  0.00  0.00    +0.000 A 
ATOM      6  C   UNL     1       1.740   7.243  20.636  0.00  0.00    +0.000 A 
ENDROOT
BRANCH   1   7
ATOM      7  S   UNL     1       2.698   5.233  19.017  0.00  0.00    +0.000 S 
ATOM      8  O   UNL     1       1.863   4.778  17.922  0.00  0.00    +0.000 OA
ATOM      9  O   UNL     1       2.739   4.518  20.274  0.00  0.00    +0.000 OA
BRANCH   7  11
ATOM     10  C   UNL     1       5.266   4.485  19.158  0.00  0.00    +0.000 C 
ATOM     11  N   UNL     1       4.311   5.360  18.459  0.00  0.00    +0.000 NA
BRANCH  11  12
ATOM     12  C   UNL     1       4.483   5.532  16.967  0.00  0.00    +0.000 C 
ATOM     13  C   UNL     1       5.504   6.629  16.628  0.00  0.00    +0.000 C 
ATOM     14  C   UNL     1       6.947   6.145  16.499  0.00  0.00    +0.000 C 
ATOM     15  C   UNL     1       7.063   4.987  15.524  0.00  0.00    +0.000 C 
ATOM     16  C   UNL     1       6.158   3.829  15.929  0.00  0.00    +0.000 C 
ATOM     17  C   UNL     1       4.704   4.248  16.150  0.00  0.00    +0.000 C 
ENDBRANCH  11  12
ENDBRANCH   7  11
ENDBRANCH   1   7
BRANCH   4  18
ATOM     18  N   UNL     1       0.495  10.735  20.055  0.00  0.00    +0.000 N 
ATOM     19  H   UNL     1       0.284  10.978  21.019  0.00  0.00    +0.000 HD
BRANCH  18  20
ATOM     20  C   UNL     1       0.308  11.770  19.159  0.00  0.00    +0.000 C 
ATOM     21  S   UNL     1       1.417  12.866  18.547  0.00  0.00    +0.000 S 
BRANCH  20  22
ATOM     22  N   UNL     1      -1.001  11.983  18.757  0.00  0.00    +0.000 N 
ATOM     23  C   UNL     1      -1.864  11.156  18.044  0.00  0.00    +0.000 C 
ATOM     24  O   UNL     1      -1.462  10.121  17.517  0.00  0.00    +0.000 OA
ATOM     25  H   UNL     1      -1.405  12.834  19.131  0.00  0.00    +0.000 HD
BRANCH  23  26
ATOM     26  C   UNL     1      -3.255  11.583  17.986  0.00  0.00    +0.000 A 
ATOM     27  C   UNL     1      -4.091  11.502  16.886  0.00  0.00    +0.000 A 
ATOM     28  C   UNL     1      -5.428  11.894  17.179  0.00  0.00    +0.000 A 
ATOM     29  C   UNL     1      -5.570  12.291  18.489  0.00  0.00    +0.000 A 
ATOM     30  S   UNL     1      -4.091  12.216  19.345  0.00  0.00    +0.000 S 
ENDBRANCH  23  26
ENDBRANCH  20  22
ENDBRANCH  18  20
ENDBRANCH   4  18
TORSDOF 7
ENDMDL
MODEL 4
REMARK VINA RESULT:      -7.5      2.727      3.510
REMARK  Name = 
REMARK  8 active torsions:
REMARK  status: ('A' for Active; 'I' for Inactive)
REMARK    1  A    between atoms: C_1  and  N_2
REMARK    2  A    between atoms: N_2  and  C_3
REMARK    3  A    between atoms: N_2  and  S_9
REMARK    4  A    between atoms: S_9  and  C_12
REMARK    5  A    between atoms: C_15  and  N_16
REMARK    6  A    between atoms: N_16  and  C_17
REMARK    7  A    between atoms: C_17  and  N_19
REMARK    8  A    between atoms: C_20  and  C_22
REMARK                            x       y       z     vdW  Elec       q    Type
REMARK                         _______ _______ _______ _____ _____    ______ ____
ROOT
ATOM      1  C   UNL     1       2.062   6.835  19.438  0.00  0.00    +0.000 A 
ATOM      2  C   UNL     1       1.618   7.151  20.725  0.00  0.00    +0.000 A 
ATOM      3  C   UNL     1       1.178   8.458  21.006  0.00  0.00    +0.000 A 
ATOM      4  C   UNL     1       1.219   9.463  20.024  0.00  0.00    +0.000 A 
ATOM      5  C   UNL     1       1.598   9.105  18.732  0.00  0.00    +0.000 A 
ATOM      6  C   UNL     1       2.027   7.807  18.437  0.00  0.00    +0.000 A 
ENDROOT
BRANCH   1   7
ATOM      7  S   UNL     1       2.795   5.243  19.076  0.00  0.00    +0.000 S 
ATOM      8  O   UNL     1       2.020   4.676  17.989  0.00  0.00    +0.000 OA
ATOM      9  O   UNL     1       2.960   4.534  20.326  0.00  0.00    +0.000 OA
BRANCH   7  11
ATOM     10  C   UNL     1       5.455   5.003  19.275  0.00  0.00    +0.000 C 
ATOM     11  N   UNL     1       4.364   5.609  18.496  0.00  0.00    +0.000 NA
BRANCH  11  12
ATOM     12  C   UNL     1       4.518   5.655  16.993  0.00  0.00    +0.000 C 
ATOM     13  C   UNL     1       5.548   6.709  16.554  0.00  0.00    +0.000 C 
ATOM     14  C   UNL     1       6.983   6.198  16.448  0.00  0.00    +0.000 C 
ATOM     15  C   UNL     1       7.074   4.962  15.571  0.00  0.00    +0.000 C 
ATOM     16  C   UNL     1       6.161   3.852  16.079  0.00  0.00    +0.000 C 
ATOM     17  C   UNL     1       4.714   4.306  16.282  0.00  0.00    +0.000 C 
ENDBRANCH  11  12
ENDBRANCH   7  11
ENDBRANCH   1   7
BRANCH   4  18
ATOM     18  N   UNL     1       0.862  10.783  20.403  0.00  0.00    +0.000 N 
ATOM     19  H   UNL     1       1.552  11.495  20.175  0.00  0.00    +0.000 HD
BRANCH  18  20
ATOM     20  C   UNL     1      -0.340  11.291  20.857  0.00  0.00    +0.000 C 
ATOM     21  S   UNL     1      -0.781  11.771  22.400  0.00  0.00    +0.000 S 
BRANCH  20  22
ATOM     22  N   UNL     1      -1.358  11.352  19.918  0.00  0.00    +0.000 N 
ATOM     23  C   UNL     1      -1.371  11.925  18.650  0.00  0.00    +0.000 C 
ATOM     24  O   UNL     1      -0.448  12.636  18.264  0.00  0.00    +0.000 OA
ATOM     25  H   UNL     1      -2.173  10.806  20.171  0.00  0.00    +0.000 HD
BRANCH  23  26
ATOM     26  C   UNL     1      -2.526  11.610  17.821  0.00  0.00    +0.000 A 
ATOM     27  C   UNL     1      -2.496  11.113  16.529  0.00  0.00    +0.000 A 
ATOM     28  C   UNL     1      -3.792  10.799  16.029  0.00  0.00    +0.000 A 
ATOM     29  C   UNL     1      -4.779  11.092  16.941  0.00  0.00    +0.000 A 
ATOM     30  S   UNL     1      -4.142  11.767  18.378  0.00  0.00    +0.000 S 
ENDBRANCH  23  26
ENDBRANCH  20  22
ENDBRANCH  18  20
ENDBRANCH   4  18
TORSDOF 7
ENDMDL
MODEL 5
REMARK VINA RESULT:      -7.4      2.663      3.358
REMARK  Name = 
REMARK  8 active torsions:
REMARK  status: ('A' for Active; 'I' for Inactive)
REMARK    1  A    between atoms: C_1  and  N_2
REMARK    2  A    between atoms: N_2  and  C_3
REMARK    3  A    between atoms: N_2  and  S_9
REMARK    4  A    between atoms: S_9  and  C_12
REMARK    5  A    between atoms: C_15  and  N_16
REMARK    6  A    between atoms: N_16  and  C_17
REMARK    7  A    between atoms: C_17  and  N_19
REMARK    8  A    between atoms: C_20  and  C_22
REMARK                            x       y       z     vdW  Elec       q    Type
REMARK                         _______ _______ _______ _____ _____    ______ ____
ROOT
ATOM      1  C   UNL     1       2.153   6.622  19.251  0.00  0.00    +0.000 A 
ATOM      2  C   UNL     1       1.701   7.105  20.482  0.00  0.00    +0.000 A 
ATOM      3  C   UNL     1       1.360   8.465  20.612  0.00  0.00    +0.000 A 
ATOM      4  C   UNL     1       1.509   9.354  19.534  0.00  0.00    +0.000 A 
ATOM      5  C   UNL     1       1.894   8.835  18.299  0.00  0.00    +0.000 A 
ATOM      6  C   UNL     1       2.224   7.484  18.154  0.00  0.00    +0.000 A 
ENDROOT
BRANCH   1   7
ATOM      7  S   UNL     1       2.763   4.949  19.081  0.00  0.00    +0.000 S 
ATOM      8  O   UNL     1       1.959   4.325  18.047  0.00  0.00    +0.000 OA
ATOM      9  O   UNL     1       2.859   4.373  20.404  0.00  0.00    +0.000 OA
BRANCH   7  11
ATOM     10  C   UNL     1       5.338   4.209  19.103  0.00  0.00    +0.000 C 
ATOM     11  N   UNL     1       4.362   5.128  18.495  0.00  0.00    +0.000 NA
BRANCH  11  12
ATOM     12  C   UNL     1       4.496   5.412  17.016  0.00  0.00    +0.000 C 
ATOM     13  C   UNL     1       5.491   6.551  16.738  0.00  0.00    +0.000 C 
ATOM     14  C   UNL     1       6.938   6.105  16.542  0.00  0.00    +0.000 C 
ATOM     15  C   UNL     1       7.051   5.024  15.481  0.00  0.00    +0.000 C 
ATOM     16  C   UNL     1       6.176   3.822  15.818  0.00  0.00    +0.000 C 
ATOM     17  C   UNL     1       4.720   4.196  16.102  0.00  0.00    +0.000 C 
ENDBRANCH  11  12
ENDBRANCH   7  11
ENDBRANCH   1   7
BRANCH   4  18
ATOM     18  N   UNL     1       1.250  10.731  19.762  0.00  0.00    +0.000 N 
ATOM     19  H   UNL     1       1.574  11.085  20.659  0.00  0.00    +0.000 HD
BRANCH  18  20
ATOM     20  C   UNL     1       0.802  11.713  18.899  0.00  0.00    +0.000 C 
ATOM     21  S   UNL     1       1.517  13.166  18.472  0.00  0.00    +0.000 S 
BRANCH  20  22
ATOM     22  N   UNL     1      -0.456  11.504  18.357  0.00  0.00    +0.000 N 
ATOM     23  C   UNL     1      -1.708  11.530  18.964  0.00  0.00    +0.000 C 
ATOM     24  O   UNL     1      -1.821  11.593  20.186  0.00  0.00    +0.000 OA
ATOM     25  H   UNL     1      -0.450  11.417  17.348  0.00  0.00    +0.000 HD
BRANCH  23  26
ATOM     26  C   UNL     1      -2.854  11.500  18.065  0.00  0.00    +0.000 A 
ATOM     27  C   UNL     1      -2.833  11.158  16.724  0.00  0.00    +0.000 A 
ATOM     28  C   UNL     1      -4.134  11.111  16.147  0.00  0.00    +0.000 A 
ATOM     29  C   UNL     1      -5.110  11.448  17.056  0.00  0.00    +0.000 A 
ATOM     30  S   UNL     1      -4.453  11.843  18.585  0.00  0.00    +0.000 S 
ENDBRANCH  23  26
ENDBRANCH  20  22
ENDBRANCH  18  20
ENDBRANCH   4  18
TORSDOF 7
ENDMDL
MODEL 6
REMARK VINA RESULT:      -7.3      2.159     10.075
REMARK  Name = 
REMARK  8 active torsions:
REMARK  status: ('A' for Active; 'I' for Inactive)
REMARK    1  A    between atoms: C_1  and  N_2
REMARK    2  A    between atoms: N_2  and  C_3
REMARK    3  A    between atoms: N_2  and  S_9
REMARK    4  A    between atoms: S_9  and  C_12
REMARK    5  A    between atoms: C_15  and  N_16
REMARK    6  A    between atoms: N_16  and  C_17
REMARK    7  A    between atoms: C_17  and  N_19
REMARK    8  A    between atoms: C_20  and  C_22
REMARK                            x       y       z     vdW  Elec       q    Type
REMARK                         _______ _______ _______ _____ _____    ______ ____
ROOT
ATOM      1  C   UNL     1       0.984  10.003  19.466  0.00  0.00    +0.000 A 
ATOM      2  C   UNL     1       0.848   9.462  20.747  0.00  0.00    +0.000 A 
ATOM      3  C   UNL     1       1.363   8.180  21.018  0.00  0.00    +0.000 A 
ATOM      4  C   UNL     1       1.974   7.417  20.008  0.00  0.00    +0.000 A 
ATOM      5  C   UNL     1       2.161   8.007  18.759  0.00  0.00    +0.000 A 
ATOM      6  C   UNL     1       1.664   9.284  18.481  0.00  0.00    +0.000 A 
ENDROOT
BRANCH   1   7
ATOM      7  S   UNL     1       0.195  11.547  19.024  0.00  0.00    +0.000 S 
ATOM      8  O   UNL     1      -1.050  11.195  18.369  0.00  0.00    +0.000 OA
ATOM      9  O   UNL     1       1.179  12.378  18.365  0.00  0.00    +0.000 OA
BRANCH   7  11
ATOM     10  C   UNL     1       0.528  13.570  20.749  0.00  0.00    +0.000 C 
ATOM     11  N   UNL     1      -0.168  12.293  20.522  0.00  0.00    +0.000 NA
BRANCH  11  12
ATOM     12  C   UNL     1      -1.604  12.188  20.982  0.00  0.00    +0.000 C 
ATOM     13  C   UNL     1      -1.705  11.806  22.467  0.00  0.00    +0.000 C 
ATOM     14  C   UNL     1      -1.731  12.988  23.434  0.00  0.00    +0.000 C 
ATOM     15  C   UNL     1      -2.811  13.989  23.064  0.00  0.00    +0.000 C 
ATOM     16  C   UNL     1      -2.639  14.488  21.633  0.00  0.00    +0.000 C 
ATOM     17  C   UNL     1      -2.531  13.357  20.609  0.00  0.00    +0.000 C 
ENDBRANCH  11  12
ENDBRANCH   7  11
ENDBRANCH   1   7
BRANCH   4  18
ATOM     18  N   UNL     1       2.376   6.092  20.320  0.00  0.00    +0.000 N 
ATOM     19  H   UNL     1       2.580   5.927  21.303  0.00  0.00    +0.000 HD
BRANCH  18  20
ATOM     20  C   UNL     1       2.357   4.945  19.550  0.00  0.00    +0.000 C 
ATOM     21  S   UNL     1       1.396   3.581  19.689  0.00  0.00    +0.000 S 
BRANCH  20  22
ATOM     22  N   UNL     1       3.320   4.877  18.555  0.00  0.00    +0.000 N 
ATOM     23  C   UNL     1       4.703   5.017  18.638  0.00  0.00    +0.000 C 
ATOM     24  O   UNL     1       5.242   5.407  19.670  0.00  0.00    +0.000 OA
ATOM     25  H   UNL     1       2.953   4.583  17.658  0.00  0.00    +0.000 HD
BRANCH  23  26
ATOM     26  C   UNL     1       5.452   4.656  17.443  0.00  0.00    +0.000 A 
ATOM     27  C   UNL     1       4.965   3.961  16.350  0.00  0.00    +0.000 A 
ATOM     28  C   UNL     1       5.912   3.866  15.290  0.00  0.00    +0.000 A 
ATOM     29  C   UNL     1       7.106   4.467  15.614  0.00  0.00    +0.000 A 
ATOM     30  S   UNL     1       7.088   5.114  17.197  0.00  0.00    +0.000 S 
ENDBRANCH  23  26
ENDBRANCH  20  22
ENDBRANCH  18  20
ENDBRANCH   4  18
TORSDOF 7
ENDMDL
MODEL 7
REMARK VINA RESULT:      -7.3      2.906      3.184
REMARK  Name = 
REMARK  8 active torsions:
REMARK  status: ('A' for Active; 'I' for Inactive)
REMARK    1  A    between atoms: C_1  and  N_2
REMARK    2  A    between atoms: N_2  and  C_3
REMARK    3  A    between atoms: N_2  and  S_9
REMARK    4  A    between atoms: S_9  and  C_12
REMARK    5  A    between atoms: C_15  and  N_16
REMARK    6  A    between atoms: N_16  and  C_17
REMARK    7  A    between atoms: C_17  and  N_19
REMARK    8  A    between atoms: C_20  and  C_22
REMARK                            x       y       z     vdW  Elec       q    Type
REMARK                         _______ _______ _______ _____ _____    ______ ____
ROOT
ATOM      1  C   UNL     1       2.216   6.728  19.164  0.00  0.00    +0.000 A 
ATOM      2  C   UNL     1       2.236   7.606  18.077  0.00  0.00    +0.000 A 
ATOM      3  C   UNL     1       1.792   8.931  18.245  0.00  0.00    +0.000 A 
ATOM      4  C   UNL     1       1.286   9.373  19.479  0.00  0.00    +0.000 A 
ATOM      5  C   UNL     1       1.341   8.501  20.564  0.00  0.00    +0.000 A 
ATOM      6  C   UNL     1       1.792   7.186  20.413  0.00  0.00    +0.000 A 
ENDROOT
BRANCH   1   7
ATOM      7  S   UNL     1       2.602   4.993  18.961  0.00  0.00    +0.000 S 
ATOM      8  O   UNL     1       2.196   4.640  17.614  0.00  0.00    +0.000 OA
ATOM      9  O   UNL     1       2.081   4.284  20.110  0.00  0.00    +0.000 OA
BRANCH   7  11
ATOM     10  C   UNL     1       4.841   3.574  19.352  0.00  0.00    +0.000 C 
ATOM     11  N   UNL     1       4.310   4.915  19.055  0.00  0.00    +0.000 NA
BRANCH  11  12
ATOM     12  C   UNL     1       5.066   5.762  18.057  0.00  0.00    +0.000 C 
ATOM     13  C   UNL     1       6.559   5.867  18.407  0.00  0.00    +0.000 C 
ATOM     14  C   UNL     1       7.440   4.780  17.794  0.00  0.00    +0.000 C 
ATOM     15  C   UNL     1       7.247   4.686  16.291  0.00  0.00    +0.000 C 
ATOM     16  C   UNL     1       5.786   4.438  15.933  0.00  0.00    +0.000 C 
ATOM     17  C   UNL     1       4.829   5.446  16.571  0.00  0.00    +0.000 C 
ENDBRANCH  11  12
ENDBRANCH   7  11
ENDBRANCH   1   7
BRANCH   4  18
ATOM     18  N   UNL     1       0.755  10.688  19.552  0.00  0.00    +0.000 N 
ATOM     19  H   UNL     1       1.089  11.324  18.832  0.00  0.00    +0.000 HD
BRANCH  18  20
ATOM     20  C   UNL     1      -0.275  11.197  20.319  0.00  0.00    +0.000 C 
ATOM     21  S   UNL     1      -0.390  11.356  21.983  0.00  0.00    +0.000 S 
BRANCH  20  22
ATOM     22  N   UNL     1      -1.413  11.569  19.621  0.00  0.00    +0.000 N 
ATOM     23  C   UNL     1      -2.103  10.902  18.614  0.00  0.00    +0.000 C 
ATOM     24  O   UNL     1      -1.640   9.894  18.085  0.00  0.00    +0.000 OA
ATOM     25  H   UNL     1      -1.849  12.410  19.980  0.00  0.00    +0.000 HD
BRANCH  23  26
ATOM     26  C   UNL     1      -3.399  11.459  18.251  0.00  0.00    +0.000 A 
ATOM     27  C   UNL     1      -3.996  11.398  17.004  0.00  0.00    +0.000 A 
ATOM     28  C   UNL     1      -5.315  11.935  16.997  0.00  0.00    +0.000 A 
ATOM     29  C   UNL     1      -5.678  12.418  18.233  0.00  0.00    +0.000 A 
ATOM     30  S   UNL     1      -4.421  12.248  19.381  0.00  0.00    +0.000 S 
ENDBRANCH  23  26
ENDBRANCH  20  22
ENDBRANCH  18  20
ENDBRANCH   4  18
TORSDOF 7
ENDMDL
MODEL 8
REMARK VINA RESULT:      -7.2      2.703      2.917
REMARK  Name = 
REMARK  8 active torsions:
REMARK  status: ('A' for Active; 'I' for Inactive)
REMARK    1  A    between atoms: C_1  and  N_2
REMARK    2  A    between atoms: N_2  and  C_3
REMARK    3  A    between atoms: N_2  and  S_9
REMARK    4  A    between atoms: S_9  and  C_12
REMARK    5  A    between atoms: C_15  and  N_16
REMARK    6  A    between atoms: N_16  and  C_17
REMARK    7  A    between atoms: C_17  and  N_19
REMARK    8  A    between atoms: C_20  and  C_22
REMARK                            x       y       z     vdW  Elec       q    Type
REMARK                         _______ _______ _______ _____ _____    ______ ____
ROOT
ATOM      1  C   UNL     1       2.182   7.039  19.477  0.00  0.00    +0.000 A 
ATOM      2  C   UNL     1       2.156   8.013  18.476  0.00  0.00    +0.000 A 
ATOM      3  C   UNL     1       1.614   9.282  18.755  0.00  0.00    +0.000 A 
ATOM      4  C   UNL     1       1.059   9.570  20.014  0.00  0.00    +0.000 A 
ATOM      5  C   UNL     1       1.161   8.607  21.015  0.00  0.00    +0.000 A 
ATOM      6  C   UNL     1       1.707   7.347  20.754  0.00  0.00    +0.000 A 
ENDROOT
BRANCH   1   7
ATOM      7  S   UNL     1       2.696   5.361  19.124  0.00  0.00    +0.000 S 
ATOM      8  O   UNL     1       1.856   4.899  18.036  0.00  0.00    +0.000 OA
ATOM      9  O   UNL     1       2.759   4.642  20.378  0.00  0.00    +0.000 OA
BRANCH   7  11
ATOM     10  C   UNL     1       5.282   4.677  19.265  0.00  0.00    +0.000 C 
ATOM     11  N   UNL     1       4.302   5.511  18.550  0.00  0.00    +0.000 NA
BRANCH  11  12
ATOM     12  C   UNL     1       4.458   5.647  17.053  0.00  0.00    +0.000 C 
ATOM     13  C   UNL     1       5.503   6.711  16.679  0.00  0.00    +0.000 C 
ATOM     14  C   UNL     1       6.931   6.188  16.542  0.00  0.00    +0.000 C 
ATOM     15  C   UNL     1       7.005   5.007  15.590  0.00  0.00    +0.000 C 
ATOM     16  C   UNL     1       6.077   3.881  16.030  0.00  0.00    +0.000 C 
ATOM     17  C   UNL     1       4.636   4.341  16.260  0.00  0.00    +0.000 C 
ENDBRANCH  11  12
ENDBRANCH   7  11
ENDBRANCH   1   7
BRANCH   4  18
ATOM     18  N   UNL     1       0.433  10.831  20.196  0.00  0.00    +0.000 N 
ATOM     19  H   UNL     1       0.434  11.175  21.153  0.00  0.00    +0.000 HD
BRANCH  18  20
ATOM     20  C   UNL     1      -0.009  11.755  19.268  0.00  0.00    +0.000 C 
ATOM     21  S   UNL     1       0.809  13.033  18.559  0.00  0.00    +0.000 S 
BRANCH  20  22
ATOM     22  N   UNL     1      -1.346  11.657  18.918  0.00  0.00    +0.000 N 
ATOM     23  C   UNL     1      -2.488  11.983  19.644  0.00  0.00    +0.000 C 
ATOM     24  O   UNL     1      -2.422  12.269  20.837  0.00  0.00    +0.000 OA
ATOM     25  H   UNL     1      -1.491  11.400  17.949  0.00  0.00    +0.000 HD
BRANCH  23  26
ATOM     26  C   UNL     1      -3.740  11.981  18.901  0.00  0.00    +0.000 A 
ATOM     27  C   UNL     1      -4.958  12.462  19.347  0.00  0.00    +0.000 A 
ATOM     28  C   UNL     1      -5.968  12.425  18.343  0.00  0.00    +0.000 A 
ATOM     29  C   UNL     1      -5.499  11.889  17.166  0.00  0.00    +0.000 A 
ATOM     30  S   UNL     1      -3.861  11.411  17.286  0.00  0.00    +0.000 S 
ENDBRANCH  23  26
ENDBRANCH  20  22
ENDBRANCH  18  20
ENDBRANCH   4  18
TORSDOF 7
ENDMDL
MODEL 9
REMARK VINA RESULT:      -7.2      2.200     10.154
REMARK  Name = 
REMARK  8 active torsions:
REMARK  status: ('A' for Active; 'I' for Inactive)
REMARK    1  A    between atoms: C_1  and  N_2
REMARK    2  A    between atoms: N_2  and  C_3
REMARK    3  A    between atoms: N_2  and  S_9
REMARK    4  A    between atoms: S_9  and  C_12
REMARK    5  A    between atoms: C_15  and  N_16
REMARK    6  A    between atoms: N_16  and  C_17
REMARK    7  A    between atoms: C_17  and  N_19
REMARK    8  A    between atoms: C_20  and  C_22
REMARK                            x       y       z     vdW  Elec       q    Type
REMARK                         _______ _______ _______ _____ _____    ______ ____
ROOT
ATOM      1  C   UNL     1       0.890  10.048  19.258  0.00  0.00    +0.000 A 
ATOM      2  C   UNL     1       1.630   9.360  18.293  0.00  0.00    +0.000 A 
ATOM      3  C   UNL     1       2.186   8.105  18.608  0.00  0.00    +0.000 A 
ATOM      4  C   UNL     1       2.046   7.554  19.892  0.00  0.00    +0.000 A 
ATOM      5  C   UNL     1       1.246   8.225  20.814  0.00  0.00    +0.000 A 
ATOM      6  C   UNL     1       0.678   9.467  20.510  0.00  0.00    +0.000 A 
ENDROOT
BRANCH   1   7
ATOM      7  S   UNL     1       0.314  11.717  18.968  0.00  0.00    +0.000 S 
ATOM      8  O   UNL     1      -0.958  11.595  18.282  0.00  0.00    +0.000 OA
ATOM      9  O   UNL     1       1.406  12.471  18.392  0.00  0.00    +0.000 OA
BRANCH   7  11
ATOM     10  C   UNL     1       1.040  13.333  20.978  0.00  0.00    +0.000 C 
ATOM     11  N   UNL     1       0.033  12.357  20.531  0.00  0.00    +0.000 NA
BRANCH  11  12
ATOM     12  C   UNL     1      -1.412  12.632  20.882  0.00  0.00    +0.000 C 
ATOM     13  C   UNL     1      -1.777  12.094  22.275  0.00  0.00    +0.000 C 
ATOM     14  C   UNL     1      -1.558  13.080  23.421  0.00  0.00    +0.000 C 
ATOM     15  C   UNL     1      -2.253  14.404  23.160  0.00  0.00    +0.000 C 
ATOM     16  C   UNL     1      -1.793  15.022  21.844  0.00  0.00    +0.000 C 
ATOM     17  C   UNL     1      -1.912  14.068  20.655  0.00  0.00    +0.000 C 
ENDBRANCH  11  12
ENDBRANCH   7  11
ENDBRANCH   1   7
BRANCH   4  18
ATOM     18  N   UNL     1       2.721   6.337  20.175  0.00  0.00    +0.000 N 
ATOM     19  H   UNL     1       3.129   6.281  21.105  0.00  0.00    +0.000 HD
BRANCH  18  20
ATOM     20  C   UNL     1       2.757   5.148  19.473  0.00  0.00    +0.000 C 
ATOM     21  S   UNL     1       1.900   3.731  19.726  0.00  0.00    +0.000 S 
BRANCH  20  22
ATOM     22  N   UNL     1       3.687   5.088  18.447  0.00  0.00    +0.000 N 
ATOM     23  C   UNL     1       4.941   4.484  18.410  0.00  0.00    +0.000 C 
ATOM     24  O   UNL     1       5.462   4.038  19.429  0.00  0.00    +0.000 OA
ATOM     25  H   UNL     1       3.344   5.460  17.569  0.00  0.00    +0.000 HD
BRANCH  23  26
ATOM     26  C   UNL     1       5.570   4.402  17.100  0.00  0.00    +0.000 A 
ATOM     27  C   UNL     1       4.942   4.087  15.908  0.00  0.00    +0.000 A 
ATOM     28  C   UNL     1       5.805   4.203  14.781  0.00  0.00    +0.000 A 
ATOM     29  C   UNL     1       7.078   4.575  15.147  0.00  0.00    +0.000 A 
ATOM     30  S   UNL     1       7.230   4.754  16.842  0.00  0.00    +0.000 S 
ENDBRANCH  23  26
ENDBRANCH  20  22
ENDBRANCH  18  20
ENDBRANCH   4  18
TORSDOF 7
ENDMDL
