MODEL 1
REMARK VINA RESULT:      -8.2      0.000      0.000
REMARK  Name = 
REMARK  6 active torsions:
REMARK  status: ('A' for Active; 'I' for Inactive)
REMARK    1  A    between atoms: C_1  and  N_2
REMARK    2  A    between atoms: C_7  and  C_8
REMARK    3  A    between atoms: C_10  and  O_11
REMARK    4  A    between atoms: O_11  and  C_12
REMARK    5  A    between atoms: C_15  and  C_16
REMARK    6  A    between atoms: C_24  and  O_25
REMARK                            x       y       z     vdW  Elec       q    Type
REMARK                         _______ _______ _______ _____ _____    ______ ____
ROOT
ATOM      1  C   UNL     1       3.644   5.372  18.769  0.00  0.00    +0.000 A 
ATOM      2  C   UNL     1       4.990   5.675  18.504  0.00  0.00    +0.000 A 
ATOM      3  C   UNL     1       5.706   4.959  17.530  0.00  0.00    +0.000 A 
ATOM      4  C   UNL     1       5.082   3.898  16.866  0.00  0.00    +0.000 A 
ATOM      5  C   UNL     1       3.741   3.609  17.093  0.00  0.00    +0.000 A 
ATOM      6  C   UNL     1       3.025   4.338  18.041  0.00  0.00    +0.000 A 
ATOM      7 BR   UNL     1       1.201   3.862  18.307  0.00  0.00    +0.000 Br
ENDROOT
BRANCH   1  14
ATOM      8  C   UNL     1      -0.129   9.958  20.487  0.00  0.00    +0.000 C 
ATOM      9  N   UNL     1       0.893   9.163  19.846  0.00  0.00    +0.000 N 
ATOM     10  C   UNL     1       1.478   9.560  18.676  0.00  0.00    +0.000 C 
ATOM     11  O   UNL     1       1.327  10.621  18.091  0.00  0.00    +0.000 OA
ATOM     12  S   UNL     1       2.556   8.308  18.090  0.00  0.00    +0.000 S 
ATOM     13  C   UNL     1       2.340   7.351  19.504  0.00  0.00    +0.000 C 
ATOM     14  C   UNL     1       2.883   6.151  19.760  0.00  0.00    +0.000 C 
ATOM     15  C   UNL     1       1.362   8.003  20.420  0.00  0.00    +0.000 C 
ATOM     16  O   UNL     1       1.025   7.544  21.502  0.00  0.00    +0.000 OA
ENDBRANCH   1  14
BRANCH   4  17
ATOM     17  O   UNL     1       5.719   3.079  15.976  0.00  0.00    +0.000 OA
ATOM     18  H   UNL     1       6.562   2.792  16.367  0.00  0.00    +0.000 HD
ENDBRANCH   4  17
BRANCH   3  19
ATOM     19  O   UNL     1       7.029   5.311  17.367  0.00  0.00    +0.000 OA
BRANCH  19  20
ATOM     20  C   UNL     1       7.461   6.577  17.703  0.00  0.00    +0.000 A 
ATOM     21  C   UNL     1       7.165   7.740  16.999  0.00  0.00    +0.000 A 
ATOM     22  C   UNL     1       7.735   8.959  17.381  0.00  0.00    +0.000 A 
ATOM     23  C   UNL     1       8.552   9.077  18.522  0.00  0.00    +0.000 A 
ATOM     24  C   UNL     1       8.800   7.898  19.245  0.00  0.00    +0.000 A 
ATOM     25  C   UNL     1       8.268   6.664  18.839  0.00  0.00    +0.000 A 
BRANCH  23  26
ATOM     26  C   UNL     1       9.089  10.395  18.941  0.00  0.00    +0.000 A 
ATOM     27  C   UNL     1       9.327  11.412  18.001  0.00  0.00    +0.000 A 
ATOM     28  C   UNL     1       9.830  12.634  18.418  0.00  0.00    +0.000 A 
ATOM     29  N   UNL     1      10.107  12.928  19.699  0.00  0.00    +0.000 NA
ATOM     30  C   UNL     1       9.871  11.954  20.604  0.00  0.00    +0.000 A 
ATOM     31  C   UNL     1       9.380  10.696  20.278  0.00  0.00    +0.000 A 
ENDBRANCH  23  26
ENDBRANCH  19  20
ENDBRANCH   3  19
TORSDOF 5
ENDMDL
MODEL 2
REMARK VINA RESULT:      -8.2      1.032      1.661
REMARK  Name = 
REMARK  6 active torsions:
REMARK  status: ('A' for Active; 'I' for Inactive)
REMARK    1  A    between atoms: C_1  and  N_2
REMARK    2  A    between atoms: C_7  and  C_8
REMARK    3  A    between atoms: C_10  and  O_11
REMARK    4  A    between atoms: O_11  and  C_12
REMARK    5  A    between atoms: C_15  and  C_16
REMARK    6  A    between atoms: C_24  and  O_25
REMARK                            x       y       z     vdW  Elec       q    Type
REMARK                         _______ _______ _______ _____ _____    ______ ____
ROOT
ATOM      1  C   UNL     1       3.056   5.152  19.392  0.00  0.00    +0.000 A 
ATOM      2  C   UNL     1       4.279   5.326  18.724  0.00  0.00    +0.000 A 
ATOM      3  C   UNL     1       4.829   4.287  17.956  0.00  0.00    +0.000 A 
ATOM      4  C   UNL     1       4.175   3.051  17.910  0.00  0.00    +0.000 A 
ATOM      5  C   UNL     1       2.947   2.875  18.538  0.00  0.00    +0.000 A 
ATOM      6  C   UNL     1       2.390   3.917  19.278  0.00  0.00    +0.000 A 
ATOM      7 BR   UNL     1       0.718   3.584  20.124  0.00  0.00    +0.000 Br
ENDROOT
BRANCH   1  14
ATOM      8  C   UNL     1       0.256  10.636  19.938  0.00  0.00    +0.000 C 
ATOM      9  N   UNL     1       1.103   9.541  19.525  0.00  0.00    +0.000 N 
ATOM     10  C   UNL     1       1.759   9.559  18.325  0.00  0.00    +0.000 C 
ATOM     11  O   UNL     1       1.822  10.479  17.526  0.00  0.00    +0.000 OA
ATOM     12  S   UNL     1       2.571   8.028  18.064  0.00  0.00    +0.000 S 
ATOM     13  C   UNL     1       2.165   7.455  19.636  0.00  0.00    +0.000 C 
ATOM     14  C   UNL     1       2.459   6.257  20.162  0.00  0.00    +0.000 C 
ATOM     15  C   UNL     1       1.331   8.463  20.350  0.00  0.00    +0.000 C 
ATOM     16  O   UNL     1       0.906   8.320  21.487  0.00  0.00    +0.000 OA
ENDBRANCH   1  14
BRANCH   4  17
ATOM     17  O   UNL     1       4.676   1.949  17.275  0.00  0.00    +0.000 OA
ATOM     18  H   UNL     1       5.197   2.244  16.509  0.00  0.00    +0.000 HD
ENDBRANCH   4  17
BRANCH   3  19
ATOM     19  O   UNL     1       6.048   4.546  17.366  0.00  0.00    +0.000 OA
BRANCH  19  20
ATOM     20  C   UNL     1       6.715   5.724  17.631  0.00  0.00    +0.000 A 
ATOM     21  C   UNL     1       7.752   5.871  18.547  0.00  0.00    +0.000 A 
ATOM     22  C   UNL     1       8.293   7.137  18.800  0.00  0.00    +0.000 A 
ATOM     23  C   UNL     1       7.879   8.281  18.094  0.00  0.00    +0.000 A 
ATOM     24  C   UNL     1       6.863   8.102  17.140  0.00  0.00    +0.000 A 
ATOM     25  C   UNL     1       6.284   6.843  16.915  0.00  0.00    +0.000 A 
BRANCH  23  26
ATOM     26  C   UNL     1       8.517   9.599  18.336  0.00  0.00    +0.000 A 
ATOM     27  C   UNL     1       9.428   9.778  19.391  0.00  0.00    +0.000 A 
ATOM     28  C   UNL     1      10.011  11.019  19.597  0.00  0.00    +0.000 A 
ATOM     29  N   UNL     1       9.764  12.094  18.831  0.00  0.00    +0.000 NA
ATOM     30  C   UNL     1       8.895  11.920  17.813  0.00  0.00    +0.000 A 
ATOM     31  C   UNL     1       8.254  10.719  17.537  0.00  0.00    +0.000 A 
ENDBRANCH  23  26
ENDBRANCH  19  20
ENDBRANCH   3  19
TORSDOF 5
ENDMDL
MODEL 3
REMARK VINA RESULT:      -8.1      3.911      9.565
REMARK  Name = 
REMARK  6 active torsions:
REMARK  status: ('A' for Active; 'I' for Inactive)
REMARK    1  A    between atoms: C_1  and  N_2
REMARK    2  A    between atoms: C_7  and  C_8
REMARK    3  A    between atoms: C_10  and  O_11
REMARK    4  A    between atoms: O_11  and  C_12
REMARK    5  A    between atoms: C_15  and  C_16
REMARK    6  A    between atoms: C_24  and  O_25
REMARK                            x       y       z     vdW  Elec       q    Type
REMARK                         _______ _______ _______ _____ _____    ______ ____
ROOT
ATOM      1  C   UNL     1       2.297   6.804  18.709  0.00  0.00    +0.000 A 
ATOM      2  C   UNL     1       1.995   8.106  18.276  0.00  0.00    +0.000 A 
ATOM      3  C   UNL     1       1.484   9.058  19.173  0.00  0.00    +0.000 A 
ATOM      4  C   UNL     1       1.221   8.679  20.495  0.00  0.00    +0.000 A 
ATOM      5  C   UNL     1       1.547   7.405  20.945  0.00  0.00    +0.000 A 
ATOM      6  C   UNL     1       2.079   6.470  20.059  0.00  0.00    +0.000 A 
ATOM      7 BR   UNL     1       2.475   4.742  20.753  0.00  0.00    +0.000 Br
ENDROOT
BRANCH   1  14
ATOM      8  C   UNL     1       6.990   4.050  15.775  0.00  0.00    +0.000 C 
ATOM      9  N   UNL     1       6.110   5.014  16.395  0.00  0.00    +0.000 N 
ATOM     10  C   UNL     1       6.546   6.265  16.733  0.00  0.00    +0.000 C 
ATOM     11  O   UNL     1       7.628   6.769  16.481  0.00  0.00    +0.000 OA
ATOM     12  S   UNL     1       5.285   7.124  17.597  0.00  0.00    +0.000 S 
ATOM     13  C   UNL     1       4.141   5.864  17.341  0.00  0.00    +0.000 C 
ATOM     14  C   UNL     1       2.874   5.821  17.777  0.00  0.00    +0.000 C 
ATOM     15  C   UNL     1       4.781   4.731  16.614  0.00  0.00    +0.000 C 
ATOM     16  O   UNL     1       4.197   3.705  16.295  0.00  0.00    +0.000 OA
ENDBRANCH   1  14
BRANCH   4  17
ATOM     17  O   UNL     1       0.632   9.499  21.417  0.00  0.00    +0.000 OA
ATOM     18  H   UNL     1      -0.048   8.992  21.892  0.00  0.00    +0.000 HD
ENDBRANCH   4  17
BRANCH   3  19
ATOM     19  O   UNL     1       1.189  10.297  18.644  0.00  0.00    +0.000 OA
BRANCH  19  20
ATOM     20  C   UNL     1      -0.112  10.751  18.616  0.00  0.00    +0.000 A 
ATOM     21  C   UNL     1      -0.587  11.871  19.292  0.00  0.00    +0.000 A 
ATOM     22  C   UNL     1      -1.950  12.186  19.263  0.00  0.00    +0.000 A 
ATOM     23  C   UNL     1      -2.871  11.446  18.498  0.00  0.00    +0.000 A 
ATOM     24  C   UNL     1      -2.363  10.347  17.786  0.00  0.00    +0.000 A 
ATOM     25  C   UNL     1      -1.004   9.999  17.848  0.00  0.00    +0.000 A 
BRANCH  23  26
ATOM     26  C   UNL     1      -4.300  11.842  18.434  0.00  0.00    +0.000 A 
ATOM     27  C   UNL     1      -5.007  11.808  17.221  0.00  0.00    +0.000 A 
ATOM     28  C   UNL     1      -6.341  12.183  17.187  0.00  0.00    +0.000 A 
ATOM     29  N   UNL     1      -7.029  12.583  18.269  0.00  0.00    +0.000 NA
ATOM     30  C   UNL     1      -6.353  12.608  19.437  0.00  0.00    +0.000 A 
ATOM     31  C   UNL     1      -5.014  12.262  19.565  0.00  0.00    +0.000 A 
ENDBRANCH  23  26
ENDBRANCH  19  20
ENDBRANCH   3  19
TORSDOF 5
ENDMDL
MODEL 4
REMARK VINA RESULT:      -8.1      0.282      1.241
REMARK  Name = 
REMARK  6 active torsions:
REMARK  status: ('A' for Active; 'I' for Inactive)
REMARK    1  A    between atoms: C_1  and  N_2
REMARK    2  A    between atoms: C_7  and  C_8
REMARK    3  A    between atoms: C_10  and  O_11
REMARK    4  A    between atoms: O_11  and  C_12
REMARK    5  A    between atoms: C_15  and  C_16
REMARK    6  A    between atoms: C_24  and  O_25
REMARK                            x       y       z     vdW  Elec       q    Type
REMARK                         _______ _______ _______ _____ _____    ______ ____
ROOT
ATOM      1  C   UNL     1       3.642   5.270  18.791  0.00  0.00    +0.000 A 
ATOM      2  C   UNL     1       5.011   5.485  18.553  0.00  0.00    +0.000 A 
ATOM      3  C   UNL     1       5.698   4.724  17.595  0.00  0.00    +0.000 A 
ATOM      4  C   UNL     1       5.021   3.704  16.917  0.00  0.00    +0.000 A 
ATOM      5  C   UNL     1       3.660   3.503  17.117  0.00  0.00    +0.000 A 
ATOM      6  C   UNL     1       2.973   4.277  18.050  0.00  0.00    +0.000 A 
ATOM      7 BR   UNL     1       1.117   3.919  18.279  0.00  0.00    +0.000 Br
ENDROOT
BRANCH   1  14
ATOM      8  C   UNL     1      -0.013   9.985  20.409  0.00  0.00    +0.000 C 
ATOM      9  N   UNL     1       0.983   9.149  19.780  0.00  0.00    +0.000 N 
ATOM     10  C   UNL     1       1.555   9.494  18.587  0.00  0.00    +0.000 C 
ATOM     11  O   UNL     1       1.415  10.537  17.969  0.00  0.00    +0.000 OA
ATOM     12  S   UNL     1       2.599   8.202  18.028  0.00  0.00    +0.000 S 
ATOM     13  C   UNL     1       2.389   7.298  19.477  0.00  0.00    +0.000 C 
ATOM     14  C   UNL     1       2.913   6.097  19.766  0.00  0.00    +0.000 C 
ATOM     15  C   UNL     1       1.438   8.000  20.386  0.00  0.00    +0.000 C 
ATOM     16  O   UNL     1       1.112   7.585  21.489  0.00  0.00    +0.000 OA
ENDBRANCH   1  14
BRANCH   4  17
ATOM     17  O   UNL     1       5.622   2.845  16.040  0.00  0.00    +0.000 OA
ATOM     18  H   UNL     1       4.953   2.221  15.711  0.00  0.00    +0.000 HD
ENDBRANCH   4  17
BRANCH   3  19
ATOM     19  O   UNL     1       7.045   4.990  17.458  0.00  0.00    +0.000 OA
BRANCH  19  20
ATOM     20  C   UNL     1       7.553   6.219  17.823  0.00  0.00    +0.000 A 
ATOM     21  C   UNL     1       8.276   6.476  18.984  0.00  0.00    +0.000 A 
ATOM     22  C   UNL     1       8.664   7.784  19.297  0.00  0.00    +0.000 A 
ATOM     23  C   UNL     1       8.418   8.863  18.428  0.00  0.00    +0.000 A 
ATOM     24  C   UNL     1       7.727   8.573  17.239  0.00  0.00    +0.000 A 
ATOM     25  C   UNL     1       7.295   7.271  16.943  0.00  0.00    +0.000 A 
BRANCH  23  26
ATOM     26  C   UNL     1       8.900  10.228  18.755  0.00  0.00    +0.000 A 
ATOM     27  C   UNL     1       9.486  10.511  20.000  0.00  0.00    +0.000 A 
ATOM     28  C   UNL     1       9.928  11.794  20.281  0.00  0.00    +0.000 A 
ATOM     29  N   UNL     1       9.839  12.818  19.417  0.00  0.00    +0.000 NA
ATOM     30  C   UNL     1       9.282  12.546  18.218  0.00  0.00    +0.000 A 
ATOM     31  C   UNL     1       8.802  11.296  17.852  0.00  0.00    +0.000 A 
ENDBRANCH  23  26
ENDBRANCH  19  20
ENDBRANCH   3  19
TORSDOF 5
ENDMDL
MODEL 5
REMARK VINA RESULT:      -8.0      3.868      9.656
REMARK  Name = 
REMARK  6 active torsions:
REMARK  status: ('A' for Active; 'I' for Inactive)
REMARK    1  A    between atoms: C_1  and  N_2
REMARK    2  A    between atoms: C_7  and  C_8
REMARK    3  A    between atoms: C_10  and  O_11
REMARK    4  A    between atoms: O_11  and  C_12
REMARK    5  A    between atoms: C_15  and  C_16
REMARK    6  A    between atoms: C_24  and  O_25
REMARK                            x       y       z     vdW  Elec       q    Type
REMARK                         _______ _______ _______ _____ _____    ______ ____
ROOT
ATOM      1  C   UNL     1       2.315   6.795  18.663  0.00  0.00    +0.000 A 
ATOM      2  C   UNL     1       1.928   8.083  18.257  0.00  0.00    +0.000 A 
ATOM      3  C   UNL     1       1.396   8.995  19.182  0.00  0.00    +0.000 A 
ATOM      4  C   UNL     1       1.198   8.589  20.506  0.00  0.00    +0.000 A 
ATOM      5  C   UNL     1       1.609   7.330  20.930  0.00  0.00    +0.000 A 
ATOM      6  C   UNL     1       2.161   6.435  20.015  0.00  0.00    +0.000 A 
ATOM      7 BR   UNL     1       2.673   4.724  20.674  0.00  0.00    +0.000 Br
ENDROOT
BRANCH   1  14
ATOM      8  C   UNL     1       7.076   4.158  15.729  0.00  0.00    +0.000 C 
ATOM      9  N   UNL     1       6.183   5.096  16.371  0.00  0.00    +0.000 N 
ATOM     10  C   UNL     1       6.615   6.326  16.782  0.00  0.00    +0.000 C 
ATOM     11  O   UNL     1       7.707   6.835  16.585  0.00  0.00    +0.000 OA
ATOM     12  S   UNL     1       5.335   7.150  17.652  0.00  0.00    +0.000 S 
ATOM     13  C   UNL     1       4.192   5.911  17.302  0.00  0.00    +0.000 C 
ATOM     14  C   UNL     1       2.913   5.854  17.700  0.00  0.00    +0.000 C 
ATOM     15  C   UNL     1       4.847   4.810  16.539  0.00  0.00    +0.000 C 
ATOM     16  O   UNL     1       4.268   3.805  16.154  0.00  0.00    +0.000 OA
ENDBRANCH   1  14
BRANCH   4  17
ATOM     17  O   UNL     1       0.597   9.365  21.458  0.00  0.00    +0.000 OA
ATOM     18  H   UNL     1       0.859  10.290  21.313  0.00  0.00    +0.000 HD
ENDBRANCH   4  17
BRANCH   3  19
ATOM     19  O   UNL     1       1.017  10.222  18.678  0.00  0.00    +0.000 OA
BRANCH  19  20
ATOM     20  C   UNL     1      -0.318  10.547  18.565  0.00  0.00    +0.000 A 
ATOM     21  C   UNL     1      -1.225   9.933  17.707  0.00  0.00    +0.000 A 
ATOM     22  C   UNL     1      -2.538  10.409  17.612  0.00  0.00    +0.000 A 
ATOM     23  C   UNL     1      -3.013  11.456  18.423  0.00  0.00    +0.000 A 
ATOM     24  C   UNL     1      -2.093  12.032  19.316  0.00  0.00    +0.000 A 
ATOM     25  C   UNL     1      -0.762  11.588  19.383  0.00  0.00    +0.000 A 
BRANCH  23  26
ATOM     26  C   UNL     1      -4.428  11.897  18.347  0.00  0.00    +0.000 A 
ATOM     27  C   UNL     1      -5.123  12.301  19.499  0.00  0.00    +0.000 A 
ATOM     28  C   UNL     1      -6.445  12.707  19.402  0.00  0.00    +0.000 A 
ATOM     29  N   UNL     1      -7.127  12.751  18.246  0.00  0.00    +0.000 NA
ATOM     30  C   UNL     1      -6.457  12.371  17.137  0.00  0.00    +0.000 A 
ATOM     31  C   UNL     1      -5.138  11.938  17.139  0.00  0.00    +0.000 A 
ENDBRANCH  23  26
ENDBRANCH  19  20
ENDBRANCH   3  19
TORSDOF 5
ENDMDL
MODEL 6
REMARK VINA RESULT:      -7.6      4.979      8.676
REMARK  Name = 
REMARK  6 active torsions:
REMARK  status: ('A' for Active; 'I' for Inactive)
REMARK    1  A    between atoms: C_1  and  N_2
REMARK    2  A    between atoms: C_7  and  C_8
REMARK    3  A    between atoms: C_10  and  O_11
REMARK    4  A    between atoms: O_11  and  C_12
REMARK    5  A    between atoms: C_15  and  C_16
REMARK    6  A    between atoms: C_24  and  O_25
REMARK                            x       y       z     vdW  Elec       q    Type
REMARK                         _______ _______ _______ _____ _____    ______ ____
ROOT
ATOM      1  C   UNL     1       1.195  13.801  20.036  0.00  0.00    +0.000 A 
ATOM      2  C   UNL     1       1.220  12.446  20.407  0.00  0.00    +0.000 A 
ATOM      3  C   UNL     1       0.238  11.558  19.940  0.00  0.00    +0.000 A 
ATOM      4  C   UNL     1      -0.805  12.048  19.146  0.00  0.00    +0.000 A 
ATOM      5  C   UNL     1      -0.823  13.378  18.743  0.00  0.00    +0.000 A 
ATOM      6  C   UNL     1       0.167  14.253  19.186  0.00  0.00    +0.000 A 
ATOM      7 BR   UNL     1       0.053  16.062  18.606  0.00  0.00    +0.000 Br
ENDROOT
BRANCH   1  14
ATOM      8  C   UNL     1       6.314  17.177  19.248  0.00  0.00    +0.000 C 
ATOM      9  N   UNL     1       5.314  16.135  19.207  0.00  0.00    +0.000 N 
ATOM     10  C   UNL     1       5.362  15.136  18.274  0.00  0.00    +0.000 C 
ATOM     11  O   UNL     1       6.247  14.916  17.464  0.00  0.00    +0.000 OA
ATOM     12  S   UNL     1       3.931  14.130  18.401  0.00  0.00    +0.000 S 
ATOM     13  C   UNL     1       3.380  14.954  19.808  0.00  0.00    +0.000 C 
ATOM     14  C   UNL     1       2.250  14.722  20.492  0.00  0.00    +0.000 C 
ATOM     15  C   UNL     1       4.308  16.072  20.144  0.00  0.00    +0.000 C 
ATOM     16  O   UNL     1       4.161  16.820  21.100  0.00  0.00    +0.000 OA
ENDBRANCH   1  14
BRANCH   4  17
ATOM     17  O   UNL     1      -1.860  11.288  18.724  0.00  0.00    +0.000 OA
ATOM     18  H   UNL     1      -1.989  10.560  19.355  0.00  0.00    +0.000 HD
ENDBRANCH   4  17
BRANCH   3  19
ATOM     19  O   UNL     1       0.332  10.257  20.387  0.00  0.00    +0.000 OA
BRANCH  19  20
ATOM     20  C   UNL     1       1.097   9.337  19.701  0.00  0.00    +0.000 A 
ATOM     21  C   UNL     1       1.490   9.452  18.371  0.00  0.00    +0.000 A 
ATOM     22  C   UNL     1       2.190   8.411  17.751  0.00  0.00    +0.000 A 
ATOM     23  C   UNL     1       2.591   7.259  18.453  0.00  0.00    +0.000 A 
ATOM     24  C   UNL     1       2.223   7.184  19.807  0.00  0.00    +0.000 A 
ATOM     25  C   UNL     1       1.482   8.205  20.422  0.00  0.00    +0.000 A 
BRANCH  23  26
ATOM     26  C   UNL     1       3.389   6.200  17.786  0.00  0.00    +0.000 A 
ATOM     27  C   UNL     1       2.974   4.858  17.809  0.00  0.00    +0.000 A 
ATOM     28  C   UNL     1       3.737   3.888  17.179  0.00  0.00    +0.000 A 
ATOM     29  N   UNL     1       4.877   4.149  16.520  0.00  0.00    +0.000 NA
ATOM     30  C   UNL     1       5.273   5.439  16.491  0.00  0.00    +0.000 A 
ATOM     31  C   UNL     1       4.581   6.476  17.103  0.00  0.00    +0.000 A 
ENDBRANCH  23  26
ENDBRANCH  19  20
ENDBRANCH   3  19
TORSDOF 5
ENDMDL
MODEL 7
REMARK VINA RESULT:      -7.6      5.970      8.752
REMARK  Name = 
REMARK  6 active torsions:
REMARK  status: ('A' for Active; 'I' for Inactive)
REMARK    1  A    between atoms: C_1  and  N_2
REMARK    2  A    between atoms: C_7  and  C_8
REMARK    3  A    between atoms: C_10  and  O_11
REMARK    4  A    between atoms: O_11  and  C_12
REMARK    5  A    between atoms: C_15  and  C_16
REMARK    6  A    between atoms: C_24  and  O_25
REMARK                            x       y       z     vdW  Elec       q    Type
REMARK                         _______ _______ _______ _____ _____    ______ ____
ROOT
ATOM      1  C   UNL     1      -0.960  12.333  20.799  0.00  0.00    +0.000 A 
ATOM      2  C   UNL     1       0.169  11.711  20.239  0.00  0.00    +0.000 A 
ATOM      3  C   UNL     1       0.086  11.060  18.998  0.00  0.00    +0.000 A 
ATOM      4  C   UNL     1      -1.151  10.983  18.348  0.00  0.00    +0.000 A 
ATOM      5  C   UNL     1      -2.269  11.622  18.873  0.00  0.00    +0.000 A 
ATOM      6  C   UNL     1      -2.177  12.291  20.093  0.00  0.00    +0.000 A 
ATOM      7 BR   UNL     1      -3.760  13.119  20.751  0.00  0.00    +0.000 Br
ENDROOT
BRANCH   1  14
ATOM      8  C   UNL     1      -0.506  17.436  24.258  0.00  0.00    +0.000 C 
ATOM      9  N   UNL     1      -0.366  16.443  23.218  0.00  0.00    +0.000 N 
ATOM     10  C   UNL     1       0.139  16.763  21.989  0.00  0.00    +0.000 C 
ATOM     11  O   UNL     1       0.623  17.826  21.636  0.00  0.00    +0.000 OA
ATOM     12  S   UNL     1       0.032  15.377  20.919  0.00  0.00    +0.000 S 
ATOM     13  C   UNL     1      -0.524  14.347  22.180  0.00  0.00    +0.000 C 
ATOM     14  C   UNL     1      -0.860  13.052  22.080  0.00  0.00    +0.000 C 
ATOM     15  C   UNL     1      -0.681  15.122  23.444  0.00  0.00    +0.000 C 
ATOM     16  O   UNL     1      -1.056  14.639  24.503  0.00  0.00    +0.000 OA
ENDBRANCH   1  14
BRANCH   4  17
ATOM     17  O   UNL     1      -1.359  10.288  17.189  0.00  0.00    +0.000 OA
ATOM     18  H   UNL     1      -0.656   9.624  17.096  0.00  0.00    +0.000 HD
ENDBRANCH   4  17
BRANCH   3  19
ATOM     19  O   UNL     1       1.241  10.454  18.550  0.00  0.00    +0.000 OA
BRANCH  19  20
ATOM     20  C   UNL     1       1.551   9.169  18.941  0.00  0.00    +0.000 A 
ATOM     21  C   UNL     1       1.326   8.639  20.208  0.00  0.00    +0.000 A 
ATOM     22  C   UNL     1       1.767   7.347  20.519  0.00  0.00    +0.000 A 
ATOM     23  C   UNL     1       2.372   6.514  19.560  0.00  0.00    +0.000 A 
ATOM     24  C   UNL     1       2.548   7.053  18.274  0.00  0.00    +0.000 A 
ATOM     25  C   UNL     1       2.149   8.364  17.970  0.00  0.00    +0.000 A 
BRANCH  23  26
ATOM     26  C   UNL     1       2.771   5.125  19.901  0.00  0.00    +0.000 A 
ATOM     27  C   UNL     1       2.123   4.418  20.927  0.00  0.00    +0.000 A 
ATOM     28  C   UNL     1       2.513   3.122  21.227  0.00  0.00    +0.000 A 
ATOM     29  N   UNL     1       3.493   2.472  20.579  0.00  0.00    +0.000 NA
ATOM     30  C   UNL     1       4.111   3.148  19.587  0.00  0.00    +0.000 A 
ATOM     31  C   UNL     1       3.796   4.451  19.225  0.00  0.00    +0.000 A 
ENDBRANCH  23  26
ENDBRANCH  19  20
ENDBRANCH   3  19
TORSDOF 5
ENDMDL
MODEL 8
REMARK VINA RESULT:      -7.6      5.766      8.792
REMARK  Name = 
REMARK  6 active torsions:
REMARK  status: ('A' for Active; 'I' for Inactive)
REMARK    1  A    between atoms: C_1  and  N_2
REMARK    2  A    between atoms: C_7  and  C_8
REMARK    3  A    between atoms: C_10  and  O_11
REMARK    4  A    between atoms: O_11  and  C_12
REMARK    5  A    between atoms: C_15  and  C_16
REMARK    6  A    between atoms: C_24  and  O_25
REMARK                            x       y       z     vdW  Elec       q    Type
REMARK                         _______ _______ _______ _____ _____    ______ ____
ROOT
ATOM      1  C   UNL     1       0.973  13.676  20.889  0.00  0.00    +0.000 A 
ATOM      2  C   UNL     1       0.490  12.486  20.318  0.00  0.00    +0.000 A 
ATOM      3  C   UNL     1       1.054  11.979  19.137  0.00  0.00    +0.000 A 
ATOM      4  C   UNL     1       2.066  12.703  18.497  0.00  0.00    +0.000 A 
ATOM      5  C   UNL     1       2.577  13.863  19.069  0.00  0.00    +0.000 A 
ATOM      6  C   UNL     1       2.033  14.351  20.256  0.00  0.00    +0.000 A 
ATOM      7 BR   UNL     1       2.776  15.958  20.957  0.00  0.00    +0.000 Br
ENDROOT
BRANCH   1  14
ATOM      8  C   UNL     1      -3.603  15.880  24.415  0.00  0.00    +0.000 C 
ATOM      9  N   UNL     1      -2.703  15.594  23.321  0.00  0.00    +0.000 N 
ATOM     10  C   UNL     1      -3.032  15.892  22.028  0.00  0.00    +0.000 C 
ATOM     11  O   UNL     1      -4.011  16.503  21.632  0.00  0.00    +0.000 OA
ATOM     12  S   UNL     1      -1.799  15.282  20.941  0.00  0.00    +0.000 S 
ATOM     13  C   UNL     1      -0.782  14.794  22.240  0.00  0.00    +0.000 C 
ATOM     14  C   UNL     1       0.408  14.183  22.151  0.00  0.00    +0.000 C 
ATOM     15  C   UNL     1      -1.452  15.065  23.545  0.00  0.00    +0.000 C 
ATOM     16  O   UNL     1      -0.953  14.822  24.634  0.00  0.00    +0.000 OA
ENDBRANCH   1  14
BRANCH   4  17
ATOM     17  O   UNL     1       2.611  12.348  17.295  0.00  0.00    +0.000 OA
ATOM     18  H   UNL     1       2.795  11.394  17.308  0.00  0.00    +0.000 HD
ENDBRANCH   4  17
BRANCH   3  19
ATOM     19  O   UNL     1       0.489  10.824  18.640  0.00  0.00    +0.000 OA
BRANCH  19  20
ATOM     20  C   UNL     1       1.072   9.599  18.889  0.00  0.00    +0.000 A 
ATOM     21  C   UNL     1       1.119   8.969  20.128  0.00  0.00    +0.000 A 
ATOM     22  C   UNL     1       1.820   7.767  20.281  0.00  0.00    +0.000 A 
ATOM     23  C   UNL     1       2.427   7.113  19.192  0.00  0.00    +0.000 A 
ATOM     24  C   UNL     1       2.328   7.744  17.941  0.00  0.00    +0.000 A 
ATOM     25  C   UNL     1       1.666   8.973  17.791  0.00  0.00    +0.000 A 
BRANCH  23  26
ATOM     26  C   UNL     1       3.107   5.806  19.372  0.00  0.00    +0.000 A 
ATOM     27  C   UNL     1       2.439   4.716  19.954  0.00  0.00    +0.000 A 
ATOM     28  C   UNL     1       3.096   3.506  20.111  0.00  0.00    +0.000 A 
ATOM     29  N   UNL     1       4.365   3.293  19.727  0.00  0.00    +0.000 NA
ATOM     30  C   UNL     1       5.006   4.337  19.160  0.00  0.00    +0.000 A 
ATOM     31  C   UNL     1       4.433   5.589  18.973  0.00  0.00    +0.000 A 
ENDBRANCH  23  26
ENDBRANCH  19  20
ENDBRANCH   3  19
TORSDOF 5
ENDMDL
MODEL 9
REMARK VINA RESULT:      -7.5      4.977      8.917
REMARK  Name = 
REMARK  6 active torsions:
REMARK  status: ('A' for Active; 'I' for Inactive)
REMARK    1  A    between atoms: C_1  and  N_2
REMARK    2  A    between atoms: C_7  and  C_8
REMARK    3  A    between atoms: C_10  and  O_11
REMARK    4  A    between atoms: O_11  and  C_12
REMARK    5  A    between atoms: C_15  and  C_16
REMARK    6  A    between atoms: C_24  and  O_25
REMARK                            x       y       z     vdW  Elec       q    Type
REMARK                         _______ _______ _______ _____ _____    ______ ____
ROOT
ATOM      1  C   UNL     1       1.833  14.192  20.077  0.00  0.00    +0.000 A 
ATOM      2  C   UNL     1       1.523  12.842  20.319  0.00  0.00    +0.000 A 
ATOM      3  C   UNL     1       0.371  12.263  19.765  0.00  0.00    +0.000 A 
ATOM      4  C   UNL     1      -0.502  13.059  19.016  0.00  0.00    +0.000 A 
ATOM      5  C   UNL     1      -0.191  14.386  18.740  0.00  0.00    +0.000 A 
ATOM      6  C   UNL     1       0.967  14.952  19.269  0.00  0.00    +0.000 A 
ATOM      7 BR   UNL     1       1.304  16.781  18.862  0.00  0.00    +0.000 Br
ENDROOT
BRANCH   1  14
ATOM      8  C   UNL     1       7.482  16.653  19.581  0.00  0.00    +0.000 C 
ATOM      9  N   UNL     1       6.297  15.845  19.412  0.00  0.00    +0.000 N 
ATOM     10  C   UNL     1       6.113  15.070  18.301  0.00  0.00    +0.000 C 
ATOM     11  O   UNL     1       6.908  14.863  17.398  0.00  0.00    +0.000 OA
ATOM     12  S   UNL     1       4.518  14.342  18.336  0.00  0.00    +0.000 S 
ATOM     13  C   UNL     1       4.192  14.944  19.915  0.00  0.00    +0.000 C 
ATOM     14  C   UNL     1       3.064  14.787  20.624  0.00  0.00    +0.000 C 
ATOM     15  C   UNL     1       5.333  15.776  20.393  0.00  0.00    +0.000 C 
ATOM     16  O   UNL     1       5.371  16.323  21.485  0.00  0.00    +0.000 OA
ENDBRANCH   1  14
BRANCH   4  17
ATOM     17  O   UNL     1      -1.696  12.617  18.518  0.00  0.00    +0.000 OA
ATOM     18  H   UNL     1      -2.232  13.388  18.268  0.00  0.00    +0.000 HD
ENDBRANCH   4  17
BRANCH   3  19
ATOM     19  O   UNL     1       0.140  10.942  20.087  0.00  0.00    +0.000 OA
BRANCH  19  20
ATOM     20  C   UNL     1       0.899   9.941  19.517  0.00  0.00    +0.000 A 
ATOM     21  C   UNL     1       1.370   9.938  18.208  0.00  0.00    +0.000 A 
ATOM     22  C   UNL     1       2.055   8.824  17.710  0.00  0.00    +0.000 A 
ATOM     23  C   UNL     1       2.364   7.714  18.518  0.00  0.00    +0.000 A 
ATOM     24  C   UNL     1       1.918   7.758  19.850  0.00  0.00    +0.000 A 
ATOM     25  C   UNL     1       1.191   8.853  20.342  0.00  0.00    +0.000 A 
BRANCH  23  26
ATOM     26  C   UNL     1       3.149   6.575  17.980  0.00  0.00    +0.000 A 
ATOM     27  C   UNL     1       4.347   6.789  17.279  0.00  0.00    +0.000 A 
ATOM     28  C   UNL     1       5.062   5.709  16.786  0.00  0.00    +0.000 A 
ATOM     29  N   UNL     1       4.682   4.430  16.943  0.00  0.00    +0.000 NA
ATOM     30  C   UNL     1       3.534   4.223  17.624  0.00  0.00    +0.000 A 
ATOM     31  C   UNL     1       2.747   5.242  18.143  0.00  0.00    +0.000 A 
ENDBRANCH  23  26
ENDBRANCH  19  20
ENDBRANCH   3  19
TORSDOF 5
ENDMDL
