MODEL 1
REMARK VINA RESULT:      -7.2      0.000      0.000
REMARK  Name = 
REMARK  9 active torsions:
REMARK  status: ('A' for Active; 'I' for Inactive)
REMARK    1  A    between atoms: C_1  and  C_2
REMARK    2  A    between atoms: C_2  and  C_3
REMARK    3  A    between atoms: C_2  and  O_4
REMARK    4  A    between atoms: O_4  and  C_5
REMARK    5  A    between atoms: C_11  and  C_12
REMARK    6  A    between atoms: C_15  and  O_16
REMARK    7  A    between atoms: C_19  and  C_20
REMARK    8  A    between atoms: C_20  and  O_22
REMARK    9  A    between atoms: C_23  and  C_24
REMARK                            x       y       z     vdW  Elec       q    Type
REMARK                         _______ _______ _______ _____ _____    ______ ____
ROOT
ATOM      1  C   UNL     1      -4.340  11.298  17.919  0.00  0.00    +0.000 A 
ATOM      2  C   UNL     1      -3.404  11.140  16.901  0.00  0.00    +0.000 A 
ATOM      3  C   UNL     1      -2.075  11.492  17.114  0.00  0.00    +0.000 A 
ATOM      4  C   UNL     1      -1.678  12.007  18.342  0.00  0.00    +0.000 A 
ATOM      5  C   UNL     1      -2.589  12.217  19.381  0.00  0.00    +0.000 A 
ATOM      6  C   UNL     1      -3.929  11.846  19.150  0.00  0.00    +0.000 A 
ATOM      7  C   UNL     1      -2.108  12.829  20.661  0.00  0.00    +0.000 C 
ATOM      8  C   UNL     1      -0.759  12.861  20.842  0.00  0.00    +0.000 C 
ATOM      9  C   UNL     1       0.166  12.230  19.803  0.00  0.00    +0.000 C 
ATOM     10  O   UNL     1      -0.345  12.268  18.459  0.00  0.00    +0.000 OA
ENDROOT
BRANCH   9  11
ATOM     11  C   UNL     1       0.586  10.795  20.150  0.00  0.00    +0.000 A 
ATOM     12  C   UNL     1       0.242  10.196  21.390  0.00  0.00    +0.000 A 
ATOM     13  C   UNL     1       0.570   8.871  21.686  0.00  0.00    +0.000 A 
ATOM     14  C   UNL     1       1.258   8.163  20.733  0.00  0.00    +0.000 A 
ATOM     15  C   UNL     1       1.617   8.725  19.531  0.00  0.00    +0.000 A 
ATOM     16  C   UNL     1       1.299  10.030  19.208  0.00  0.00    +0.000 A 
ATOM     17  O   UNL     1       2.292   7.850  18.737  0.00  0.00    +0.000 OA
ATOM     18  C   UNL     1       2.347   6.691  19.594  0.00  0.00    +0.000 C 
ATOM     19  O   UNL     1       1.656   6.868  20.846  0.00  0.00    +0.000 OA
ENDBRANCH   9  11
BRANCH   7  20
ATOM     20  C   UNL     1      -3.038  13.366  21.670  0.00  0.00    +0.000 A 
ATOM     21  C   UNL     1      -3.508  12.559  22.712  0.00  0.00    +0.000 A 
ATOM     22  C   UNL     1      -4.463  13.054  23.604  0.00  0.00    +0.000 A 
ATOM     23  C   UNL     1      -4.943  14.351  23.444  0.00  0.00    +0.000 A 
ATOM     24  C   UNL     1      -4.466  15.171  22.429  0.00  0.00    +0.000 A 
ATOM     25  C   UNL     1      -3.504  14.686  21.545  0.00  0.00    +0.000 A 
BRANCH  23  26
ATOM     26  O   UNL     1      -5.900  14.861  24.269  0.00  0.00    +0.000 OA
ATOM     27  H   UNL     1      -5.882  14.375  25.111  0.00  0.00    +0.000 HD
ENDBRANCH  23  26
ENDBRANCH   7  20
BRANCH   8  28
ATOM     28  C   UNL     1       0.062  13.508  21.917  0.00  0.00    +0.000 C 
ATOM     29  O   UNL     1      -0.161  13.311  23.101  0.00  0.00    +0.000 OA
BRANCH  28  30
ATOM     30  O   UNL     1       1.054  14.340  21.562  0.00  0.00    +0.000 OA
ATOM     31  H   UNL     1       1.205  15.125  22.111  0.00  0.00    +0.000 HD
ENDBRANCH  28  30
ENDBRANCH   8  28
BRANCH   1  32
ATOM     32  O   UNL     1      -5.664  10.952  17.836  0.00  0.00    +0.000 OA
BRANCH  32  34
ATOM     33  C   UNL     1      -7.549  12.102  18.771  0.00  0.00    +0.000 C 
ATOM     34  C   UNL     1      -6.481  11.039  19.016  0.00  0.00    +0.000 C 
ATOM     35  C   UNL     1      -7.143   9.690  19.292  0.00  0.00    +0.000 C 
ENDBRANCH  32  34
ENDBRANCH   1  32
TORSDOF 7
ENDMDL
MODEL 2
REMARK VINA RESULT:      -7.2      0.233      1.031
REMARK  Name = 
REMARK  9 active torsions:
REMARK  status: ('A' for Active; 'I' for Inactive)
REMARK    1  A    between atoms: C_1  and  C_2
REMARK    2  A    between atoms: C_2  and  C_3
REMARK    3  A    between atoms: C_2  and  O_4
REMARK    4  A    between atoms: O_4  and  C_5
REMARK    5  A    between atoms: C_11  and  C_12
REMARK    6  A    between atoms: C_15  and  O_16
REMARK    7  A    between atoms: C_19  and  C_20
REMARK    8  A    between atoms: C_20  and  O_22
REMARK    9  A    between atoms: C_23  and  C_24
REMARK                            x       y       z     vdW  Elec       q    Type
REMARK                         _______ _______ _______ _____ _____    ______ ____
ROOT
ATOM      1  C   UNL     1      -4.335  11.259  17.891  0.00  0.00    +0.000 A 
ATOM      2  C   UNL     1      -3.418  11.037  16.867  0.00  0.00    +0.000 A 
ATOM      3  C   UNL     1      -2.078  11.365  17.048  0.00  0.00    +0.000 A 
ATOM      4  C   UNL     1      -1.651  11.919  18.249  0.00  0.00    +0.000 A 
ATOM      5  C   UNL     1      -2.542  12.193  19.290  0.00  0.00    +0.000 A 
ATOM      6  C   UNL     1      -3.894  11.846  19.093  0.00  0.00    +0.000 A 
ATOM      7  C   UNL     1      -2.028  12.843  20.538  0.00  0.00    +0.000 C 
ATOM      8  C   UNL     1      -0.676  12.849  20.700  0.00  0.00    +0.000 C 
ATOM      9  C   UNL     1       0.218  12.155  19.675  0.00  0.00    +0.000 C 
ATOM     10  O   UNL     1      -0.311  12.152  18.337  0.00  0.00    +0.000 OA
ENDROOT
BRANCH   9  11
ATOM     11  C   UNL     1       0.609  10.725  20.074  0.00  0.00    +0.000 A 
ATOM     12  C   UNL     1       0.223  10.167  21.320  0.00  0.00    +0.000 A 
ATOM     13  C   UNL     1       0.525   8.846  21.663  0.00  0.00    +0.000 A 
ATOM     14  C   UNL     1       1.229   8.102  20.749  0.00  0.00    +0.000 A 
ATOM     15  C   UNL     1       1.628   8.625  19.542  0.00  0.00    +0.000 A 
ATOM     16  C   UNL     1       1.337   9.924  19.174  0.00  0.00    +0.000 A 
ATOM     17  O   UNL     1       2.312   7.719  18.792  0.00  0.00    +0.000 OA
ATOM     18  C   UNL     1       2.327   6.584  19.682  0.00  0.00    +0.000 C 
ATOM     19  O   UNL     1       1.605   6.806  20.910  0.00  0.00    +0.000 OA
ENDBRANCH   9  11
BRANCH   7  20
ATOM     20  C   UNL     1      -2.930  13.443  21.537  0.00  0.00    +0.000 A 
ATOM     21  C   UNL     1      -3.282  14.796  21.462  0.00  0.00    +0.000 A 
ATOM     22  C   UNL     1      -4.059  15.373  22.470  0.00  0.00    +0.000 A 
ATOM     23  C   UNL     1      -4.475  14.593  23.546  0.00  0.00    +0.000 A 
ATOM     24  C   UNL     1      -4.155  13.243  23.619  0.00  0.00    +0.000 A 
ATOM     25  C   UNL     1      -3.391  12.660  22.609  0.00  0.00    +0.000 A 
BRANCH  23  26
ATOM     26  O   UNL     1      -5.205  15.123  24.567  0.00  0.00    +0.000 OA
ATOM     27  H   UNL     1      -6.150  15.049  24.351  0.00  0.00    +0.000 HD
ENDBRANCH  23  26
ENDBRANCH   7  20
BRANCH   8  28
ATOM     28  C   UNL     1       0.176  13.518  21.737  0.00  0.00    +0.000 C 
ATOM     29  O   UNL     1       1.116  14.235  21.431  0.00  0.00    +0.000 OA
BRANCH  28  30
ATOM     30  O   UNL     1      -0.096  13.305  23.034  0.00  0.00    +0.000 OA
ATOM     31  H   UNL     1       0.248  12.495  23.441  0.00  0.00    +0.000 HD
ENDBRANCH  28  30
ENDBRANCH   8  28
BRANCH   1  32
ATOM     32  O   UNL     1      -5.668  10.943  17.840  0.00  0.00    +0.000 OA
BRANCH  32  34
ATOM     33  C   UNL     1      -7.533  12.059  18.852  0.00  0.00    +0.000 C 
ATOM     34  C   UNL     1      -6.445  11.006  19.047  0.00  0.00    +0.000 C 
ATOM     35  C   UNL     1      -7.080   9.646  19.330  0.00  0.00    +0.000 C 
ENDBRANCH  32  34
ENDBRANCH   1  32
TORSDOF 7
ENDMDL
MODEL 3
REMARK VINA RESULT:      -7.0      2.246      7.214
REMARK  Name = 
REMARK  9 active torsions:
REMARK  status: ('A' for Active; 'I' for Inactive)
REMARK    1  A    between atoms: C_1  and  C_2
REMARK    2  A    between atoms: C_2  and  C_3
REMARK    3  A    between atoms: C_2  and  O_4
REMARK    4  A    between atoms: O_4  and  C_5
REMARK    5  A    between atoms: C_11  and  C_12
REMARK    6  A    between atoms: C_15  and  O_16
REMARK    7  A    between atoms: C_19  and  C_20
REMARK    8  A    between atoms: C_20  and  O_22
REMARK    9  A    between atoms: C_23  and  C_24
REMARK                            x       y       z     vdW  Elec       q    Type
REMARK                         _______ _______ _______ _____ _____    ______ ____
ROOT
ATOM      1  C   UNL     1       0.779   8.850  20.460  0.00  0.00    +0.000 A 
ATOM      2  C   UNL     1       0.122   8.406  21.604  0.00  0.00    +0.000 A 
ATOM      3  C   UNL     1      -0.357   9.324  22.533  0.00  0.00    +0.000 A 
ATOM      4  C   UNL     1      -0.177  10.688  22.324  0.00  0.00    +0.000 A 
ATOM      5  C   UNL     1       0.508  11.176  21.209  0.00  0.00    +0.000 A 
ATOM      6  C   UNL     1       0.978  10.231  20.274  0.00  0.00    +0.000 A 
ATOM      7  C   UNL     1       0.717  12.652  21.070  0.00  0.00    +0.000 C 
ATOM      8  C   UNL     1      -0.035  13.445  21.882  0.00  0.00    +0.000 C 
ATOM      9  C   UNL     1      -1.072  12.819  22.812  0.00  0.00    +0.000 C 
ATOM     10  O   UNL     1      -0.732  11.498  23.269  0.00  0.00    +0.000 OA
ENDROOT
BRANCH   9  11
ATOM     11  C   UNL     1      -2.491  12.809  22.227  0.00  0.00    +0.000 A 
ATOM     12  C   UNL     1      -2.721  12.877  20.828  0.00  0.00    +0.000 A 
ATOM     13  C   UNL     1      -4.008  12.808  20.288  0.00  0.00    +0.000 A 
ATOM     14  C   UNL     1      -5.056  12.685  21.166  0.00  0.00    +0.000 A 
ATOM     15  C   UNL     1      -4.860  12.633  22.525  0.00  0.00    +0.000 A 
ATOM     16  C   UNL     1      -3.600  12.691  23.087  0.00  0.00    +0.000 A 
ATOM     17  O   UNL     1      -6.031  12.512  23.207  0.00  0.00    +0.000 OA
ATOM     18  C   UNL     1      -6.982  12.533  22.123  0.00  0.00    +0.000 C 
ATOM     19  O   UNL     1      -6.368  12.599  20.820  0.00  0.00    +0.000 OA
ENDBRANCH   9  11
BRANCH   7  20
ATOM     20  C   UNL     1       1.681  13.220  20.111  0.00  0.00    +0.000 A 
ATOM     21  C   UNL     1       2.900  13.750  20.550  0.00  0.00    +0.000 A 
ATOM     22  C   UNL     1       3.760  14.372  19.641  0.00  0.00    +0.000 A 
ATOM     23  C   UNL     1       3.393  14.461  18.300  0.00  0.00    +0.000 A 
ATOM     24  C   UNL     1       2.197  13.917  17.847  0.00  0.00    +0.000 A 
ATOM     25  C   UNL     1       1.342  13.284  18.748  0.00  0.00    +0.000 A 
BRANCH  23  26
ATOM     26  O   UNL     1       4.185  15.089  17.387  0.00  0.00    +0.000 OA
ATOM     27  H   UNL     1       3.643  15.716  16.879  0.00  0.00    +0.000 HD
ENDBRANCH  23  26
ENDBRANCH   7  20
BRANCH   8  28
ATOM     28  C   UNL     1       0.010  14.927  22.107  0.00  0.00    +0.000 C 
ATOM     29  O   UNL     1       0.584  15.414  23.068  0.00  0.00    +0.000 OA
BRANCH  28  30
ATOM     30  O   UNL     1      -0.616  15.734  21.234  0.00  0.00    +0.000 OA
ATOM     31  H   UNL     1      -0.818  15.379  20.355  0.00  0.00    +0.000 HD
ENDBRANCH  28  30
ENDBRANCH   8  28
BRANCH   1  32
ATOM     32  O   UNL     1       1.260   8.042  19.462  0.00  0.00    +0.000 OA
BRANCH  32  34
ATOM     33  C   UNL     1       1.904   5.908  20.344  0.00  0.00    +0.000 C 
ATOM     34  C   UNL     1       2.403   7.211  19.727  0.00  0.00    +0.000 C 
ATOM     35  C   UNL     1       3.149   6.921  18.427  0.00  0.00    +0.000 C 
ENDBRANCH  32  34
ENDBRANCH   1  32
TORSDOF 7
ENDMDL
MODEL 4
REMARK VINA RESULT:      -6.9      2.237      7.139
REMARK  Name = 
REMARK  9 active torsions:
REMARK  status: ('A' for Active; 'I' for Inactive)
REMARK    1  A    between atoms: C_1  and  C_2
REMARK    2  A    between atoms: C_2  and  C_3
REMARK    3  A    between atoms: C_2  and  O_4
REMARK    4  A    between atoms: O_4  and  C_5
REMARK    5  A    between atoms: C_11  and  C_12
REMARK    6  A    between atoms: C_15  and  O_16
REMARK    7  A    between atoms: C_19  and  C_20
REMARK    8  A    between atoms: C_20  and  O_22
REMARK    9  A    between atoms: C_23  and  C_24
REMARK                            x       y       z     vdW  Elec       q    Type
REMARK                         _______ _______ _______ _____ _____    ______ ____
ROOT
ATOM      1  C   UNL     1       0.710   8.968  20.807  0.00  0.00    +0.000 A 
ATOM      2  C   UNL     1       0.009   8.561  21.939  0.00  0.00    +0.000 A 
ATOM      3  C   UNL     1      -0.541   9.507  22.797  0.00  0.00    +0.000 A 
ATOM      4  C   UNL     1      -0.390  10.864  22.530  0.00  0.00    +0.000 A 
ATOM      5  C   UNL     1       0.335  11.319  21.425  0.00  0.00    +0.000 A 
ATOM      6  C   UNL     1       0.878  10.345  20.562  0.00  0.00    +0.000 A 
ATOM      7  C   UNL     1       0.509  12.792  21.224  0.00  0.00    +0.000 C 
ATOM      8  C   UNL     1      -0.305  13.600  21.958  0.00  0.00    +0.000 C 
ATOM      9  C   UNL     1      -1.368  12.988  22.867  0.00  0.00    +0.000 C 
ATOM     10  O   UNL     1      -1.014  11.701  23.405  0.00  0.00    +0.000 OA
ENDROOT
BRANCH   9  11
ATOM     11  C   UNL     1      -2.756  12.906  22.216  0.00  0.00    +0.000 A 
ATOM     12  C   UNL     1      -2.921  12.941  20.806  0.00  0.00    +0.000 A 
ATOM     13  C   UNL     1      -4.175  12.806  20.207  0.00  0.00    +0.000 A 
ATOM     14  C   UNL     1      -5.259  12.651  21.036  0.00  0.00    +0.000 A 
ATOM     15  C   UNL     1      -5.126  12.630  22.404  0.00  0.00    +0.000 A 
ATOM     16  C   UNL     1      -3.898  12.753  23.024  0.00  0.00    +0.000 A 
ATOM     17  O   UNL     1      -6.322  12.470  23.032  0.00  0.00    +0.000 OA
ATOM     18  C   UNL     1      -7.220  12.431  21.904  0.00  0.00    +0.000 C 
ATOM     19  O   UNL     1      -6.547  12.503  20.631  0.00  0.00    +0.000 OA
ENDBRANCH   9  11
BRANCH   7  20
ATOM     20  C   UNL     1       1.503  13.343  20.284  0.00  0.00    +0.000 A 
ATOM     21  C   UNL     1       1.261  13.344  18.906  0.00  0.00    +0.000 A 
ATOM     22  C   UNL     1       2.252  13.779  18.022  0.00  0.00    +0.000 A 
ATOM     23  C   UNL     1       3.478  14.207  18.524  0.00  0.00    +0.000 A 
ATOM     24  C   UNL     1       3.722  14.235  19.892  0.00  0.00    +0.000 A 
ATOM     25  C   UNL     1       2.731  13.814  20.778  0.00  0.00    +0.000 A 
BRANCH  23  26
ATOM     26  O   UNL     1       4.484  14.606  17.697  0.00  0.00    +0.000 OA
ATOM     27  H   UNL     1       4.142  15.284  17.090  0.00  0.00    +0.000 HD
ENDBRANCH  23  26
ENDBRANCH   7  20
BRANCH   8  28
ATOM     28  C   UNL     1      -0.313  15.092  22.110  0.00  0.00    +0.000 C 
ATOM     29  O   UNL     1      -0.878  15.816  21.306  0.00  0.00    +0.000 OA
BRANCH  28  30
ATOM     30  O   UNL     1       0.336  15.640  23.150  0.00  0.00    +0.000 OA
ATOM     31  H   UNL     1       1.180  16.082  22.974  0.00  0.00    +0.000 HD
ENDBRANCH  28  30
ENDBRANCH   8  28
BRANCH   1  32
ATOM     32  O   UNL     1       1.261   8.128  19.875  0.00  0.00    +0.000 OA
BRANCH  32  34
ATOM     33  C   UNL     1       2.829   7.581  18.145  0.00  0.00    +0.000 C 
ATOM     34  C   UNL     1       1.996   8.693  18.776  0.00  0.00    +0.000 C 
ATOM     35  C   UNL     1       1.028   9.270  17.744  0.00  0.00    +0.000 C 
ENDBRANCH  32  34
ENDBRANCH   1  32
TORSDOF 7
ENDMDL
MODEL 5
REMARK VINA RESULT:      -6.9      1.086      1.735
REMARK  Name = 
REMARK  9 active torsions:
REMARK  status: ('A' for Active; 'I' for Inactive)
REMARK    1  A    between atoms: C_1  and  C_2
REMARK    2  A    between atoms: C_2  and  C_3
REMARK    3  A    between atoms: C_2  and  O_4
REMARK    4  A    between atoms: O_4  and  C_5
REMARK    5  A    between atoms: C_11  and  C_12
REMARK    6  A    between atoms: C_15  and  O_16
REMARK    7  A    between atoms: C_19  and  C_20
REMARK    8  A    between atoms: C_20  and  O_22
REMARK    9  A    between atoms: C_23  and  C_24
REMARK                            x       y       z     vdW  Elec       q    Type
REMARK                         _______ _______ _______ _____ _____    ______ ____
ROOT
ATOM      1  C   UNL     1      -4.592  11.022  18.107  0.00  0.00    +0.000 A 
ATOM      2  C   UNL     1      -3.972  10.932  16.864  0.00  0.00    +0.000 A 
ATOM      3  C   UNL     1      -2.656  11.356  16.709  0.00  0.00    +0.000 A 
ATOM      4  C   UNL     1      -1.957  11.875  17.793  0.00  0.00    +0.000 A 
ATOM      5  C   UNL     1      -2.551  12.017  19.050  0.00  0.00    +0.000 A 
ATOM      6  C   UNL     1      -3.882  11.574  19.191  0.00  0.00    +0.000 A 
ATOM      7  C   UNL     1      -1.762  12.636  20.164  0.00  0.00    +0.000 C 
ATOM      8  C   UNL     1      -0.420  12.742  19.963  0.00  0.00    +0.000 C 
ATOM      9  C   UNL     1       0.208  12.181  18.689  0.00  0.00    +0.000 C 
ATOM     10  O   UNL     1      -0.660  12.210  17.542  0.00  0.00    +0.000 OA
ENDROOT
BRANCH   9  11
ATOM     11  C   UNL     1       0.781  10.767  18.862  0.00  0.00    +0.000 A 
ATOM     12  C   UNL     1       1.628  10.182  17.885  0.00  0.00    +0.000 A 
ATOM     13  C   UNL     1       2.199   8.920  18.064  0.00  0.00    +0.000 A 
ATOM     14  C   UNL     1       1.899   8.250  19.225  0.00  0.00    +0.000 A 
ATOM     15  C   UNL     1       1.069   8.789  20.178  0.00  0.00    +0.000 A 
ATOM     16  C   UNL     1       0.496  10.037  20.031  0.00  0.00    +0.000 A 
ATOM     17  O   UNL     1       0.906   7.958  21.243  0.00  0.00    +0.000 OA
ATOM     18  C   UNL     1       1.697   6.826  20.831  0.00  0.00    +0.000 C 
ATOM     19  O   UNL     1       2.366   7.020  19.569  0.00  0.00    +0.000 OA
ENDBRANCH   9  11
BRANCH   7  20
ATOM     20  C   UNL     1      -2.399  13.105  21.408  0.00  0.00    +0.000 A 
ATOM     21  C   UNL     1      -2.889  14.412  21.512  0.00  0.00    +0.000 A 
ATOM     22  C   UNL     1      -3.401  14.871  22.729  0.00  0.00    +0.000 A 
ATOM     23  C   UNL     1      -3.417  14.020  23.831  0.00  0.00    +0.000 A 
ATOM     24  C   UNL     1      -2.958  12.712  23.733  0.00  0.00    +0.000 A 
ATOM     25  C   UNL     1      -2.458  12.246  22.518  0.00  0.00    +0.000 A 
BRANCH  23  26
ATOM     26  O   UNL     1      -3.876  14.437  25.044  0.00  0.00    +0.000 OA
ATOM     27  H   UNL     1      -4.715  14.911  24.918  0.00  0.00    +0.000 HD
ENDBRANCH  23  26
ENDBRANCH   7  20
BRANCH   8  28
ATOM     28  C   UNL     1       0.635  13.419  20.786  0.00  0.00    +0.000 C 
ATOM     29  O   UNL     1       1.226  12.834  21.679  0.00  0.00    +0.000 OA
BRANCH  28  30
ATOM     30  O   UNL     1       0.919  14.709  20.542  0.00  0.00    +0.000 OA
ATOM     31  H   UNL     1       1.541  15.155  21.136  0.00  0.00    +0.000 HD
ENDBRANCH  28  30
ENDBRANCH   8  28
BRANCH   1  32
ATOM     32  O   UNL     1      -5.867  10.602  18.386  0.00  0.00    +0.000 OA
BRANCH  32  34
ATOM     33  C   UNL     1      -7.476  12.270  19.001  0.00  0.00    +0.000 C 
ATOM     34  C   UNL     1      -6.555  11.167  19.515  0.00  0.00    +0.000 C 
ATOM     35  C   UNL     1      -7.375  10.088  20.219  0.00  0.00    +0.000 C 
ENDBRANCH  32  34
ENDBRANCH   1  32
TORSDOF 7
ENDMDL
MODEL 6
REMARK VINA RESULT:      -6.8      2.146      6.899
REMARK  Name = 
REMARK  9 active torsions:
REMARK  status: ('A' for Active; 'I' for Inactive)
REMARK    1  A    between atoms: C_1  and  C_2
REMARK    2  A    between atoms: C_2  and  C_3
REMARK    3  A    between atoms: C_2  and  O_4
REMARK    4  A    between atoms: O_4  and  C_5
REMARK    5  A    between atoms: C_11  and  C_12
REMARK    6  A    between atoms: C_15  and  O_16
REMARK    7  A    between atoms: C_19  and  C_20
REMARK    8  A    between atoms: C_20  and  O_22
REMARK    9  A    between atoms: C_23  and  C_24
REMARK                            x       y       z     vdW  Elec       q    Type
REMARK                         _______ _______ _______ _____ _____    ______ ____
ROOT
ATOM      1  C   UNL     1       0.795   9.401  21.919  0.00  0.00    +0.000 A 
ATOM      2  C   UNL     1      -0.130   9.244  22.948  0.00  0.00    +0.000 A 
ATOM      3  C   UNL     1      -0.982  10.291  23.285  0.00  0.00    +0.000 A 
ATOM      4  C   UNL     1      -0.911  11.498  22.599  0.00  0.00    +0.000 A 
ATOM      5  C   UNL     1       0.025  11.712  21.584  0.00  0.00    +0.000 A 
ATOM      6  C   UNL     1       0.874  10.637  21.250  0.00  0.00    +0.000 A 
ATOM      7  C   UNL     1       0.088  13.054  20.921  0.00  0.00    +0.000 C 
ATOM      8  C   UNL     1      -0.970  13.882  21.139  0.00  0.00    +0.000 C 
ATOM      9  C   UNL     1      -2.163  13.397  21.959  0.00  0.00    +0.000 C 
ATOM     10  O   UNL     1      -1.827  12.434  22.974  0.00  0.00    +0.000 OA
ENDROOT
BRANCH   9  11
ATOM     11  C   UNL     1      -3.315  12.855  21.101  0.00  0.00    +0.000 A 
ATOM     12  C   UNL     1      -4.642  12.774  21.600  0.00  0.00    +0.000 A 
ATOM     13  C   UNL     1      -5.704  12.338  20.805  0.00  0.00    +0.000 A 
ATOM     14  C   UNL     1      -5.417  11.973  19.513  0.00  0.00    +0.000 A 
ATOM     15  C   UNL     1      -4.138  12.028  19.011  0.00  0.00    +0.000 A 
ATOM     16  C   UNL     1      -3.070  12.461  19.773  0.00  0.00    +0.000 A 
ATOM     17  O   UNL     1      -4.078  11.620  17.715  0.00  0.00    +0.000 OA
ATOM     18  C   UNL     1      -5.457  11.269  17.475  0.00  0.00    +0.000 C 
ATOM     19  O   UNL     1      -6.321  11.531  18.599  0.00  0.00    +0.000 OA
ENDBRANCH   9  11
BRANCH   7  20
ATOM     20  C   UNL     1       1.229  13.459  20.080  0.00  0.00    +0.000 A 
ATOM     21  C   UNL     1       1.215  13.235  18.698  0.00  0.00    +0.000 A 
ATOM     22  C   UNL     1       2.342  13.535  17.930  0.00  0.00    +0.000 A 
ATOM     23  C   UNL     1       3.476  14.055  18.549  0.00  0.00    +0.000 A 
ATOM     24  C   UNL     1       3.494  14.306  19.916  0.00  0.00    +0.000 A 
ATOM     25  C   UNL     1       2.367  14.020  20.685  0.00  0.00    +0.000 A 
BRANCH  23  26
ATOM     26  O   UNL     1       4.608  14.330  17.843  0.00  0.00    +0.000 OA
ATOM     27  H   UNL     1       5.008  13.494  17.551  0.00  0.00    +0.000 HD
ENDBRANCH  23  26
ENDBRANCH   7  20
BRANCH   8  28
ATOM     28  C   UNL     1      -1.175  15.317  20.755  0.00  0.00    +0.000 C 
ATOM     29  O   UNL     1      -1.024  16.225  21.557  0.00  0.00    +0.000 OA
BRANCH  28  30
ATOM     30  O   UNL     1      -1.554  15.603  19.499  0.00  0.00    +0.000 OA
ATOM     31  H   UNL     1      -2.505  15.629  19.307  0.00  0.00    +0.000 HD
ENDBRANCH  28  30
ENDBRANCH   8  28
BRANCH   1  32
ATOM     32  O   UNL     1       1.657   8.431  21.477  0.00  0.00    +0.000 OA
BRANCH  32  34
ATOM     33  C   UNL     1       1.970   8.154  19.117  0.00  0.00    +0.000 C 
ATOM     34  C   UNL     1       1.271   7.612  20.361  0.00  0.00    +0.000 C 
ATOM     35  C   UNL     1       1.690   6.164  20.606  0.00  0.00    +0.000 C 
ENDBRANCH  32  34
ENDBRANCH   1  32
TORSDOF 7
ENDMDL
MODEL 7
REMARK VINA RESULT:      -6.8      0.945      1.109
REMARK  Name = 
REMARK  9 active torsions:
REMARK  status: ('A' for Active; 'I' for Inactive)
REMARK    1  A    between atoms: C_1  and  C_2
REMARK    2  A    between atoms: C_2  and  C_3
REMARK    3  A    between atoms: C_2  and  O_4
REMARK    4  A    between atoms: O_4  and  C_5
REMARK    5  A    between atoms: C_11  and  C_12
REMARK    6  A    between atoms: C_15  and  O_16
REMARK    7  A    between atoms: C_19  and  C_20
REMARK    8  A    between atoms: C_20  and  O_22
REMARK    9  A    between atoms: C_23  and  C_24
REMARK                            x       y       z     vdW  Elec       q    Type
REMARK                         _______ _______ _______ _____ _____    ______ ____
ROOT
ATOM      1  C   UNL     1      -4.603  11.059  18.071  0.00  0.00    +0.000 A 
ATOM      2  C   UNL     1      -3.907  10.883  16.878  0.00  0.00    +0.000 A 
ATOM      3  C   UNL     1      -2.582  11.296  16.777  0.00  0.00    +0.000 A 
ATOM      4  C   UNL     1      -1.950  11.890  17.864  0.00  0.00    +0.000 A 
ATOM      5  C   UNL     1      -2.621  12.119  19.068  0.00  0.00    +0.000 A 
ATOM      6  C   UNL     1      -3.959  11.686  19.156  0.00  0.00    +0.000 A 
ATOM      7  C   UNL     1      -1.901  12.814  20.182  0.00  0.00    +0.000 C 
ATOM      8  C   UNL     1      -0.549  12.907  20.059  0.00  0.00    +0.000 C 
ATOM      9  C   UNL     1       0.156  12.258  18.870  0.00  0.00    +0.000 C 
ATOM     10  O   UNL     1      -0.639  12.206  17.671  0.00  0.00    +0.000 OA
ENDROOT
BRANCH   9  11
ATOM     11  C   UNL     1       0.711  10.860  19.176  0.00  0.00    +0.000 A 
ATOM     12  C   UNL     1       0.425  10.195  20.397  0.00  0.00    +0.000 A 
ATOM     13  C   UNL     1       0.879   8.900  20.655  0.00  0.00    +0.000 A 
ATOM     14  C   UNL     1       1.631   8.288  19.683  0.00  0.00    +0.000 A 
ATOM     15  C   UNL     1       1.935   8.917  18.499  0.00  0.00    +0.000 A 
ATOM     16  C   UNL     1       1.494  10.194  18.214  0.00  0.00    +0.000 A 
ATOM     17  O   UNL     1       2.690   8.134  17.683  0.00  0.00    +0.000 OA
ATOM     18  C   UNL     1       2.855   6.961  18.505  0.00  0.00    +0.000 C 
ATOM     19  O   UNL     1       2.150   7.034  19.760  0.00  0.00    +0.000 OA
ENDBRANCH   9  11
BRANCH   7  20
ATOM     20  C   UNL     1      -2.612  13.368  21.349  0.00  0.00    +0.000 A 
ATOM     21  C   UNL     1      -2.771  12.612  22.516  0.00  0.00    +0.000 A 
ATOM     22  C   UNL     1      -3.531  13.113  23.575  0.00  0.00    +0.000 A 
ATOM     23  C   UNL     1      -4.127  14.366  23.459  0.00  0.00    +0.000 A 
ATOM     24  C   UNL     1      -3.956  15.138  22.317  0.00  0.00    +0.000 A 
ATOM     25  C   UNL     1      -3.188  14.647  21.262  0.00  0.00    +0.000 A 
BRANCH  23  26
ATOM     26  O   UNL     1      -4.905  14.878  24.455  0.00  0.00    +0.000 OA
ATOM     27  H   UNL     1      -4.477  14.702  25.310  0.00  0.00    +0.000 HD
ENDBRANCH  23  26
ENDBRANCH   7  20
BRANCH   8  28
ATOM     28  C   UNL     1       0.456  13.640  20.898  0.00  0.00    +0.000 C 
ATOM     29  O   UNL     1       0.991  13.117  21.862  0.00  0.00    +0.000 OA
BRANCH  28  30
ATOM     30  O   UNL     1       0.755  14.911  20.585  0.00  0.00    +0.000 OA
ATOM     31  H   UNL     1       1.585  15.077  20.112  0.00  0.00    +0.000 HD
ENDBRANCH  28  30
ENDBRANCH   8  28
BRANCH   1  32
ATOM     32  O   UNL     1      -5.895  10.659  18.298  0.00  0.00    +0.000 OA
BRANCH  32  34
ATOM     33  C   UNL     1      -7.365  12.148  19.469  0.00  0.00    +0.000 C 
ATOM     34  C   UNL     1      -6.960  11.603  18.101  0.00  0.00    +0.000 C 
ATOM     35  C   UNL     1      -6.487  12.745  17.205  0.00  0.00    +0.000 C 
ENDBRANCH  32  34
ENDBRANCH   1  32
TORSDOF 7
ENDMDL
MODEL 8
REMARK VINA RESULT:      -6.8      2.338      7.935
REMARK  Name = 
REMARK  9 active torsions:
REMARK  status: ('A' for Active; 'I' for Inactive)
REMARK    1  A    between atoms: C_1  and  C_2
REMARK    2  A    between atoms: C_2  and  C_3
REMARK    3  A    between atoms: C_2  and  O_4
REMARK    4  A    between atoms: O_4  and  C_5
REMARK    5  A    between atoms: C_11  and  C_12
REMARK    6  A    between atoms: C_15  and  O_16
REMARK    7  A    between atoms: C_19  and  C_20
REMARK    8  A    between atoms: C_20  and  O_22
REMARK    9  A    between atoms: C_23  and  C_24
REMARK                            x       y       z     vdW  Elec       q    Type
REMARK                         _______ _______ _______ _____ _____    ______ ____
ROOT
ATOM      1  C   UNL     1       2.482  13.771  20.913  0.00  0.00    +0.000 A 
ATOM      2  C   UNL     1       1.817  14.947  20.578  0.00  0.00    +0.000 A 
ATOM      3  C   UNL     1       0.661  14.898  19.806  0.00  0.00    +0.000 A 
ATOM      4  C   UNL     1       0.168  13.676  19.362  0.00  0.00    +0.000 A 
ATOM      5  C   UNL     1       0.823  12.474  19.643  0.00  0.00    +0.000 A 
ATOM      6  C   UNL     1       1.988  12.542  20.435  0.00  0.00    +0.000 A 
ATOM      7  C   UNL     1       0.273  11.196  19.088  0.00  0.00    +0.000 C 
ATOM      8  C   UNL     1      -0.996  11.250  18.599  0.00  0.00    +0.000 C 
ATOM      9  C   UNL     1      -1.798  12.545  18.701  0.00  0.00    +0.000 C 
ATOM     10  O   UNL     1      -0.997  13.740  18.659  0.00  0.00    +0.000 OA
ENDROOT
BRANCH   9  11
ATOM     11  C   UNL     1      -2.727  12.595  19.923  0.00  0.00    +0.000 A 
ATOM     12  C   UNL     1      -4.135  12.706  19.785  0.00  0.00    +0.000 A 
ATOM     13  C   UNL     1      -4.988  12.692  20.891  0.00  0.00    +0.000 A 
ATOM     14  C   UNL     1      -4.412  12.580  22.132  0.00  0.00    +0.000 A 
ATOM     15  C   UNL     1      -3.049  12.488  22.292  0.00  0.00    +0.000 A 
ATOM     16  C   UNL     1      -2.183  12.492  21.217  0.00  0.00    +0.000 A 
ATOM     17  O   UNL     1      -2.693  12.388  23.601  0.00  0.00    +0.000 OA
ATOM     18  C   UNL     1      -3.983  12.466  24.242  0.00  0.00    +0.000 C 
ATOM     19  O   UNL     1      -5.083  12.546  23.313  0.00  0.00    +0.000 OA
ENDBRANCH   9  11
BRANCH   7  20
ATOM     20  C   UNL     1       1.058   9.948  19.070  0.00  0.00    +0.000 A 
ATOM     21  C   UNL     1       1.768   9.566  17.926  0.00  0.00    +0.000 A 
ATOM     22  C   UNL     1       2.427   8.335  17.891  0.00  0.00    +0.000 A 
ATOM     23  C   UNL     1       2.367   7.494  18.999  0.00  0.00    +0.000 A 
ATOM     24  C   UNL     1       1.687   7.872  20.150  0.00  0.00    +0.000 A 
ATOM     25  C   UNL     1       1.040   9.106  20.194  0.00  0.00    +0.000 A 
BRANCH  23  26
ATOM     26  O   UNL     1       2.966   6.269  18.995  0.00  0.00    +0.000 OA
ATOM     27  H   UNL     1       2.283   5.585  19.092  0.00  0.00    +0.000 HD
ENDBRANCH  23  26
ENDBRANCH   7  20
BRANCH   8  28
ATOM     28  C   UNL     1      -1.798  10.221  17.860  0.00  0.00    +0.000 C 
ATOM     29  O   UNL     1      -2.665   9.564  18.413  0.00  0.00    +0.000 OA
BRANCH  28  30
ATOM     30  O   UNL     1      -1.536  10.007  16.560  0.00  0.00    +0.000 OA
ATOM     31  H   UNL     1      -1.059   9.198  16.322  0.00  0.00    +0.000 HD
ENDBRANCH  28  30
ENDBRANCH   8  28
BRANCH   1  32
ATOM     32  O   UNL     1       3.605  13.694  21.696  0.00  0.00    +0.000 OA
BRANCH  32  34
ATOM     33  C   UNL     1       5.108  14.749  23.238  0.00  0.00    +0.000 C 
ATOM     34  C   UNL     1       4.400  14.875  21.891  0.00  0.00    +0.000 C 
ATOM     35  C   UNL     1       5.430  15.001  20.770  0.00  0.00    +0.000 C 
ENDBRANCH  32  34
ENDBRANCH   1  32
TORSDOF 7
ENDMDL
MODEL 9
REMARK VINA RESULT:      -6.7      2.732      6.140
REMARK  Name = 
REMARK  9 active torsions:
REMARK  status: ('A' for Active; 'I' for Inactive)
REMARK    1  A    between atoms: C_1  and  C_2
REMARK    2  A    between atoms: C_2  and  C_3
REMARK    3  A    between atoms: C_2  and  O_4
REMARK    4  A    between atoms: O_4  and  C_5
REMARK    5  A    between atoms: C_11  and  C_12
REMARK    6  A    between atoms: C_15  and  O_16
REMARK    7  A    between atoms: C_19  and  C_20
REMARK    8  A    between atoms: C_20  and  O_22
REMARK    9  A    between atoms: C_23  and  C_24
REMARK                            x       y       z     vdW  Elec       q    Type
REMARK                         _______ _______ _______ _____ _____    ______ ____
ROOT
ATOM      1  C   UNL     1      -1.489  11.443  17.766  0.00  0.00    +0.000 A 
ATOM      2  C   UNL     1      -1.562  10.379  18.661  0.00  0.00    +0.000 A 
ATOM      3  C   UNL     1      -1.168  10.554  19.984  0.00  0.00    +0.000 A 
ATOM      4  C   UNL     1      -0.696  11.788  20.415  0.00  0.00    +0.000 A 
ATOM      5  C   UNL     1      -0.572  12.873  19.543  0.00  0.00    +0.000 A 
ATOM      6  C   UNL     1      -0.985  12.680  18.209  0.00  0.00    +0.000 A 
ATOM      7  C   UNL     1      -0.004  14.160  20.056  0.00  0.00    +0.000 C 
ATOM      8  C   UNL     1       0.073  14.287  21.409  0.00  0.00    +0.000 C 
ATOM      9  C   UNL     1      -0.470  13.180  22.311  0.00  0.00    +0.000 C 
ATOM     10  O   UNL     1      -0.389  11.862  21.741  0.00  0.00    +0.000 OA
ENDROOT
BRANCH   9  11
ATOM     11  C   UNL     1      -1.903  13.438  22.800  0.00  0.00    +0.000 A 
ATOM     12  C   UNL     1      -2.551  14.682  22.586  0.00  0.00    +0.000 A 
ATOM     13  C   UNL     1      -3.874  14.902  22.975  0.00  0.00    +0.000 A 
ATOM     14  C   UNL     1      -4.531  13.866  23.593  0.00  0.00    +0.000 A 
ATOM     15  C   UNL     1      -3.920  12.657  23.826  0.00  0.00    +0.000 A 
ATOM     16  C   UNL     1      -2.615  12.410  23.445  0.00  0.00    +0.000 A 
ATOM     17  O   UNL     1      -4.748  11.777  24.450  0.00  0.00    +0.000 OA
ATOM     18  C   UNL     1      -5.932  12.584  24.613  0.00  0.00    +0.000 C 
ATOM     19  O   UNL     1      -5.816  13.898  24.034  0.00  0.00    +0.000 OA
ENDBRANCH   9  11
BRANCH   7  20
ATOM     20  C   UNL     1       0.447  15.233  19.151  0.00  0.00    +0.000 A 
ATOM     21  C   UNL     1       1.781  15.300  18.730  0.00  0.00    +0.000 A 
ATOM     22  C   UNL     1       2.215  16.376  17.952  0.00  0.00    +0.000 A 
ATOM     23  C   UNL     1       1.313  17.378  17.604  0.00  0.00    +0.000 A 
ATOM     24  C   UNL     1      -0.019  17.310  17.994  0.00  0.00    +0.000 A 
ATOM     25  C   UNL     1      -0.460  16.232  18.759  0.00  0.00    +0.000 A 
BRANCH  23  26
ATOM     26  O   UNL     1       1.702  18.462  16.875  0.00  0.00    +0.000 OA
ATOM     27  H   UNL     1       1.955  19.176  17.484  0.00  0.00    +0.000 HD
ENDBRANCH  23  26
ENDBRANCH   7  20
BRANCH   8  28
ATOM     28  C   UNL     1       0.700  15.357  22.252  0.00  0.00    +0.000 C 
ATOM     29  O   UNL     1       1.775  15.191  22.806  0.00  0.00    +0.000 OA
BRANCH  28  30
ATOM     30  O   UNL     1       0.047  16.520  22.412  0.00  0.00    +0.000 OA
ATOM     31  H   UNL     1       0.090  16.947  23.282  0.00  0.00    +0.000 HD
ENDBRANCH  28  30
ENDBRANCH   8  28
BRANCH   1  32
ATOM     32  O   UNL     1      -1.883  11.398  16.453  0.00  0.00    +0.000 OA
BRANCH  32  34
ATOM     33  C   UNL     1      -4.279  11.364  16.360  0.00  0.00    +0.000 C 
ATOM     34  C   UNL     1      -3.002  10.572  16.089  0.00  0.00    +0.000 C 
ATOM     35  C   UNL     1      -2.920  10.205  14.609  0.00  0.00    +0.000 C 
ENDBRANCH  32  34
ENDBRANCH   1  32
TORSDOF 7
ENDMDL
