MODEL 1
REMARK VINA RESULT:      -7.6      0.000      0.000
REMARK  Name = 
REMARK  13 active torsions:
REMARK  status: ('A' for Active; 'I' for Inactive)
REMARK    1  A    between atoms: C_1  and  O_2
REMARK    2  A    between atoms: O_2  and  C_3
REMARK    3  A    between atoms: C_3  and  C_5
REMARK    4  A    between atoms: N_7  and  C_8
REMARK    5  A    between atoms: C_15  and  N_16
REMARK    6  A    between atoms: N_16  and  C_17
REMARK    7  A    between atoms: C_17  and  C_18
REMARK    8  A    between atoms: C_18  and  N_19
REMARK    9  A    between atoms: C_20  and  O_22
REMARK   10  A    between atoms: O_22  and  C_23
REMARK   11  A    between atoms: C_23  and  C_24
REMARK   12  A    between atoms: C_23  and  C_25
REMARK   13  A    between atoms: C_23  and  C_26
REMARK                            x       y       z     vdW  Elec       q    Type
REMARK                         _______ _______ _______ _____ _____    ______ ____
ROOT
ATOM      1  C   UNL     1       5.035   5.143  17.558  0.00  0.00    +0.000 A 
ATOM      2  C   UNL     1       4.451   4.608  18.646  0.00  0.00    +0.000 A 
ATOM      3  N   UNL     1       3.372   5.136  19.339  0.00  0.00    +0.000 N 
ATOM      4  C   UNL     1       2.925   6.448  19.018  0.00  0.00    +0.000 A 
ATOM      5  C   UNL     1       1.979   7.153  19.771  0.00  0.00    +0.000 A 
ATOM      6  C   UNL     1       1.567   8.439  19.385  0.00  0.00    +0.000 A 
ATOM      7 CL   UNL     1       0.379   9.237  20.360  0.00  0.00    +0.000 Cl
ATOM      8  C   UNL     1       2.072   9.061  18.225  0.00  0.00    +0.000 A 
ATOM      9  C   UNL     1       3.064   8.379  17.523  0.00  0.00    +0.000 A 
ATOM     10  C   UNL     1       3.457   7.090  17.890  0.00  0.00    +0.000 A 
ATOM     11  C   UNL     1       4.450   6.398  17.040  0.00  0.00    +0.000 A 
ATOM     12  O   UNL     1       4.731   6.865  15.941  0.00  0.00    +0.000 OA
ENDROOT
BRANCH   3  13
ATOM     13  C   UNL     1       2.937   4.456  20.575  0.00  0.00    +0.000 C 
ATOM     14  C   UNL     1       1.499   4.059  20.804  0.00  0.00    +0.000 C 
ATOM     15  C   UNL     1       2.533   3.001  20.585  0.00  0.00    +0.000 C 
ENDBRANCH   3  13
BRANCH   1  16
ATOM     16  C   UNL     1       6.201   4.468  16.952  0.00  0.00    +0.000 C 
ATOM     17  O   UNL     1       7.358   4.659  17.300  0.00  0.00    +0.000 OA
BRANCH  16  19
ATOM     18  C   UNL     1       6.319   4.011  14.651  0.00  0.00    +0.000 C 
ATOM     19  O   UNL     1       5.807   3.667  15.936  0.00  0.00    +0.000 OA
ENDBRANCH  16  19
ENDBRANCH   1  16
BRANCH   8  20
ATOM     20  N   UNL     1       1.663  10.344  17.836  0.00  0.00    +0.000 N 
ATOM     21  H   UNL     1       1.678  10.463  16.822  0.00  0.00    +0.000 HD
BRANCH  20  22
ATOM     22  C   UNL     1       2.149  11.520  18.571  0.00  0.00    +0.000 C 
BRANCH  22  23
ATOM     23  C   UNL     1       1.040  12.550  18.862  0.00  0.00    +0.000 C 
BRANCH  23  24
ATOM     24  N   UNL     1      -0.051  12.480  17.915  0.00  0.00    +0.000 N 
ATOM     25  C   UNL     1      -1.288  12.094  18.332  0.00  0.00    +0.000 C 
ATOM     26  O   UNL     1      -1.545  11.826  19.496  0.00  0.00    +0.000 OA
ATOM     27  H   UNL     1       0.069  12.734  16.945  0.00  0.00    +0.000 HD
BRANCH  25  28
ATOM     28  O   UNL     1      -2.150  12.046  17.288  0.00  0.00    +0.000 OA
BRANCH  28  29
ATOM     29  C   UNL     1      -2.648  10.746  16.875  0.00  0.00    +0.000 C 
ATOM     30  C   UNL     1      -1.668   9.631  17.266  0.00  0.00    +0.000 C 
ATOM     31  C   UNL     1      -3.963  10.518  17.642  0.00  0.00    +0.000 C 
ATOM     32  C   UNL     1      -2.975  10.743  15.374  0.00  0.00    +0.000 C 
ENDBRANCH  28  29
ENDBRANCH  25  28
ENDBRANCH  23  24
ENDBRANCH  22  23
ENDBRANCH  20  22
ENDBRANCH   8  20
TORSDOF 9
ENDMDL
MODEL 2
REMARK VINA RESULT:      -7.5      2.755      9.372
REMARK  Name = 
REMARK  13 active torsions:
REMARK  status: ('A' for Active; 'I' for Inactive)
REMARK    1  A    between atoms: C_1  and  O_2
REMARK    2  A    between atoms: O_2  and  C_3
REMARK    3  A    between atoms: C_3  and  C_5
REMARK    4  A    between atoms: N_7  and  C_8
REMARK    5  A    between atoms: C_15  and  N_16
REMARK    6  A    between atoms: N_16  and  C_17
REMARK    7  A    between atoms: C_17  and  C_18
REMARK    8  A    between atoms: C_18  and  N_19
REMARK    9  A    between atoms: C_20  and  O_22
REMARK   10  A    between atoms: O_22  and  C_23
REMARK   11  A    between atoms: C_23  and  C_24
REMARK   12  A    between atoms: C_23  and  C_25
REMARK   13  A    between atoms: C_23  and  C_26
REMARK                            x       y       z     vdW  Elec       q    Type
REMARK                         _______ _______ _______ _____ _____    ______ ____
ROOT
ATOM      1  C   UNL     1      -0.914  11.718  22.097  0.00  0.00    +0.000 A 
ATOM      2  C   UNL     1      -0.834  12.279  20.878  0.00  0.00    +0.000 A 
ATOM      3  N   UNL     1      -0.287  11.697  19.743  0.00  0.00    +0.000 N 
ATOM      4  C   UNL     1       0.425  10.473  19.875  0.00  0.00    +0.000 A 
ATOM      5  C   UNL     1       1.176   9.896  18.843  0.00  0.00    +0.000 A 
ATOM      6  C   UNL     1       1.840   8.673  19.036  0.00  0.00    +0.000 A 
ATOM      7 CL   UNL     1       2.733   8.017  17.705  0.00  0.00    +0.000 Cl
ATOM      8  C   UNL     1       1.765   7.975  20.258  0.00  0.00    +0.000 A 
ATOM      9  C   UNL     1       1.074   8.593  21.298  0.00  0.00    +0.000 A 
ATOM     10  C   UNL     1       0.392   9.796  21.103  0.00  0.00    +0.000 A 
ATOM     11  C   UNL     1      -0.394  10.341  22.231  0.00  0.00    +0.000 A 
ATOM     12  O   UNL     1      -0.608   9.635  23.211  0.00  0.00    +0.000 OA
ENDROOT
BRANCH   3  13
ATOM     13  C   UNL     1      -0.196  12.512  18.516  0.00  0.00    +0.000 C 
ATOM     14  C   UNL     1      -0.398  14.008  18.532  0.00  0.00    +0.000 C 
ATOM     15  C   UNL     1       0.962  13.448  18.262  0.00  0.00    +0.000 C 
ENDBRANCH   3  13
BRANCH   1  16
ATOM     16  C   UNL     1      -1.500  12.486  23.215  0.00  0.00    +0.000 C 
ATOM     17  O   UNL     1      -0.931  13.407  23.784  0.00  0.00    +0.000 OA
BRANCH  16  19
ATOM     18  C   UNL     1      -3.831  12.716  23.030  0.00  0.00    +0.000 C 
ATOM     19  O   UNL     1      -2.715  11.991  23.542  0.00  0.00    +0.000 OA
ENDBRANCH  16  19
ENDBRANCH   1  16
BRANCH   8  20
ATOM     20  N   UNL     1       2.426   6.754  20.454  0.00  0.00    +0.000 N 
ATOM     21  H   UNL     1       3.249   6.660  19.857  0.00  0.00    +0.000 HD
BRANCH  20  22
ATOM     22  C   UNL     1       1.649   5.514  20.579  0.00  0.00    +0.000 C 
BRANCH  22  23
ATOM     23  C   UNL     1       2.422   4.268  20.105  0.00  0.00    +0.000 C 
BRANCH  23  24
ATOM     24  N   UNL     1       3.765   4.576  19.666  0.00  0.00    +0.000 N 
ATOM     25  C   UNL     1       4.609   3.571  19.304  0.00  0.00    +0.000 C 
ATOM     26  O   UNL     1       4.280   2.395  19.299  0.00  0.00    +0.000 OA
ATOM     27  H   UNL     1       4.096   5.528  19.593  0.00  0.00    +0.000 HD
BRANCH  25  28
ATOM     28  O   UNL     1       5.827   4.064  18.975  0.00  0.00    +0.000 OA
BRANCH  28  29
ATOM     29  C   UNL     1       5.984   4.674  17.667  0.00  0.00    +0.000 C 
ATOM     30  C   UNL     1       5.679   6.177  17.719  0.00  0.00    +0.000 C 
ATOM     31  C   UNL     1       7.463   4.499  17.279  0.00  0.00    +0.000 C 
ATOM     32  C   UNL     1       5.135   3.937  16.620  0.00  0.00    +0.000 C 
ENDBRANCH  28  29
ENDBRANCH  25  28
ENDBRANCH  23  24
ENDBRANCH  22  23
ENDBRANCH  20  22
ENDBRANCH   8  20
TORSDOF 9
ENDMDL
MODEL 3
REMARK VINA RESULT:      -7.3      1.439      1.919
REMARK  Name = 
REMARK  13 active torsions:
REMARK  status: ('A' for Active; 'I' for Inactive)
REMARK    1  A    between atoms: C_1  and  O_2
REMARK    2  A    between atoms: O_2  and  C_3
REMARK    3  A    between atoms: C_3  and  C_5
REMARK    4  A    between atoms: N_7  and  C_8
REMARK    5  A    between atoms: C_15  and  N_16
REMARK    6  A    between atoms: N_16  and  C_17
REMARK    7  A    between atoms: C_17  and  C_18
REMARK    8  A    between atoms: C_18  and  N_19
REMARK    9  A    between atoms: C_20  and  O_22
REMARK   10  A    between atoms: O_22  and  C_23
REMARK   11  A    between atoms: C_23  and  C_24
REMARK   12  A    between atoms: C_23  and  C_25
REMARK   13  A    between atoms: C_23  and  C_26
REMARK                            x       y       z     vdW  Elec       q    Type
REMARK                         _______ _______ _______ _____ _____    ______ ____
ROOT
ATOM      1  C   UNL     1       5.606   4.831  16.294  0.00  0.00    +0.000 A 
ATOM      2  C   UNL     1       5.246   3.835  17.123  0.00  0.00    +0.000 A 
ATOM      3  N   UNL     1       4.246   3.891  18.083  0.00  0.00    +0.000 N 
ATOM      4  C   UNL     1       3.644   5.146  18.376  0.00  0.00    +0.000 A 
ATOM      5  C   UNL     1       2.769   5.356  19.449  0.00  0.00    +0.000 A 
ATOM      6  C   UNL     1       2.195   6.619  19.669  0.00  0.00    +0.000 A 
ATOM      7 CL   UNL     1       1.108   6.793  21.007  0.00  0.00    +0.000 Cl
ATOM      8  C   UNL     1       2.459   7.712  18.819  0.00  0.00    +0.000 A 
ATOM      9  C   UNL     1       3.385   7.508  17.798  0.00  0.00    +0.000 A 
ATOM     10  C   UNL     1       3.939   6.247  17.560  0.00  0.00    +0.000 A 
ATOM     11  C   UNL     1       4.844   6.093  16.401  0.00  0.00    +0.000 A 
ATOM     12  O   UNL     1       4.910   6.990  15.566  0.00  0.00    +0.000 OA
ENDROOT
BRANCH   3  13
ATOM     13  C   UNL     1       4.066   2.725  18.971  0.00  0.00    +0.000 C 
ATOM     14  C   UNL     1       2.711   2.108  19.215  0.00  0.00    +0.000 C 
ATOM     15  C   UNL     1       3.737   1.353  18.431  0.00  0.00    +0.000 C 
ENDBRANCH   3  13
BRANCH   1  16
ATOM     16  C   UNL     1       6.717   4.621  15.344  0.00  0.00    +0.000 C 
ATOM     17  O   UNL     1       7.690   5.358  15.256  0.00  0.00    +0.000 OA
BRANCH  16  19
ATOM     18  C   UNL     1       5.960   3.834  13.265  0.00  0.00    +0.000 C 
ATOM     19  O   UNL     1       6.474   3.545  14.562  0.00  0.00    +0.000 OA
ENDBRANCH  16  19
ENDBRANCH   1  16
BRANCH   8  20
ATOM     20  N   UNL     1       1.887   8.973  19.036  0.00  0.00    +0.000 N 
ATOM     21  H   UNL     1       0.986   8.912  19.512  0.00  0.00    +0.000 HD
BRANCH  20  22
ATOM     22  C   UNL     1       1.918   9.983  17.968  0.00  0.00    +0.000 C 
BRANCH  22  23
ATOM     23  C   UNL     1       1.136  11.261  18.326  0.00  0.00    +0.000 C 
BRANCH  23  24
ATOM     24  N   UNL     1      -0.275  11.018  18.522  0.00  0.00    +0.000 N 
ATOM     25  C   UNL     1      -1.175  12.014  18.293  0.00  0.00    +0.000 C 
ATOM     26  O   UNL     1      -0.854  13.122  17.891  0.00  0.00    +0.000 OA
ATOM     27  H   UNL     1      -0.625  10.113  18.804  0.00  0.00    +0.000 HD
BRANCH  25  28
ATOM     28  O   UNL     1      -2.432  11.599  18.583  0.00  0.00    +0.000 OA
BRANCH  28  29
ATOM     29  C   UNL     1      -3.212  10.998  17.517  0.00  0.00    +0.000 C 
ATOM     30  C   UNL     1      -4.579  11.682  17.381  0.00  0.00    +0.000 C 
ATOM     31  C   UNL     1      -2.427  11.234  16.214  0.00  0.00    +0.000 C 
ATOM     32  C   UNL     1      -3.331   9.480  17.722  0.00  0.00    +0.000 C 
ENDBRANCH  28  29
ENDBRANCH  25  28
ENDBRANCH  23  24
ENDBRANCH  22  23
ENDBRANCH  20  22
ENDBRANCH   8  20
TORSDOF 9
ENDMDL
MODEL 4
REMARK VINA RESULT:      -7.3      1.468      1.708
REMARK  Name = 
REMARK  13 active torsions:
REMARK  status: ('A' for Active; 'I' for Inactive)
REMARK    1  A    between atoms: C_1  and  O_2
REMARK    2  A    between atoms: O_2  and  C_3
REMARK    3  A    between atoms: C_3  and  C_5
REMARK    4  A    between atoms: N_7  and  C_8
REMARK    5  A    between atoms: C_15  and  N_16
REMARK    6  A    between atoms: N_16  and  C_17
REMARK    7  A    between atoms: C_17  and  C_18
REMARK    8  A    between atoms: C_18  and  N_19
REMARK    9  A    between atoms: C_20  and  O_22
REMARK   10  A    between atoms: O_22  and  C_23
REMARK   11  A    between atoms: C_23  and  C_24
REMARK   12  A    between atoms: C_23  and  C_25
REMARK   13  A    between atoms: C_23  and  C_26
REMARK                            x       y       z     vdW  Elec       q    Type
REMARK                         _______ _______ _______ _____ _____    ______ ____
ROOT
ATOM      1  C   UNL     1       5.354   4.749  16.421  0.00  0.00    +0.000 A 
ATOM      2  C   UNL     1       4.826   3.862  17.282  0.00  0.00    +0.000 A 
ATOM      3  N   UNL     1       3.802   4.106  18.186  0.00  0.00    +0.000 N 
ATOM      4  C   UNL     1       3.364   5.446  18.380  0.00  0.00    +0.000 A 
ATOM      5  C   UNL     1       2.480   5.834  19.394  0.00  0.00    +0.000 A 
ATOM      6  C   UNL     1       2.073   7.174  19.517  0.00  0.00    +0.000 A 
ATOM      7 CL   UNL     1       0.963   7.570  20.786  0.00  0.00    +0.000 Cl
ATOM      8  C   UNL     1       2.519   8.168  18.624  0.00  0.00    +0.000 A 
ATOM      9  C   UNL     1       3.453   7.782  17.664  0.00  0.00    +0.000 A 
ATOM     10  C   UNL     1       3.841   6.448  17.523  0.00  0.00    +0.000 A 
ATOM     11  C   UNL     1       4.765   6.106  16.421  0.00  0.00    +0.000 A 
ATOM     12  O   UNL     1       4.989   6.933  15.543  0.00  0.00    +0.000 OA
ENDROOT
BRANCH   3  13
ATOM     13  C   UNL     1       3.428   3.030  19.125  0.00  0.00    +0.000 C 
ATOM     14  C   UNL     1       3.829   1.594  18.895  0.00  0.00    +0.000 C 
ATOM     15  C   UNL     1       4.444   2.363  20.021  0.00  0.00    +0.000 C 
ENDBRANCH   3  13
BRANCH   1  16
ATOM     16  C   UNL     1       6.466   4.337  15.541  0.00  0.00    +0.000 C 
ATOM     17  O   UNL     1       7.606   4.772  15.632  0.00  0.00    +0.000 OA
BRANCH  16  19
ATOM     18  C   UNL     1       6.262   3.854  13.252  0.00  0.00    +0.000 C 
ATOM     19  O   UNL     1       6.029   3.466  14.603  0.00  0.00    +0.000 OA
ENDBRANCH  16  19
ENDBRANCH   1  16
BRANCH   8  20
ATOM     20  N   UNL     1       2.115   9.505  18.743  0.00  0.00    +0.000 N 
ATOM     21  H   UNL     1       2.483   9.946  19.587  0.00  0.00    +0.000 HD
BRANCH  20  22
ATOM     22  C   UNL     1       0.724   9.877  18.448  0.00  0.00    +0.000 C 
BRANCH  22  23
ATOM     23  C   UNL     1       0.156  10.914  19.435  0.00  0.00    +0.000 C 
BRANCH  23  24
ATOM     24  N   UNL     1      -1.288  10.982  19.407  0.00  0.00    +0.000 N 
ATOM     25  C   UNL     1      -1.913  11.807  18.522  0.00  0.00    +0.000 C 
ATOM     26  O   UNL     1      -1.309  12.489  17.708  0.00  0.00    +0.000 OA
ATOM     27  H   UNL     1      -1.860  10.411  20.013  0.00  0.00    +0.000 HD
BRANCH  25  28
ATOM     28  O   UNL     1      -3.256  11.761  18.691  0.00  0.00    +0.000 OA
BRANCH  28  29
ATOM     29  C   UNL     1      -4.026  10.917  17.796  0.00  0.00    +0.000 C 
ATOM     30  C   UNL     1      -3.308   9.584  17.541  0.00  0.00    +0.000 C 
ATOM     31  C   UNL     1      -5.354  10.616  18.515  0.00  0.00    +0.000 C 
ATOM     32  C   UNL     1      -4.357  11.666  16.496  0.00  0.00    +0.000 C 
ENDBRANCH  28  29
ENDBRANCH  25  28
ENDBRANCH  23  24
ENDBRANCH  22  23
ENDBRANCH  20  22
ENDBRANCH   8  20
TORSDOF 9
ENDMDL
MODEL 5
REMARK VINA RESULT:      -7.3      1.155      1.263
REMARK  Name = 
REMARK  13 active torsions:
REMARK  status: ('A' for Active; 'I' for Inactive)
REMARK    1  A    between atoms: C_1  and  O_2
REMARK    2  A    between atoms: O_2  and  C_3
REMARK    3  A    between atoms: C_3  and  C_5
REMARK    4  A    between atoms: N_7  and  C_8
REMARK    5  A    between atoms: C_15  and  N_16
REMARK    6  A    between atoms: N_16  and  C_17
REMARK    7  A    between atoms: C_17  and  C_18
REMARK    8  A    between atoms: C_18  and  N_19
REMARK    9  A    between atoms: C_20  and  O_22
REMARK   10  A    between atoms: O_22  and  C_23
REMARK   11  A    between atoms: C_23  and  C_24
REMARK   12  A    between atoms: C_23  and  C_25
REMARK   13  A    between atoms: C_23  and  C_26
REMARK                            x       y       z     vdW  Elec       q    Type
REMARK                         _______ _______ _______ _____ _____    ______ ____
ROOT
ATOM      1  C   UNL     1       5.718   5.132  16.855  0.00  0.00    +0.000 A 
ATOM      2  C   UNL     1       5.392   4.318  17.875  0.00  0.00    +0.000 A 
ATOM      3  N   UNL     1       4.342   4.498  18.763  0.00  0.00    +0.000 N 
ATOM      4  C   UNL     1       3.630   5.729  18.745  0.00  0.00    +0.000 A 
ATOM      5  C   UNL     1       2.686   6.095  19.712  0.00  0.00    +0.000 A 
ATOM      6  C   UNL     1       2.005   7.321  19.621  0.00  0.00    +0.000 A 
ATOM      7 CL   UNL     1       0.839   7.692  20.847  0.00  0.00    +0.000 Cl
ATOM      8  C   UNL     1       2.228   8.216  18.556  0.00  0.00    +0.000 A 
ATOM      9  C   UNL     1       3.220   7.872  17.639  0.00  0.00    +0.000 A 
ATOM     10  C   UNL     1       3.881   6.643  17.711  0.00  0.00    +0.000 A 
ATOM     11  C   UNL     1       4.855   6.315  16.648  0.00  0.00    +0.000 A 
ATOM     12  O   UNL     1       4.896   7.006  15.635  0.00  0.00    +0.000 OA
ENDROOT
BRANCH   3  13
ATOM     13  C   UNL     1       4.207   3.547  19.885  0.00  0.00    +0.000 C 
ATOM     14  C   UNL     1       2.958   2.724  20.089  0.00  0.00    +0.000 C 
ATOM     15  C   UNL     1       4.228   2.053  19.672  0.00  0.00    +0.000 C 
ENDBRANCH   3  13
BRANCH   1  16
ATOM     16  C   UNL     1       6.890   4.815  16.015  0.00  0.00    +0.000 C 
ATOM     17  O   UNL     1       7.981   4.484  16.461  0.00  0.00    +0.000 OA
BRANCH  16  19
ATOM     18  C   UNL     1       6.003   3.878  14.053  0.00  0.00    +0.000 C 
ATOM     19  O   UNL     1       6.598   4.996  14.707  0.00  0.00    +0.000 OA
ENDBRANCH  16  19
ENDBRANCH   1  16
BRANCH   8  20
ATOM     20  N   UNL     1       1.549   9.439  18.462  0.00  0.00    +0.000 N 
ATOM     21  H   UNL     1       1.881  10.006  17.681  0.00  0.00    +0.000 HD
BRANCH  20  22
ATOM     22  C   UNL     1       1.278  10.219  19.678  0.00  0.00    +0.000 C 
BRANCH  22  23
ATOM     23  C   UNL     1       0.329  11.407  19.431  0.00  0.00    +0.000 C 
BRANCH  23  24
ATOM     24  N   UNL     1      -0.328  11.342  18.145  0.00  0.00    +0.000 N 
ATOM     25  C   UNL     1      -1.603  11.800  18.009  0.00  0.00    +0.000 C 
ATOM     26  O   UNL     1      -2.230  12.306  18.927  0.00  0.00    +0.000 OA
ATOM     27  H   UNL     1       0.141  10.984  17.325  0.00  0.00    +0.000 HD
BRANCH  25  28
ATOM     28  O   UNL     1      -2.050  11.603  16.745  0.00  0.00    +0.000 OA
BRANCH  28  29
ATOM     29  C   UNL     1      -3.113  10.635  16.543  0.00  0.00    +0.000 C 
ATOM     30  C   UNL     1      -3.131   9.592  17.668  0.00  0.00    +0.000 C 
ATOM     31  C   UNL     1      -4.435  11.422  16.597  0.00  0.00    +0.000 C 
ATOM     32  C   UNL     1      -3.006   9.997  15.150  0.00  0.00    +0.000 C 
ENDBRANCH  28  29
ENDBRANCH  25  28
ENDBRANCH  23  24
ENDBRANCH  22  23
ENDBRANCH  20  22
ENDBRANCH   8  20
TORSDOF 9
ENDMDL
MODEL 6
REMARK VINA RESULT:      -7.3      2.699      9.141
REMARK  Name = 
REMARK  13 active torsions:
REMARK  status: ('A' for Active; 'I' for Inactive)
REMARK    1  A    between atoms: C_1  and  O_2
REMARK    2  A    between atoms: O_2  and  C_3
REMARK    3  A    between atoms: C_3  and  C_5
REMARK    4  A    between atoms: N_7  and  C_8
REMARK    5  A    between atoms: C_15  and  N_16
REMARK    6  A    between atoms: N_16  and  C_17
REMARK    7  A    between atoms: C_17  and  C_18
REMARK    8  A    between atoms: C_18  and  N_19
REMARK    9  A    between atoms: C_20  and  O_22
REMARK   10  A    between atoms: O_22  and  C_23
REMARK   11  A    between atoms: C_23  and  C_24
REMARK   12  A    between atoms: C_23  and  C_25
REMARK   13  A    between atoms: C_23  and  C_26
REMARK                            x       y       z     vdW  Elec       q    Type
REMARK                         _______ _______ _______ _____ _____    ______ ____
ROOT
ATOM      1  C   UNL     1      -0.978  11.181  21.929  0.00  0.00    +0.000 A 
ATOM      2  C   UNL     1      -0.891  11.835  20.756  0.00  0.00    +0.000 A 
ATOM      3  N   UNL     1      -0.272  11.372  19.604  0.00  0.00    +0.000 N 
ATOM      4  C   UNL     1       0.509  10.185  19.675  0.00  0.00    +0.000 A 
ATOM      5  C   UNL     1       1.328   9.731  18.634  0.00  0.00    +0.000 A 
ATOM      6  C   UNL     1       2.059   8.538  18.763  0.00  0.00    +0.000 A 
ATOM      7 CL   UNL     1       3.034   8.035  17.423  0.00  0.00    +0.000 Cl
ATOM      8  C   UNL     1       1.985   7.747  19.928  0.00  0.00    +0.000 A 
ATOM      9  C   UNL     1       1.222   8.245  20.983  0.00  0.00    +0.000 A 
ATOM     10  C   UNL     1       0.475   9.418  20.848  0.00  0.00    +0.000 A 
ATOM     11  C   UNL     1      -0.380   9.830  21.982  0.00  0.00    +0.000 A 
ATOM     12  O   UNL     1      -0.584   9.042  22.900  0.00  0.00    +0.000 OA
ENDROOT
BRANCH   3  13
ATOM     13  C   UNL     1      -0.189  12.280  18.443  0.00  0.00    +0.000 C 
ATOM     14  C   UNL     1      -0.530  13.746  18.550  0.00  0.00    +0.000 C 
ATOM     15  C   UNL     1       0.890  13.330  18.327  0.00  0.00    +0.000 C 
ENDBRANCH   3  13
BRANCH   1  16
ATOM     16  C   UNL     1      -1.648  11.828  23.075  0.00  0.00    +0.000 C 
ATOM     17  O   UNL     1      -2.731  11.476  23.522  0.00  0.00    +0.000 OA
BRANCH  16  19
ATOM     18  C   UNL     1      -1.643  14.108  23.641  0.00  0.00    +0.000 C 
ATOM     19  O   UNL     1      -0.924  12.884  23.510  0.00  0.00    +0.000 OA
ENDBRANCH  16  19
ENDBRANCH   1  16
BRANCH   8  20
ATOM     20  N   UNL     1       2.712   6.556  20.060  0.00  0.00    +0.000 N 
ATOM     21  H   UNL     1       3.575   6.568  19.515  0.00  0.00    +0.000 HD
BRANCH  20  22
ATOM     22  C   UNL     1       2.012   5.264  20.021  0.00  0.00    +0.000 C 
BRANCH  22  23
ATOM     23  C   UNL     1       1.927   4.669  18.603  0.00  0.00    +0.000 C 
BRANCH  23  24
ATOM     24  N   UNL     1       3.142   4.856  17.842  0.00  0.00    +0.000 N 
ATOM     25  C   UNL     1       4.152   3.949  17.940  0.00  0.00    +0.000 C 
ATOM     26  O   UNL     1       4.078   2.942  18.628  0.00  0.00    +0.000 OA
ATOM     27  H   UNL     1       3.261   5.637  17.212  0.00  0.00    +0.000 HD
BRANCH  25  28
ATOM     28  O   UNL     1       5.214   4.332  17.192  0.00  0.00    +0.000 OA
BRANCH  28  29
ATOM     29  C   UNL     1       6.226   5.162  17.821  0.00  0.00    +0.000 C 
ATOM     30  C   UNL     1       6.146   6.608  17.315  0.00  0.00    +0.000 C 
ATOM     31  C   UNL     1       5.914   5.164  19.328  0.00  0.00    +0.000 C 
ATOM     32  C   UNL     1       7.622   4.549  17.634  0.00  0.00    +0.000 C 
ENDBRANCH  28  29
ENDBRANCH  25  28
ENDBRANCH  23  24
ENDBRANCH  22  23
ENDBRANCH  20  22
ENDBRANCH   8  20
TORSDOF 9
ENDMDL
MODEL 7
REMARK VINA RESULT:      -7.1      2.187      3.410
REMARK  Name = 
REMARK  13 active torsions:
REMARK  status: ('A' for Active; 'I' for Inactive)
REMARK    1  A    between atoms: C_1  and  O_2
REMARK    2  A    between atoms: O_2  and  C_3
REMARK    3  A    between atoms: C_3  and  C_5
REMARK    4  A    between atoms: N_7  and  C_8
REMARK    5  A    between atoms: C_15  and  N_16
REMARK    6  A    between atoms: N_16  and  C_17
REMARK    7  A    between atoms: C_17  and  C_18
REMARK    8  A    between atoms: C_18  and  N_19
REMARK    9  A    between atoms: C_20  and  O_22
REMARK   10  A    between atoms: O_22  and  C_23
REMARK   11  A    between atoms: C_23  and  C_24
REMARK   12  A    between atoms: C_23  and  C_25
REMARK   13  A    between atoms: C_23  and  C_26
REMARK                            x       y       z     vdW  Elec       q    Type
REMARK                         _______ _______ _______ _____ _____    ______ ____
ROOT
ATOM      1  C   UNL     1       3.841   4.125  19.420  0.00  0.00    +0.000 A 
ATOM      2  C   UNL     1       4.554   4.617  18.391  0.00  0.00    +0.000 A 
ATOM      3  N   UNL     1       4.502   5.915  17.905  0.00  0.00    +0.000 N 
ATOM      4  C   UNL     1       3.489   6.789  18.388  0.00  0.00    +0.000 A 
ATOM      5  C   UNL     1       3.222   8.048  17.837  0.00  0.00    +0.000 A 
ATOM      6  C   UNL     1       2.218   8.870  18.378  0.00  0.00    +0.000 A 
ATOM      7 CL   UNL     1       1.961  10.420  17.651  0.00  0.00    +0.000 Cl
ATOM      8  C   UNL     1       1.458   8.472  19.496  0.00  0.00    +0.000 A 
ATOM      9  C   UNL     1       1.686   7.189  19.991  0.00  0.00    +0.000 A 
ATOM     10  C   UNL     1       2.699   6.380  19.472  0.00  0.00    +0.000 A 
ATOM     11  C   UNL     1       2.937   5.068  20.113  0.00  0.00    +0.000 A 
ATOM     12  O   UNL     1       2.409   4.821  21.192  0.00  0.00    +0.000 OA
ENDROOT
BRANCH   3  13
ATOM     13  C   UNL     1       5.287   6.240  16.697  0.00  0.00    +0.000 C 
ATOM     14  C   UNL     1       6.499   5.437  16.292  0.00  0.00    +0.000 C 
ATOM     15  C   UNL     1       5.255   5.367  15.466  0.00  0.00    +0.000 C 
ENDBRANCH   3  13
BRANCH   1  16
ATOM     16  C   UNL     1       3.989   2.704  19.796  0.00  0.00    +0.000 C 
ATOM     17  O   UNL     1       5.023   2.218  20.234  0.00  0.00    +0.000 OA
BRANCH  16  19
ATOM     18  C   UNL     1       2.492   1.937  18.157  0.00  0.00    +0.000 C 
ATOM     19  O   UNL     1       2.850   2.025  19.534  0.00  0.00    +0.000 OA
ENDBRANCH  16  19
ENDBRANCH   1  16
BRANCH   8  20
ATOM     20  N   UNL     1       0.456   9.289  20.038  0.00  0.00    +0.000 N 
ATOM     21  H   UNL     1      -0.216   9.595  19.333  0.00  0.00    +0.000 HD
BRANCH  20  22
ATOM     22  C   UNL     1       0.811  10.338  21.003  0.00  0.00    +0.000 C 
BRANCH  22  23
ATOM     23  C   UNL     1       0.092  11.673  20.733  0.00  0.00    +0.000 C 
BRANCH  23  24
ATOM     24  N   UNL     1      -0.403  11.779  19.379  0.00  0.00    +0.000 N 
ATOM     25  C   UNL     1      -1.717  12.058  19.155  0.00  0.00    +0.000 C 
ATOM     26  O   UNL     1      -2.517  12.261  20.056  0.00  0.00    +0.000 OA
ATOM     27  H   UNL     1       0.206  11.675  18.580  0.00  0.00    +0.000 HD
BRANCH  25  28
ATOM     28  O   UNL     1      -1.986  12.063  17.828  0.00  0.00    +0.000 OA
BRANCH  28  29
ATOM     29  C   UNL     1      -2.934  11.089  17.322  0.00  0.00    +0.000 C 
ATOM     30  C   UNL     1      -4.378  11.529  17.599  0.00  0.00    +0.000 C 
ATOM     31  C   UNL     1      -2.735  11.037  15.796  0.00  0.00    +0.000 C 
ATOM     32  C   UNL     1      -2.627   9.691  17.881  0.00  0.00    +0.000 C 
ENDBRANCH  28  29
ENDBRANCH  25  28
ENDBRANCH  23  24
ENDBRANCH  22  23
ENDBRANCH  20  22
ENDBRANCH   8  20
TORSDOF 9
ENDMDL
MODEL 8
REMARK VINA RESULT:      -7.1      2.148      3.033
REMARK  Name = 
REMARK  13 active torsions:
REMARK  status: ('A' for Active; 'I' for Inactive)
REMARK    1  A    between atoms: C_1  and  O_2
REMARK    2  A    between atoms: O_2  and  C_3
REMARK    3  A    between atoms: C_3  and  C_5
REMARK    4  A    between atoms: N_7  and  C_8
REMARK    5  A    between atoms: C_15  and  N_16
REMARK    6  A    between atoms: N_16  and  C_17
REMARK    7  A    between atoms: C_17  and  C_18
REMARK    8  A    between atoms: C_18  and  N_19
REMARK    9  A    between atoms: C_20  and  O_22
REMARK   10  A    between atoms: O_22  and  C_23
REMARK   11  A    between atoms: C_23  and  C_24
REMARK   12  A    between atoms: C_23  and  C_25
REMARK   13  A    between atoms: C_23  and  C_26
REMARK                            x       y       z     vdW  Elec       q    Type
REMARK                         _______ _______ _______ _____ _____    ______ ____
ROOT
ATOM      1  C   UNL     1       5.606   4.907  16.119  0.00  0.00    +0.000 A 
ATOM      2  C   UNL     1       5.244   3.959  17.001  0.00  0.00    +0.000 A 
ATOM      3  N   UNL     1       4.268   4.080  17.980  0.00  0.00    +0.000 N 
ATOM      4  C   UNL     1       3.700   5.361  18.228  0.00  0.00    +0.000 A 
ATOM      5  C   UNL     1       2.855   5.640  19.309  0.00  0.00    +0.000 A 
ATOM      6  C   UNL     1       2.313   6.925  19.483  0.00  0.00    +0.000 A 
ATOM      7 CL   UNL     1       1.262   7.184  20.835  0.00  0.00    +0.000 Cl
ATOM      8  C   UNL     1       2.581   7.970  18.577  0.00  0.00    +0.000 A 
ATOM      9  C   UNL     1       3.478   7.699  17.546  0.00  0.00    +0.000 A 
ATOM     10  C   UNL     1       3.999   6.417  17.355  0.00  0.00    +0.000 A 
ATOM     11  C   UNL     1       4.873   6.190  16.184  0.00  0.00    +0.000 A 
ATOM     12  O   UNL     1       4.939   7.045  15.307  0.00  0.00    +0.000 OA
ENDROOT
BRANCH   3  13
ATOM     13  C   UNL     1       4.084   2.961  18.925  0.00  0.00    +0.000 C 
ATOM     14  C   UNL     1       2.715   2.458  19.311  0.00  0.00    +0.000 C 
ATOM     15  C   UNL     1       3.607   1.602  18.470  0.00  0.00    +0.000 C 
ENDBRANCH   3  13
BRANCH   1  16
ATOM     16  C   UNL     1       6.690   4.629  15.155  0.00  0.00    +0.000 C 
ATOM     17  O   UNL     1       7.710   5.298  15.062  0.00  0.00    +0.000 OA
BRANCH  16  19
ATOM     18  C   UNL     1       6.386   3.832  12.966  0.00  0.00    +0.000 C 
ATOM     19  O   UNL     1       6.364   3.578  14.369  0.00  0.00    +0.000 OA
ENDBRANCH  16  19
ENDBRANCH   1  16
BRANCH   8  20
ATOM     20  N   UNL     1       2.041   9.253  18.747  0.00  0.00    +0.000 N 
ATOM     21  H   UNL     1       1.985   9.520  19.731  0.00  0.00    +0.000 HD
BRANCH  20  22
ATOM     22  C   UNL     1       0.870   9.664  17.961  0.00  0.00    +0.000 C 
BRANCH  22  23
ATOM     23  C   UNL     1      -0.340  10.042  18.836  0.00  0.00    +0.000 C 
BRANCH  23  24
ATOM     24  N   UNL     1      -0.223  11.363  19.413  0.00  0.00    +0.000 N 
ATOM     25  C   UNL     1      -0.206  11.514  20.766  0.00  0.00    +0.000 C 
ATOM     26  O   UNL     1      -0.254  10.571  21.542  0.00  0.00    +0.000 OA
ATOM     27  H   UNL     1      -0.128  12.188  18.839  0.00  0.00    +0.000 HD
BRANCH  25  28
ATOM     28  O   UNL     1      -0.142  12.825  21.100  0.00  0.00    +0.000 OA
BRANCH  28  29
ATOM     29  C   UNL     1      -1.313  13.431  21.708  0.00  0.00    +0.000 C 
ATOM     30  C   UNL     1      -1.327  13.202  23.225  0.00  0.00    +0.000 C 
ATOM     31  C   UNL     1      -1.202  14.945  21.453  0.00  0.00    +0.000 C 
ATOM     32  C   UNL     1      -2.596  12.934  21.025  0.00  0.00    +0.000 C 
ENDBRANCH  28  29
ENDBRANCH  25  28
ENDBRANCH  23  24
ENDBRANCH  22  23
ENDBRANCH  20  22
ENDBRANCH   8  20
TORSDOF 9
ENDMDL
MODEL 9
REMARK VINA RESULT:      -7.0      1.659      2.385
REMARK  Name = 
REMARK  13 active torsions:
REMARK  status: ('A' for Active; 'I' for Inactive)
REMARK    1  A    between atoms: C_1  and  O_2
REMARK    2  A    between atoms: O_2  and  C_3
REMARK    3  A    between atoms: C_3  and  C_5
REMARK    4  A    between atoms: N_7  and  C_8
REMARK    5  A    between atoms: C_15  and  N_16
REMARK    6  A    between atoms: N_16  and  C_17
REMARK    7  A    between atoms: C_17  and  C_18
REMARK    8  A    between atoms: C_18  and  N_19
REMARK    9  A    between atoms: C_20  and  O_22
REMARK   10  A    between atoms: O_22  and  C_23
REMARK   11  A    between atoms: C_23  and  C_24
REMARK   12  A    between atoms: C_23  and  C_25
REMARK   13  A    between atoms: C_23  and  C_26
REMARK                            x       y       z     vdW  Elec       q    Type
REMARK                         _______ _______ _______ _____ _____    ______ ____
ROOT
ATOM      1  C   UNL     1       4.187   5.014  18.357  0.00  0.00    +0.000 A 
ATOM      2  C   UNL     1       3.638   4.358  19.395  0.00  0.00    +0.000 A 
ATOM      3  N   UNL     1       2.616   4.823  20.210  0.00  0.00    +0.000 N 
ATOM      4  C   UNL     1       2.206   6.180  20.089  0.00  0.00    +0.000 A 
ATOM      5  C   UNL     1       1.327   6.808  20.979  0.00  0.00    +0.000 A 
ATOM      6  C   UNL     1       0.948   8.147  20.789  0.00  0.00    +0.000 A 
ATOM      7 CL   UNL     1      -0.158   8.846  21.924  0.00  0.00    +0.000 Cl
ATOM      8  C   UNL     1       1.418   8.902  19.695  0.00  0.00    +0.000 A 
ATOM      9  C   UNL     1       2.346   8.288  18.857  0.00  0.00    +0.000 A 
ATOM     10  C   UNL     1       2.706   6.949  19.028  0.00  0.00    +0.000 A 
ATOM     11  C   UNL     1       3.627   6.345  18.041  0.00  0.00    +0.000 A 
ATOM     12  O   UNL     1       3.871   6.945  17.000  0.00  0.00    +0.000 OA
ENDROOT
BRANCH   3  13
ATOM     13  C   UNL     1       2.216   3.998  21.367  0.00  0.00    +0.000 C 
ATOM     14  C   UNL     1       1.209   2.882  21.242  0.00  0.00    +0.000 C 
ATOM     15  C   UNL     1       2.645   2.557  21.506  0.00  0.00    +0.000 C 
ENDBRANCH   3  13
BRANCH   1  16
ATOM     16  C   UNL     1       5.294   4.389  17.604  0.00  0.00    +0.000 C 
ATOM     17  O   UNL     1       5.186   3.955  16.465  0.00  0.00    +0.000 OA
BRANCH  16  19
ATOM     18  C   UNL     1       7.509   5.103  17.921  0.00  0.00    +0.000 C 
ATOM     19  O   UNL     1       6.406   4.319  18.370  0.00  0.00    +0.000 OA
ENDBRANCH  16  19
ENDBRANCH   1  16
BRANCH   8  20
ATOM     20  N   UNL     1       1.042  10.238  19.502  0.00  0.00    +0.000 N 
ATOM     21  H   UNL     1       0.859  10.719  20.384  0.00  0.00    +0.000 HD
BRANCH  20  22
ATOM     22  C   UNL     1       0.088  10.582  18.438  0.00  0.00    +0.000 C 
BRANCH  22  23
ATOM     23  C   UNL     1      -1.338  10.068  18.719  0.00  0.00    +0.000 C 
BRANCH  23  24
ATOM     24  N   UNL     1      -2.356  11.049  18.417  0.00  0.00    +0.000 N 
ATOM     25  C   UNL     1      -3.296  10.782  17.469  0.00  0.00    +0.000 C 
ATOM     26  O   UNL     1      -3.350   9.722  16.864  0.00  0.00    +0.000 OA
ATOM     27  H   UNL     1      -2.410  11.929  18.909  0.00  0.00    +0.000 HD
BRANCH  25  28
ATOM     28  O   UNL     1      -4.122  11.843  17.303  0.00  0.00    +0.000 OA
BRANCH  28  29
ATOM     29  C   UNL     1      -5.293  11.935  18.155  0.00  0.00    +0.000 C 
ATOM     30  C   UNL     1      -4.953  12.617  19.487  0.00  0.00    +0.000 C 
ATOM     31  C   UNL     1      -6.308  12.819  17.410  0.00  0.00    +0.000 C 
ATOM     32  C   UNL     1      -5.932  10.551  18.349  0.00  0.00    +0.000 C 
ENDBRANCH  28  29
ENDBRANCH  25  28
ENDBRANCH  23  24
ENDBRANCH  22  23
ENDBRANCH  20  22
ENDBRANCH   8  20
TORSDOF 9
ENDMDL
