MODEL 1
REMARK VINA RESULT:      -7.8      0.000      0.000
REMARK  Name = 
REMARK  3 active torsions:
REMARK  status: ('A' for Active; 'I' for Inactive)
REMARK    1  A    between atoms: C_1  and  C_2
REMARK    2  A    between atoms: N_4  and  C_5
REMARK    3  A    between atoms: N_4  and  C_11
REMARK                            x       y       z     vdW  Elec       q    Type
REMARK                         _______ _______ _______ _____ _____    ______ ____
ROOT
ATOM      1  C   UNL     1       4.369   4.664  16.909  0.00  0.00    +0.000 C 
ATOM      2  C   UNL     1       3.472   5.671  17.610  0.00  0.00    +0.000 C 
ATOM      3  O   UNL     1       3.790   6.739  18.107  0.00  0.00    +0.000 OA
ATOM      4  C   UNL     1       2.082   5.063  17.847  0.00  0.00    +0.000 C 
ATOM      5  O   UNL     1       1.060   5.652  17.563  0.00  0.00    +0.000 OA
ATOM      6  C   UNL     1       2.130   3.785  18.594  0.00  0.00    +0.000 A 
ATOM      7  C   UNL     1       1.082   3.425  19.427  0.00  0.00    +0.000 A 
ATOM      8  C   UNL     1       1.411   2.866  20.659  0.00  0.00    +0.000 A 
ATOM      9  C   UNL     1       2.757   2.679  21.012  0.00  0.00    +0.000 A 
ATOM     10  C   UNL     1       3.764   2.817  20.058  0.00  0.00    +0.000 A 
ATOM     11  C   UNL     1       3.410   3.286  18.806  0.00  0.00    +0.000 A 
ATOM     12  C   UNL     1       4.346   3.354  17.673  0.00  0.00    +0.000 C 
ATOM     13  O   UNL     1       4.915   2.329  17.312  0.00  0.00    +0.000 OA
ENDROOT
BRANCH   1  17
ATOM     14  C   UNL     1       5.323   4.061  14.230  0.00  0.00    +0.000 C 
ATOM     15  C   UNL     1       6.178   4.880  15.170  0.00  0.00    +0.000 C 
ATOM     16  O   UNL     1       7.286   5.227  14.766  0.00  0.00    +0.000 OA
ATOM     17  N   UNL     1       5.688   5.132  16.455  0.00  0.00    +0.000 N 
BRANCH  17  18
ATOM     18  C   UNL     1       6.522   5.887  17.344  0.00  0.00    +0.000 A 
ATOM     19  C   UNL     1       6.840   7.213  17.047  0.00  0.00    +0.000 A 
ATOM     20  C   UNL     1       7.787   7.934  17.812  0.00  0.00    +0.000 A 
ATOM     21  C   UNL     1       8.416   7.306  18.887  0.00  0.00    +0.000 A 
ATOM     22  C   UNL     1       8.088   5.991  19.214  0.00  0.00    +0.000 A 
ATOM     23  C   UNL     1       7.153   5.293  18.446  0.00  0.00    +0.000 A 
ENDBRANCH  17  18
ENDBRANCH   1  17
TORSDOF 2
ENDMDL
MODEL 2
REMARK VINA RESULT:      -7.8      0.251      1.032
REMARK  Name = 
REMARK  3 active torsions:
REMARK  status: ('A' for Active; 'I' for Inactive)
REMARK    1  A    between atoms: C_1  and  C_2
REMARK    2  A    between atoms: N_4  and  C_5
REMARK    3  A    between atoms: N_4  and  C_11
REMARK                            x       y       z     vdW  Elec       q    Type
REMARK                         _______ _______ _______ _____ _____    ______ ____
ROOT
ATOM      1  C   UNL     1       4.486   4.695  16.801  0.00  0.00    +0.000 C 
ATOM      2  C   UNL     1       3.700   5.755  17.553  0.00  0.00    +0.000 C 
ATOM      3  O   UNL     1       4.119   6.788  18.049  0.00  0.00    +0.000 OA
ATOM      4  C   UNL     1       2.279   5.251  17.842  0.00  0.00    +0.000 C 
ATOM      5  O   UNL     1       1.293   5.921  17.611  0.00  0.00    +0.000 OA
ATOM      6  C   UNL     1       2.260   3.962  18.570  0.00  0.00    +0.000 A 
ATOM      7  C   UNL     1       1.223   3.669  19.444  0.00  0.00    +0.000 A 
ATOM      8  C   UNL     1       1.561   3.067  20.652  0.00  0.00    +0.000 A 
ATOM      9  C   UNL     1       2.901   2.773  20.944  0.00  0.00    +0.000 A 
ATOM     10  C   UNL     1       3.875   2.849  19.949  0.00  0.00    +0.000 A 
ATOM     11  C   UNL     1       3.505   3.363  18.720  0.00  0.00    +0.000 A 
ATOM     12  C   UNL     1       4.395   3.378  17.548  0.00  0.00    +0.000 C 
ATOM     13  O   UNL     1       4.868   2.319  17.150  0.00  0.00    +0.000 OA
ENDROOT
BRANCH   1  17
ATOM     14  C   UNL     1       5.257   4.112  14.059  0.00  0.00    +0.000 C 
ATOM     15  C   UNL     1       6.222   4.823  14.980  0.00  0.00    +0.000 C 
ATOM     16  O   UNL     1       7.335   5.091  14.532  0.00  0.00    +0.000 OA
ATOM     17  N   UNL     1       5.817   5.068  16.296  0.00  0.00    +0.000 N 
BRANCH  17  18
ATOM     18  C   UNL     1       6.752   5.719  17.165  0.00  0.00    +0.000 A 
ATOM     19  C   UNL     1       7.227   5.061  18.301  0.00  0.00    +0.000 A 
ATOM     20  C   UNL     1       8.020   5.729  19.264  0.00  0.00    +0.000 A 
ATOM     21  C   UNL     1       8.335   7.075  19.075  0.00  0.00    +0.000 A 
ATOM     22  C   UNL     1       7.892   7.739  17.932  0.00  0.00    +0.000 A 
ATOM     23  C   UNL     1       7.107   7.064  16.992  0.00  0.00    +0.000 A 
ENDBRANCH  17  18
ENDBRANCH   1  17
TORSDOF 2
ENDMDL
MODEL 3
REMARK VINA RESULT:      -7.2      1.955      3.670
REMARK  Name = 
REMARK  3 active torsions:
REMARK  status: ('A' for Active; 'I' for Inactive)
REMARK    1  A    between atoms: C_1  and  C_2
REMARK    2  A    between atoms: N_4  and  C_5
REMARK    3  A    between atoms: N_4  and  C_11
REMARK                            x       y       z     vdW  Elec       q    Type
REMARK                         _______ _______ _______ _____ _____    ______ ____
ROOT
ATOM      1  C   UNL     1       4.850   5.438  16.596  0.00  0.00    +0.000 C 
ATOM      2  C   UNL     1       4.867   6.821  17.224  0.00  0.00    +0.000 C 
ATOM      3  O   UNL     1       5.829   7.439  17.652  0.00  0.00    +0.000 OA
ATOM      4  C   UNL     1       3.432   7.297  17.492  0.00  0.00    +0.000 C 
ATOM      5  O   UNL     1       3.042   8.398  17.164  0.00  0.00    +0.000 OA
ATOM      6  C   UNL     1       2.655   6.348  18.322  0.00  0.00    +0.000 A 
ATOM      7  C   UNL     1       1.662   6.815  19.171  0.00  0.00    +0.000 A 
ATOM      8  C   UNL     1       1.589   6.244  20.438  0.00  0.00    +0.000 A 
ATOM      9  C   UNL     1       2.490   5.235  20.811  0.00  0.00    +0.000 A 
ATOM     10  C   UNL     1       3.300   4.622  19.856  0.00  0.00    +0.000 A 
ATOM     11  C   UNL     1       3.294   5.141  18.574  0.00  0.00    +0.000 A 
ATOM     12  C   UNL     1       3.998   4.513  17.444  0.00  0.00    +0.000 C 
ATOM     13  O   UNL     1       3.736   3.350  17.155  0.00  0.00    +0.000 OA
ENDROOT
BRANCH   1  17
ATOM     14  C   UNL     1       6.948   4.712  18.472  0.00  0.00    +0.000 C 
ATOM     15  C   UNL     1       7.160   4.515  16.988  0.00  0.00    +0.000 C 
ATOM     16  O   UNL     1       8.255   4.087  16.627  0.00  0.00    +0.000 OA
ATOM     17  N   UNL     1       6.131   4.893  16.120  0.00  0.00    +0.000 N 
BRANCH  17  18
ATOM     18  C   UNL     1       6.357   4.725  14.715  0.00  0.00    +0.000 A 
ATOM     19  C   UNL     1       5.624   3.778  13.997  0.00  0.00    +0.000 A 
ATOM     20  C   UNL     1       5.933   3.472  12.650  0.00  0.00    +0.000 A 
ATOM     21  C   UNL     1       6.992   4.131  12.026  0.00  0.00    +0.000 A 
ATOM     22  C   UNL     1       7.715   5.100  12.720  0.00  0.00    +0.000 A 
ATOM     23  C   UNL     1       7.399   5.388  14.051  0.00  0.00    +0.000 A 
ENDBRANCH  17  18
ENDBRANCH   1  17
TORSDOF 2
ENDMDL
MODEL 4
REMARK VINA RESULT:      -7.1      1.481      3.157
REMARK  Name = 
REMARK  3 active torsions:
REMARK  status: ('A' for Active; 'I' for Inactive)
REMARK    1  A    between atoms: C_1  and  C_2
REMARK    2  A    between atoms: N_4  and  C_5
REMARK    3  A    between atoms: N_4  and  C_11
REMARK                            x       y       z     vdW  Elec       q    Type
REMARK                         _______ _______ _______ _____ _____    ______ ____
ROOT
ATOM      1  C   UNL     1       4.448   4.340  17.018  0.00  0.00    +0.000 C 
ATOM      2  C   UNL     1       3.911   5.572  17.725  0.00  0.00    +0.000 C 
ATOM      3  O   UNL     1       4.543   6.511  18.183  0.00  0.00    +0.000 OA
ATOM      4  C   UNL     1       2.416   5.396  18.029  0.00  0.00    +0.000 C 
ATOM      5  O   UNL     1       1.596   6.252  17.768  0.00  0.00    +0.000 OA
ATOM      6  C   UNL     1       2.125   4.170  18.807  0.00  0.00    +0.000 A 
ATOM      7  C   UNL     1       1.054   4.140  19.687  0.00  0.00    +0.000 A 
ATOM      8  C   UNL     1       1.261   3.528  20.920  0.00  0.00    +0.000 A 
ATOM      9  C   UNL     1       2.509   2.965  21.228  0.00  0.00    +0.000 A 
ATOM     10  C   UNL     1       3.471   2.792  20.234  0.00  0.00    +0.000 A 
ATOM     11  C   UNL     1       3.214   3.325  18.984  0.00  0.00    +0.000 A 
ATOM     12  C   UNL     1       4.081   3.103  17.816  0.00  0.00    +0.000 C 
ATOM     13  O   UNL     1       4.314   1.953  17.462  0.00  0.00    +0.000 OA
ENDROOT
BRANCH   1  17
ATOM     14  C   UNL     1       6.712   4.486  18.836  0.00  0.00    +0.000 C 
ATOM     15  C   UNL     1       6.943   4.453  17.343  0.00  0.00    +0.000 C 
ATOM     16  O   UNL     1       8.106   4.536  16.950  0.00  0.00    +0.000 OA
ATOM     17  N   UNL     1       5.826   4.400  16.504  0.00  0.00    +0.000 N 
BRANCH  17  18
ATOM     18  C   UNL     1       6.060   4.396  15.090  0.00  0.00    +0.000 A 
ATOM     19  C   UNL     1       5.308   3.564  14.259  0.00  0.00    +0.000 A 
ATOM     20  C   UNL     1       5.621   3.414  12.886  0.00  0.00    +0.000 A 
ATOM     21  C   UNL     1       6.703   4.113  12.353  0.00  0.00    +0.000 A 
ATOM     22  C   UNL     1       7.447   4.969  13.163  0.00  0.00    +0.000 A 
ATOM     23  C   UNL     1       7.126   5.104  14.517  0.00  0.00    +0.000 A 
ENDBRANCH  17  18
ENDBRANCH   1  17
TORSDOF 2
ENDMDL
MODEL 5
REMARK VINA RESULT:      -6.8      2.362      5.587
REMARK  Name = 
REMARK  3 active torsions:
REMARK  status: ('A' for Active; 'I' for Inactive)
REMARK    1  A    between atoms: C_1  and  C_2
REMARK    2  A    between atoms: N_4  and  C_5
REMARK    3  A    between atoms: N_4  and  C_11
REMARK                            x       y       z     vdW  Elec       q    Type
REMARK                         _______ _______ _______ _____ _____    ______ ____
ROOT
ATOM      1  C   UNL     1       4.066   4.405  18.806  0.00  0.00    +0.000 C 
ATOM      2  C   UNL     1       5.256   5.341  18.928  0.00  0.00    +0.000 C 
ATOM      3  O   UNL     1       5.256   6.514  19.265  0.00  0.00    +0.000 OA
ATOM      4  C   UNL     1       6.507   4.685  18.325  0.00  0.00    +0.000 C 
ATOM      5  O   UNL     1       7.570   4.658  18.910  0.00  0.00    +0.000 OA
ATOM      6  C   UNL     1       6.314   4.254  16.922  0.00  0.00    +0.000 A 
ATOM      7  C   UNL     1       7.384   4.249  16.040  0.00  0.00    +0.000 A 
ATOM      8  C   UNL     1       7.150   4.722  14.752  0.00  0.00    +0.000 A 
ATOM      9  C   UNL     1       5.871   5.170  14.387  0.00  0.00    +0.000 A 
ATOM     10  C   UNL     1       4.774   4.927  15.211  0.00  0.00    +0.000 A 
ATOM     11  C   UNL     1       5.010   4.370  16.455  0.00  0.00    +0.000 A 
ATOM     12  C   UNL     1       3.937   3.942  17.367  0.00  0.00    +0.000 C 
ATOM     13  O   UNL     1       3.115   3.124  16.971  0.00  0.00    +0.000 OA
ENDROOT
BRANCH   1  17
ATOM     14  C   UNL     1       2.589   2.512  20.445  0.00  0.00    +0.000 C 
ATOM     15  C   UNL     1       2.087   3.930  20.290  0.00  0.00    +0.000 C 
ATOM     16  O   UNL     1       1.026   4.215  20.841  0.00  0.00    +0.000 OA
ATOM     17  N   UNL     1       2.819   4.802  19.478  0.00  0.00    +0.000 N 
BRANCH  17  18
ATOM     18  C   UNL     1       2.316   6.135  19.319  0.00  0.00    +0.000 A 
ATOM     19  C   UNL     1       2.279   6.721  18.053  0.00  0.00    +0.000 A 
ATOM     20  C   UNL     1       1.944   8.086  17.881  0.00  0.00    +0.000 A 
ATOM     21  C   UNL     1       1.645   8.862  19.001  0.00  0.00    +0.000 A 
ATOM     22  C   UNL     1       1.651   8.283  20.269  0.00  0.00    +0.000 A 
ATOM     23  C   UNL     1       1.986   6.935  20.421  0.00  0.00    +0.000 A 
ENDBRANCH  17  18
ENDBRANCH   1  17
TORSDOF 2
ENDMDL
MODEL 6
REMARK VINA RESULT:      -6.8      1.505      3.105
REMARK  Name = 
REMARK  3 active torsions:
REMARK  status: ('A' for Active; 'I' for Inactive)
REMARK    1  A    between atoms: C_1  and  C_2
REMARK    2  A    between atoms: N_4  and  C_5
REMARK    3  A    between atoms: N_4  and  C_11
REMARK                            x       y       z     vdW  Elec       q    Type
REMARK                         _______ _______ _______ _____ _____    ______ ____
ROOT
ATOM      1  C   UNL     1       4.510   4.276  17.056  0.00  0.00    +0.000 C 
ATOM      2  C   UNL     1       3.965   5.532  17.715  0.00  0.00    +0.000 C 
ATOM      3  O   UNL     1       4.593   6.472  18.174  0.00  0.00    +0.000 OA
ATOM      4  C   UNL     1       2.458   5.383  17.967  0.00  0.00    +0.000 C 
ATOM      5  O   UNL     1       1.660   6.243  17.656  0.00  0.00    +0.000 OA
ATOM      6  C   UNL     1       2.121   4.179  18.760  0.00  0.00    +0.000 A 
ATOM      7  C   UNL     1       1.018   4.183  19.601  0.00  0.00    +0.000 A 
ATOM      8  C   UNL     1       1.170   3.596  20.854  0.00  0.00    +0.000 A 
ATOM      9  C   UNL     1       2.398   3.024  21.220  0.00  0.00    +0.000 A 
ATOM     10  C   UNL     1       3.394   2.816  20.267  0.00  0.00    +0.000 A 
ATOM     11  C   UNL     1       3.190   3.323  18.997  0.00  0.00    +0.000 A 
ATOM     12  C   UNL     1       4.096   3.063  17.867  0.00  0.00    +0.000 C 
ATOM     13  O   UNL     1       4.326   1.902  17.547  0.00  0.00    +0.000 OA
ENDROOT
BRANCH   1  17
ATOM     14  C   UNL     1       6.701   4.574  18.943  0.00  0.00    +0.000 C 
ATOM     15  C   UNL     1       6.990   4.429  17.467  0.00  0.00    +0.000 C 
ATOM     16  O   UNL     1       8.167   4.491  17.114  0.00  0.00    +0.000 OA
ATOM     17  N   UNL     1       5.907   4.306  16.592  0.00  0.00    +0.000 N 
BRANCH  17  18
ATOM     18  C   UNL     1       6.195   4.197  15.192  0.00  0.00    +0.000 A 
ATOM     19  C   UNL     1       7.219   4.959  14.628  0.00  0.00    +0.000 A 
ATOM     20  C   UNL     1       7.424   4.999  13.227  0.00  0.00    +0.000 A 
ATOM     21  C   UNL     1       6.584   4.260  12.394  0.00  0.00    +0.000 A 
ATOM     22  C   UNL     1       5.574   3.472  12.944  0.00  0.00    +0.000 A 
ATOM     23  C   UNL     1       5.385   3.446  14.329  0.00  0.00    +0.000 A 
ENDBRANCH  17  18
ENDBRANCH   1  17
TORSDOF 2
ENDMDL
MODEL 7
REMARK VINA RESULT:      -6.8      1.969      3.615
REMARK  Name = 
REMARK  3 active torsions:
REMARK  status: ('A' for Active; 'I' for Inactive)
REMARK    1  A    between atoms: C_1  and  C_2
REMARK    2  A    between atoms: N_4  and  C_5
REMARK    3  A    between atoms: N_4  and  C_11
REMARK                            x       y       z     vdW  Elec       q    Type
REMARK                         _______ _______ _______ _____ _____    ______ ____
ROOT
ATOM      1  C   UNL     1       4.966   5.377  16.672  0.00  0.00    +0.000 C 
ATOM      2  C   UNL     1       4.953   6.790  17.229  0.00  0.00    +0.000 C 
ATOM      3  O   UNL     1       5.896   7.435  17.659  0.00  0.00    +0.000 OA
ATOM      4  C   UNL     1       3.507   7.268  17.420  0.00  0.00    +0.000 C 
ATOM      5  O   UNL     1       3.123   8.348  17.022  0.00  0.00    +0.000 OA
ATOM      6  C   UNL     1       2.705   6.357  18.268  0.00  0.00    +0.000 A 
ATOM      7  C   UNL     1       1.680   6.859  19.056  0.00  0.00    +0.000 A 
ATOM      8  C   UNL     1       1.563   6.353  20.347  0.00  0.00    +0.000 A 
ATOM      9  C   UNL     1       2.456   5.371  20.803  0.00  0.00    +0.000 A 
ATOM     10  C   UNL     1       3.303   4.716  19.911  0.00  0.00    +0.000 A 
ATOM     11  C   UNL     1       3.341   5.169  18.605  0.00  0.00    +0.000 A 
ATOM     12  C   UNL     1       4.090   4.489  17.535  0.00  0.00    +0.000 C 
ATOM     13  O   UNL     1       3.844   3.312  17.296  0.00  0.00    +0.000 OA
ENDROOT
BRANCH   1  17
ATOM     14  C   UNL     1       7.024   4.826  18.650  0.00  0.00    +0.000 C 
ATOM     15  C   UNL     1       7.278   4.521  17.191  0.00  0.00    +0.000 C 
ATOM     16  O   UNL     1       8.387   4.084  16.892  0.00  0.00    +0.000 OA
ATOM     17  N   UNL     1       6.267   4.817  16.271  0.00  0.00    +0.000 N 
BRANCH  17  18
ATOM     18  C   UNL     1       6.532   4.548  14.889  0.00  0.00    +0.000 A 
ATOM     19  C   UNL     1       7.496   5.289  14.204  0.00  0.00    +0.000 A 
ATOM     20  C   UNL     1       7.668   5.162  12.804  0.00  0.00    +0.000 A 
ATOM     21  C   UNL     1       6.857   4.277  12.094  0.00  0.00    +0.000 A 
ATOM     22  C   UNL     1       5.908   3.510  12.768  0.00  0.00    +0.000 A 
ATOM     23  C   UNL     1       5.750   3.649  14.150  0.00  0.00    +0.000 A 
ENDBRANCH  17  18
ENDBRANCH   1  17
TORSDOF 2
ENDMDL
MODEL 8
REMARK VINA RESULT:      -6.8      2.226      3.655
REMARK  Name = 
REMARK  3 active torsions:
REMARK  status: ('A' for Active; 'I' for Inactive)
REMARK    1  A    between atoms: C_1  and  C_2
REMARK    2  A    between atoms: N_4  and  C_5
REMARK    3  A    between atoms: N_4  and  C_11
REMARK                            x       y       z     vdW  Elec       q    Type
REMARK                         _______ _______ _______ _____ _____    ______ ____
ROOT
ATOM      1  C   UNL     1       4.777   4.251  17.294  0.00  0.00    +0.000 C 
ATOM      2  C   UNL     1       3.545   3.372  17.168  0.00  0.00    +0.000 C 
ATOM      3  O   UNL     1       2.599   3.510  16.409  0.00  0.00    +0.000 OA
ATOM      4  C   UNL     1       3.498   2.361  18.322  0.00  0.00    +0.000 C 
ATOM      5  O   UNL     1       3.297   1.178  18.140  0.00  0.00    +0.000 OA
ATOM      6  C   UNL     1       3.557   3.002  19.655  0.00  0.00    +0.000 A 
ATOM      7  C   UNL     1       2.921   2.417  20.740  0.00  0.00    +0.000 A 
ATOM      8  C   UNL     1       2.226   3.261  21.601  0.00  0.00    +0.000 A 
ATOM      9  C   UNL     1       2.195   4.643  21.362  0.00  0.00    +0.000 A 
ATOM     10  C   UNL     1       3.045   5.217  20.418  0.00  0.00    +0.000 A 
ATOM     11  C   UNL     1       3.802   4.370  19.629  0.00  0.00    +0.000 A 
ATOM     12  C   UNL     1       4.830   4.844  18.690  0.00  0.00    +0.000 C 
ATOM     13  O   UNL     1       5.747   5.538  19.115  0.00  0.00    +0.000 OA
ENDROOT
BRANCH   1  17
ATOM     14  C   UNL     1       3.905   7.023  17.383  0.00  0.00    +0.000 C 
ATOM     15  C   UNL     1       4.686   6.515  16.193  0.00  0.00    +0.000 C 
ATOM     16  O   UNL     1       4.884   7.304  15.271  0.00  0.00    +0.000 OA
ATOM     17  N   UNL     1       5.071   5.171  16.183  0.00  0.00    +0.000 N 
BRANCH  17  18
ATOM     18  C   UNL     1       5.788   4.697  15.036  0.00  0.00    +0.000 A 
ATOM     19  C   UNL     1       7.099   5.116  14.808  0.00  0.00    +0.000 A 
ATOM     20  C   UNL     1       7.777   4.799  13.606  0.00  0.00    +0.000 A 
ATOM     21  C   UNL     1       7.121   4.052  12.629  0.00  0.00    +0.000 A 
ATOM     22  C   UNL     1       5.820   3.603  12.853  0.00  0.00    +0.000 A 
ATOM     23  C   UNL     1       5.164   3.926  14.044  0.00  0.00    +0.000 A 
ENDBRANCH  17  18
ENDBRANCH   1  17
TORSDOF 2
ENDMDL
MODEL 9
REMARK VINA RESULT:      -6.7      2.408      5.653
REMARK  Name = 
REMARK  3 active torsions:
REMARK  status: ('A' for Active; 'I' for Inactive)
REMARK    1  A    between atoms: C_1  and  C_2
REMARK    2  A    between atoms: N_4  and  C_5
REMARK    3  A    between atoms: N_4  and  C_11
REMARK                            x       y       z     vdW  Elec       q    Type
REMARK                         _______ _______ _______ _____ _____    ______ ____
ROOT
ATOM      1  C   UNL     1       4.056   4.558  18.671  0.00  0.00    +0.000 C 
ATOM      2  C   UNL     1       5.316   5.398  18.788  0.00  0.00    +0.000 C 
ATOM      3  O   UNL     1       5.410   6.565  19.130  0.00  0.00    +0.000 OA
ATOM      4  C   UNL     1       6.507   4.650  18.171  0.00  0.00    +0.000 C 
ATOM      5  O   UNL     1       7.569   4.536  18.746  0.00  0.00    +0.000 OA
ATOM      6  C   UNL     1       6.269   4.243  16.767  0.00  0.00    +0.000 A 
ATOM      7  C   UNL     1       7.328   4.159  15.876  0.00  0.00    +0.000 A 
ATOM      8  C   UNL     1       7.121   4.655  14.592  0.00  0.00    +0.000 A 
ATOM      9  C   UNL     1       5.878   5.204  14.240  0.00  0.00    +0.000 A 
ATOM     10  C   UNL     1       4.772   5.042  15.073  0.00  0.00    +0.000 A 
ATOM     11  C   UNL     1       4.974   4.462  16.312  0.00  0.00    +0.000 A 
ATOM     12  C   UNL     1       3.879   4.114  17.231  0.00  0.00    +0.000 C 
ATOM     13  O   UNL     1       2.992   3.364  16.839  0.00  0.00    +0.000 OA
ENDROOT
BRANCH   1  17
ATOM     14  C   UNL     1       2.400   2.757  20.242  0.00  0.00    +0.000 C 
ATOM     15  C   UNL     1       2.035   4.220  20.136  0.00  0.00    +0.000 C 
ATOM     16  O   UNL     1       1.003   4.586  20.696  0.00  0.00    +0.000 OA
ATOM     17  N   UNL     1       2.849   5.047  19.356  0.00  0.00    +0.000 N 
BRANCH  17  18
ATOM     18  C   UNL     1       2.475   6.427  19.243  0.00  0.00    +0.000 A 
ATOM     19  C   UNL     1       2.060   7.133  20.373  0.00  0.00    +0.000 A 
ATOM     20  C   UNL     1       1.530   8.442  20.271  0.00  0.00    +0.000 A 
ATOM     21  C   UNL     1       1.421   9.039  19.015  0.00  0.00    +0.000 A 
ATOM     22  C   UNL     1       1.857   8.356  17.880  0.00  0.00    +0.000 A 
ATOM     23  C   UNL     1       2.375   7.064  17.998  0.00  0.00    +0.000 A 
ENDBRANCH  17  18
ENDBRANCH   1  17
TORSDOF 2
ENDMDL
