MODEL 1
REMARK VINA RESULT:      -8.1      0.000      0.000
REMARK  Name = 
REMARK  8 active torsions:
REMARK  status: ('A' for Active; 'I' for Inactive)
REMARK    1  A    between atoms: C_1  and  C_2
REMARK    2  A    between atoms: C_2  and  C_3
REMARK    3  A    between atoms: N_8  and  C_9
REMARK    4  A    between atoms: C_9  and  C_10
REMARK    5  A    between atoms: C_10  and  C_11
REMARK    6  A    between atoms: C_11  and  N_12
REMARK    7  A    between atoms: C_13  and  C_15
REMARK    8  A    between atoms: C_18  and  C_19
REMARK                            x       y       z     vdW  Elec       q    Type
REMARK                         _______ _______ _______ _____ _____    ______ ____
ROOT
ATOM      1  C   UNL     1       7.892   8.273  18.087  0.00  0.00    +0.000 A 
ATOM      2  C   UNL     1       6.871   8.229  17.137  0.00  0.00    +0.000 A 
ATOM      3  C   UNL     1       6.216   7.028  16.874  0.00  0.00    +0.000 A 
ATOM      4  C   UNL     1       6.584   5.845  17.533  0.00  0.00    +0.000 A 
ATOM      5  C   UNL     1       7.562   5.902  18.524  0.00  0.00    +0.000 A 
ATOM      6  C   UNL     1       8.229   7.107  18.788  0.00  0.00    +0.000 A 
ENDROOT
BRANCH   4   7
ATOM      7  C   UNL     1       5.796   4.638  17.287  0.00  0.00    +0.000 C 
ATOM      8  C   UNL     1       4.569   4.342  17.757  0.00  0.00    +0.000 C 
ATOM      9  S   UNL     1       4.229   2.632  17.971  0.00  0.00    +0.000 S 
ATOM     10  C   UNL     1       3.102   2.839  19.335  0.00  0.00    +0.000 A 
ATOM     11  C   UNL     1       3.337   2.390  20.625  0.00  0.00    +0.000 A 
ATOM     12  C   UNL     1       2.335   2.545  21.586  0.00  0.00    +0.000 A 
ATOM     13  C   UNL     1       1.081   3.049  21.223  0.00  0.00    +0.000 A 
ATOM     14  C   UNL     1       0.901   3.627  19.969  0.00  0.00    +0.000 A 
ATOM     15  C   UNL     1       1.988   3.651  19.107  0.00  0.00    +0.000 A 
ATOM     16  N   UNL     1       2.208   4.800  18.268  0.00  0.00    +0.000 N 
ATOM     17  C   UNL     1       3.543   5.283  18.378  0.00  0.00    +0.000 C 
ATOM     18  O   UNL     1       3.837   6.273  19.022  0.00  0.00    +0.000 OA
ATOM     19  H   UNL     1       2.047   4.494  17.311  0.00  0.00    +0.000 HD
ENDBRANCH   4   7
BRANCH   1  21
ATOM     20  N   UNL     1       9.332   9.613  19.538  0.00  0.00    +0.000 N 
ATOM     21  C   UNL     1       8.673   9.518  18.323  0.00  0.00    +0.000 C 
ATOM     22  O   UNL     1       8.713  10.383  17.476  0.00  0.00    +0.000 OA
ATOM     23  H   UNL     1       9.466   8.778  20.095  0.00  0.00    +0.000 HD
BRANCH  20  24
ATOM     24  C   UNL     1      10.073  10.807  19.889  0.00  0.00    +0.000 C 
BRANCH  24  25
ATOM     25  C   UNL     1       9.237  11.777  20.724  0.00  0.00    +0.000 C 
BRANCH  25  26
ATOM     26  C   UNL     1       9.935  13.145  20.813  0.00  0.00    +0.000 C 
BRANCH  26  32
ATOM     27  C   UNL     1       9.376  14.212  18.666  0.00  0.00    +0.000 C 
ATOM     28  C   UNL     1       8.663  15.420  18.016  0.00  0.00    +0.000 C 
ATOM     29  C   UNL     1       7.191  15.487  18.387  0.00  0.00    +0.000 C 
ATOM     30  C   UNL     1       7.035  15.438  19.896  0.00  0.00    +0.000 C 
ATOM     31  C   UNL     1       7.787  14.251  20.498  0.00  0.00    +0.000 C 
ATOM     32  N   UNL     1       9.225  14.262  20.150  0.00  0.00    +0.000 NA
BRANCH  27  34
ATOM     33  C   UNL     1      11.111  13.031  17.138  0.00  0.00    +0.000 C 
ATOM     34  C   UNL     1      10.832  14.147  18.137  0.00  0.00    +0.000 C 
ENDBRANCH  27  34
ENDBRANCH  26  32
ENDBRANCH  25  26
ENDBRANCH  24  25
ENDBRANCH  20  24
ENDBRANCH   1  21
TORSDOF 7
ENDMDL
MODEL 2
REMARK VINA RESULT:      -7.9      1.346      2.318
REMARK  Name = 
REMARK  8 active torsions:
REMARK  status: ('A' for Active; 'I' for Inactive)
REMARK    1  A    between atoms: C_1  and  C_2
REMARK    2  A    between atoms: C_2  and  C_3
REMARK    3  A    between atoms: N_8  and  C_9
REMARK    4  A    between atoms: C_9  and  C_10
REMARK    5  A    between atoms: C_10  and  C_11
REMARK    6  A    between atoms: C_11  and  N_12
REMARK    7  A    between atoms: C_13  and  C_15
REMARK    8  A    between atoms: C_18  and  C_19
REMARK                            x       y       z     vdW  Elec       q    Type
REMARK                         _______ _______ _______ _____ _____    ______ ____
ROOT
ATOM      1  C   UNL     1       8.041   8.463  18.157  0.00  0.00    +0.000 A 
ATOM      2  C   UNL     1       8.390   7.336  18.902  0.00  0.00    +0.000 A 
ATOM      3  C   UNL     1       7.697   6.140  18.720  0.00  0.00    +0.000 A 
ATOM      4  C   UNL     1       6.630   6.054  17.814  0.00  0.00    +0.000 A 
ATOM      5  C   UNL     1       6.322   7.163  17.028  0.00  0.00    +0.000 A 
ATOM      6  C   UNL     1       7.011   8.370  17.210  0.00  0.00    +0.000 A 
ENDROOT
BRANCH   4   7
ATOM      7  C   UNL     1       6.006   4.750  17.596  0.00  0.00    +0.000 C 
ATOM      8  C   UNL     1       4.759   4.364  17.928  0.00  0.00    +0.000 C 
ATOM      9  S   UNL     1       4.561   2.653  18.275  0.00  0.00    +0.000 S 
ATOM     10  C   UNL     1       3.237   2.858  19.450  0.00  0.00    +0.000 A 
ATOM     11  C   UNL     1       3.328   2.557  20.799  0.00  0.00    +0.000 A 
ATOM     12  C   UNL     1       2.190   2.687  21.598  0.00  0.00    +0.000 A 
ATOM     13  C   UNL     1       0.957   3.014  21.022  0.00  0.00    +0.000 A 
ATOM     14  C   UNL     1       0.901   3.452  19.702  0.00  0.00    +0.000 A 
ATOM     15  C   UNL     1       2.093   3.518  18.993  0.00  0.00    +0.000 A 
ATOM     16  N   UNL     1       2.316   4.602  18.074  0.00  0.00    +0.000 N 
ATOM     17  C   UNL     1       3.569   5.239  18.307  0.00  0.00    +0.000 C 
ATOM     18  O   UNL     1       3.671   6.309  18.875  0.00  0.00    +0.000 OA
ATOM     19  H   UNL     1       2.323   4.195  17.141  0.00  0.00    +0.000 HD
ENDBRANCH   4   7
BRANCH   1  21
ATOM     20  N   UNL     1       9.465   9.887  19.543  0.00  0.00    +0.000 N 
ATOM     21  C   UNL     1       8.699   9.777  18.394  0.00  0.00    +0.000 C 
ATOM     22  O   UNL     1       8.556  10.683  17.602  0.00  0.00    +0.000 OA
ATOM     23  H   UNL     1       9.747   9.046  20.032  0.00  0.00    +0.000 HD
BRANCH  20  24
ATOM     24  C   UNL     1      10.101  11.140  19.895  0.00  0.00    +0.000 C 
BRANCH  24  25
ATOM     25  C   UNL     1      11.377  11.382  19.090  0.00  0.00    +0.000 C 
BRANCH  25  26
ATOM     26  C   UNL     1      12.029  12.711  19.507  0.00  0.00    +0.000 C 
BRANCH  26  32
ATOM     27  C   UNL     1      11.253  15.010  19.924  0.00  0.00    +0.000 C 
ATOM     28  C   UNL     1      10.577  16.241  19.276  0.00  0.00    +0.000 C 
ATOM     29  C   UNL     1      11.356  16.762  18.080  0.00  0.00    +0.000 C 
ATOM     30  C   UNL     1      11.617  15.633  17.099  0.00  0.00    +0.000 C 
ATOM     31  C   UNL     1      12.250  14.426  17.791  0.00  0.00    +0.000 C 
ATOM     32  N   UNL     1      11.426  13.925  18.913  0.00  0.00    +0.000 NA
BRANCH  27  34
ATOM     33  C   UNL     1       9.430  15.641  21.660  0.00  0.00    +0.000 C 
ATOM     34  C   UNL     1      10.467  14.623  21.202  0.00  0.00    +0.000 C 
ENDBRANCH  27  34
ENDBRANCH  26  32
ENDBRANCH  25  26
ENDBRANCH  24  25
ENDBRANCH  20  24
ENDBRANCH   1  21
TORSDOF 7
ENDMDL
MODEL 3
REMARK VINA RESULT:      -7.8      1.563      2.311
REMARK  Name = 
REMARK  8 active torsions:
REMARK  status: ('A' for Active; 'I' for Inactive)
REMARK    1  A    between atoms: C_1  and  C_2
REMARK    2  A    between atoms: C_2  and  C_3
REMARK    3  A    between atoms: N_8  and  C_9
REMARK    4  A    between atoms: C_9  and  C_10
REMARK    5  A    between atoms: C_10  and  C_11
REMARK    6  A    between atoms: C_11  and  N_12
REMARK    7  A    between atoms: C_13  and  C_15
REMARK    8  A    between atoms: C_18  and  C_19
REMARK                            x       y       z     vdW  Elec       q    Type
REMARK                         _______ _______ _______ _____ _____    ______ ____
ROOT
ATOM      1  C   UNL     1       8.005   8.417  18.274  0.00  0.00    +0.000 A 
ATOM      2  C   UNL     1       7.003   8.412  17.304  0.00  0.00    +0.000 A 
ATOM      3  C   UNL     1       6.342   7.225  16.991  0.00  0.00    +0.000 A 
ATOM      4  C   UNL     1       6.688   6.020  17.620  0.00  0.00    +0.000 A 
ATOM      5  C   UNL     1       7.647   6.037  18.631  0.00  0.00    +0.000 A 
ATOM      6  C   UNL     1       8.318   7.227  18.946  0.00  0.00    +0.000 A 
ENDROOT
BRANCH   4   7
ATOM      7  C   UNL     1       5.895   4.828  17.323  0.00  0.00    +0.000 C 
ATOM      8  C   UNL     1       4.659   4.526  17.764  0.00  0.00    +0.000 C 
ATOM      9  S   UNL     1       4.303   2.812  17.915  0.00  0.00    +0.000 S 
ATOM     10  C   UNL     1       3.158   2.982  19.269  0.00  0.00    +0.000 A 
ATOM     11  C   UNL     1       3.370   2.488  20.546  0.00  0.00    +0.000 A 
ATOM     12  C   UNL     1       2.356   2.618  21.497  0.00  0.00    +0.000 A 
ATOM     13  C   UNL     1       1.110   3.144  21.134  0.00  0.00    +0.000 A 
ATOM     14  C   UNL     1       0.953   3.766  19.897  0.00  0.00    +0.000 A 
ATOM     15  C   UNL     1       2.053   3.810  19.053  0.00  0.00    +0.000 A 
ATOM     16  N   UNL     1       2.293   4.985  18.257  0.00  0.00    +0.000 N 
ATOM     17  C   UNL     1       3.631   5.454  18.402  0.00  0.00    +0.000 C 
ATOM     18  O   UNL     1       3.922   6.419  19.083  0.00  0.00    +0.000 OA
ATOM     19  H   UNL     1       2.145   4.713  17.288  0.00  0.00    +0.000 HD
ENDBRANCH   4   7
BRANCH   1  21
ATOM     20  N   UNL     1       8.612  10.714  17.697  0.00  0.00    +0.000 N 
ATOM     21  C   UNL     1       8.792   9.648  18.563  0.00  0.00    +0.000 C 
ATOM     22  O   UNL     1       9.538   9.684  19.516  0.00  0.00    +0.000 OA
ATOM     23  H   UNL     1       7.812  10.718  17.077  0.00  0.00    +0.000 HD
BRANCH  20  24
ATOM     24  C   UNL     1       9.372  11.937  17.857  0.00  0.00    +0.000 C 
BRANCH  24  25
ATOM     25  C   UNL     1      10.868  11.717  17.639  0.00  0.00    +0.000 C 
BRANCH  25  26
ATOM     26  C   UNL     1      11.683  12.743  18.444  0.00  0.00    +0.000 C 
BRANCH  26  32
ATOM     27  C   UNL     1      11.402  14.916  19.567  0.00  0.00    +0.000 C 
ATOM     28  C   UNL     1      10.896  16.365  19.382  0.00  0.00    +0.000 C 
ATOM     29  C   UNL     1      11.615  17.086  18.253  0.00  0.00    +0.000 C 
ATOM     30  C   UNL     1      11.546  16.258  16.983  0.00  0.00    +0.000 C 
ATOM     31  C   UNL     1      12.019  14.824  17.223  0.00  0.00    +0.000 C 
ATOM     32  N   UNL     1      11.252  14.151  18.294  0.00  0.00    +0.000 NA
BRANCH  27  34
ATOM     33  C   UNL     1       9.492  15.060  21.319  0.00  0.00    +0.000 C 
ATOM     34  C   UNL     1      10.710  14.300  20.811  0.00  0.00    +0.000 C 
ENDBRANCH  27  34
ENDBRANCH  26  32
ENDBRANCH  25  26
ENDBRANCH  24  25
ENDBRANCH  20  24
ENDBRANCH   1  21
TORSDOF 7
ENDMDL
MODEL 4
REMARK VINA RESULT:      -7.7      0.705      1.115
REMARK  Name = 
REMARK  8 active torsions:
REMARK  status: ('A' for Active; 'I' for Inactive)
REMARK    1  A    between atoms: C_1  and  C_2
REMARK    2  A    between atoms: C_2  and  C_3
REMARK    3  A    between atoms: N_8  and  C_9
REMARK    4  A    between atoms: C_9  and  C_10
REMARK    5  A    between atoms: C_10  and  C_11
REMARK    6  A    between atoms: C_11  and  N_12
REMARK    7  A    between atoms: C_13  and  C_15
REMARK    8  A    between atoms: C_18  and  C_19
REMARK                            x       y       z     vdW  Elec       q    Type
REMARK                         _______ _______ _______ _____ _____    ______ ____
ROOT
ATOM      1  C   UNL     1       8.168   8.456  18.269  0.00  0.00    +0.000 A 
ATOM      2  C   UNL     1       8.413   7.256  18.937  0.00  0.00    +0.000 A 
ATOM      3  C   UNL     1       7.628   6.137  18.669  0.00  0.00    +0.000 A 
ATOM      4  C   UNL     1       6.568   6.202  17.752  0.00  0.00    +0.000 A 
ATOM      5  C   UNL     1       6.362   7.383  17.042  0.00  0.00    +0.000 A 
ATOM      6  C   UNL     1       7.145   8.514  17.312  0.00  0.00    +0.000 A 
ENDROOT
BRANCH   4   7
ATOM      7  C   UNL     1       5.842   4.971  17.441  0.00  0.00    +0.000 C 
ATOM      8  C   UNL     1       4.613   4.609  17.854  0.00  0.00    +0.000 C 
ATOM      9  S   UNL     1       4.339   2.881  18.003  0.00  0.00    +0.000 S 
ATOM     10  C   UNL     1       3.154   2.998  19.329  0.00  0.00    +0.000 A 
ATOM     11  C   UNL     1       3.360   2.518  20.613  0.00  0.00    +0.000 A 
ATOM     12  C   UNL     1       2.318   2.601  21.539  0.00  0.00    +0.000 A 
ATOM     13  C   UNL     1       1.057   3.064  21.144  0.00  0.00    +0.000 A 
ATOM     14  C   UNL     1       0.899   3.673  19.902  0.00  0.00    +0.000 A 
ATOM     15  C   UNL     1       2.016   3.770  19.084  0.00  0.00    +0.000 A 
ATOM     16  N   UNL     1       2.216   4.952  18.289  0.00  0.00    +0.000 N 
ATOM     17  C   UNL     1       3.525   5.487  18.464  0.00  0.00    +0.000 C 
ATOM     18  O   UNL     1       3.752   6.467  19.148  0.00  0.00    +0.000 OA
ATOM     19  H   UNL     1       2.104   4.671  17.317  0.00  0.00    +0.000 HD
ENDBRANCH   4   7
BRANCH   1  21
ATOM     20  N   UNL     1       9.197   9.912  19.941  0.00  0.00    +0.000 N 
ATOM     21  C   UNL     1       8.928   9.693  18.600  0.00  0.00    +0.000 C 
ATOM     22  O   UNL     1       9.282  10.446  17.720  0.00  0.00    +0.000 OA
ATOM     23  H   UNL     1       9.099   9.147  20.598  0.00  0.00    +0.000 HD
BRANCH  20  24
ATOM     24  C   UNL     1       9.882  11.113  20.375  0.00  0.00    +0.000 C 
BRANCH  24  25
ATOM     25  C   UNL     1       9.068  11.900  21.401  0.00  0.00    +0.000 C 
BRANCH  25  26
ATOM     26  C   UNL     1       9.656  13.309  21.584  0.00  0.00    +0.000 C 
BRANCH  26  32
ATOM     27  C   UNL     1       9.011  14.517  19.538  0.00  0.00    +0.000 C 
ATOM     28  C   UNL     1       8.189  15.708  18.993  0.00  0.00    +0.000 C 
ATOM     29  C   UNL     1       6.714  15.599  19.346  0.00  0.00    +0.000 C 
ATOM     30  C   UNL     1       6.554  15.392  20.842  0.00  0.00    +0.000 C 
ATOM     31  C   UNL     1       7.414  14.231  21.341  0.00  0.00    +0.000 C 
ATOM     32  N   UNL     1       8.846  14.411  21.017  0.00  0.00    +0.000 NA
BRANCH  27  34
ATOM     33  C   UNL     1      10.622  15.240  17.636  0.00  0.00    +0.000 C 
ATOM     34  C   UNL     1      10.470  14.641  19.028  0.00  0.00    +0.000 C 
ENDBRANCH  27  34
ENDBRANCH  26  32
ENDBRANCH  25  26
ENDBRANCH  24  25
ENDBRANCH  20  24
ENDBRANCH   1  21
TORSDOF 7
ENDMDL
MODEL 5
REMARK VINA RESULT:      -7.7      1.375      2.182
REMARK  Name = 
REMARK  8 active torsions:
REMARK  status: ('A' for Active; 'I' for Inactive)
REMARK    1  A    between atoms: C_1  and  C_2
REMARK    2  A    between atoms: C_2  and  C_3
REMARK    3  A    between atoms: N_8  and  C_9
REMARK    4  A    between atoms: C_9  and  C_10
REMARK    5  A    between atoms: C_10  and  C_11
REMARK    6  A    between atoms: C_11  and  N_12
REMARK    7  A    between atoms: C_13  and  C_15
REMARK    8  A    between atoms: C_18  and  C_19
REMARK                            x       y       z     vdW  Elec       q    Type
REMARK                         _______ _______ _______ _____ _____    ______ ____
ROOT
ATOM      1  C   UNL     1       8.240   8.483  18.363  0.00  0.00    +0.000 A 
ATOM      2  C   UNL     1       8.450   7.287  19.049  0.00  0.00    +0.000 A 
ATOM      3  C   UNL     1       7.668   6.171  18.757  0.00  0.00    +0.000 A 
ATOM      4  C   UNL     1       6.648   6.235  17.797  0.00  0.00    +0.000 A 
ATOM      5  C   UNL     1       6.479   7.413  17.070  0.00  0.00    +0.000 A 
ATOM      6  C   UNL     1       7.259   8.540  17.363  0.00  0.00    +0.000 A 
ENDROOT
BRANCH   4   7
ATOM      7  C   UNL     1       5.927   5.008  17.465  0.00  0.00    +0.000 C 
ATOM      8  C   UNL     1       4.687   4.647  17.848  0.00  0.00    +0.000 C 
ATOM      9  S   UNL     1       4.406   2.919  17.986  0.00  0.00    +0.000 S 
ATOM     10  C   UNL     1       3.191   3.034  19.285  0.00  0.00    +0.000 A 
ATOM     11  C   UNL     1       3.366   2.551  20.571  0.00  0.00    +0.000 A 
ATOM     12  C   UNL     1       2.303   2.632  21.473  0.00  0.00    +0.000 A 
ATOM     13  C   UNL     1       1.053   3.099  21.051  0.00  0.00    +0.000 A 
ATOM     14  C   UNL     1       0.925   3.713  19.807  0.00  0.00    +0.000 A 
ATOM     15  C   UNL     1       2.060   3.810  19.015  0.00  0.00    +0.000 A 
ATOM     16  N   UNL     1       2.282   4.994  18.229  0.00  0.00    +0.000 N 
ATOM     17  C   UNL     1       3.588   5.525  18.436  0.00  0.00    +0.000 C 
ATOM     18  O   UNL     1       3.801   6.503  19.128  0.00  0.00    +0.000 OA
ATOM     19  H   UNL     1       2.192   4.716  17.254  0.00  0.00    +0.000 HD
ENDBRANCH   4   7
BRANCH   1  21
ATOM     20  N   UNL     1       9.369  10.535  17.662  0.00  0.00    +0.000 N 
ATOM     21  C   UNL     1       8.995   9.717  18.716  0.00  0.00    +0.000 C 
ATOM     22  O   UNL     1       9.251   9.966  19.873  0.00  0.00    +0.000 OA
ATOM     23  H   UNL     1       8.927  10.413  16.759  0.00  0.00    +0.000 HD
BRANCH  20  24
ATOM     24  C   UNL     1      10.155  11.730  17.892  0.00  0.00    +0.000 C 
BRANCH  24  25
ATOM     25  C   UNL     1       9.358  13.004  17.613  0.00  0.00    +0.000 C 
BRANCH  25  26
ATOM     26  C   UNL     1      10.257  14.243  17.769  0.00  0.00    +0.000 C 
BRANCH  26  32
ATOM     27  C   UNL     1      10.508  15.699  19.738  0.00  0.00    +0.000 C 
ATOM     28  C   UNL     1       9.838  16.831  20.552  0.00  0.00    +0.000 C 
ATOM     29  C   UNL     1       9.587  18.073  19.714  0.00  0.00    +0.000 C 
ATOM     30  C   UNL     1       8.821  17.703  18.456  0.00  0.00    +0.000 C 
ATOM     31  C   UNL     1       9.499  16.557  17.705  0.00  0.00    +0.000 C 
ATOM     32  N   UNL     1       9.671  15.355  18.550  0.00  0.00    +0.000 NA
BRANCH  27  34
ATOM     33  C   UNL     1       9.746  14.171  21.692  0.00  0.00    +0.000 C 
ATOM     34  C   UNL     1      10.841  14.525  20.693  0.00  0.00    +0.000 C 
ENDBRANCH  27  34
ENDBRANCH  26  32
ENDBRANCH  25  26
ENDBRANCH  24  25
ENDBRANCH  20  24
ENDBRANCH   1  21
TORSDOF 7
ENDMDL
MODEL 6
REMARK VINA RESULT:      -7.7      1.383      2.480
REMARK  Name = 
REMARK  8 active torsions:
REMARK  status: ('A' for Active; 'I' for Inactive)
REMARK    1  A    between atoms: C_1  and  C_2
REMARK    2  A    between atoms: C_2  and  C_3
REMARK    3  A    between atoms: N_8  and  C_9
REMARK    4  A    between atoms: C_9  and  C_10
REMARK    5  A    between atoms: C_10  and  C_11
REMARK    6  A    between atoms: C_11  and  N_12
REMARK    7  A    between atoms: C_13  and  C_15
REMARK    8  A    between atoms: C_18  and  C_19
REMARK                            x       y       z     vdW  Elec       q    Type
REMARK                         _______ _______ _______ _____ _____    ______ ____
ROOT
ATOM      1  C   UNL     1       8.191   8.445  18.316  0.00  0.00    +0.000 A 
ATOM      2  C   UNL     1       8.431   7.237  18.972  0.00  0.00    +0.000 A 
ATOM      3  C   UNL     1       7.644   6.122  18.688  0.00  0.00    +0.000 A 
ATOM      4  C   UNL     1       6.589   6.199  17.767  0.00  0.00    +0.000 A 
ATOM      5  C   UNL     1       6.389   7.388  17.068  0.00  0.00    +0.000 A 
ATOM      6  C   UNL     1       7.173   8.514  17.354  0.00  0.00    +0.000 A 
ENDROOT
BRANCH   4   7
ATOM      7  C   UNL     1       5.863   4.973  17.439  0.00  0.00    +0.000 C 
ATOM      8  C   UNL     1       4.629   4.611  17.840  0.00  0.00    +0.000 C 
ATOM      9  S   UNL     1       4.349   2.882  17.972  0.00  0.00    +0.000 S 
ATOM     10  C   UNL     1       3.155   2.990  19.290  0.00  0.00    +0.000 A 
ATOM     11  C   UNL     1       3.350   2.499  20.570  0.00  0.00    +0.000 A 
ATOM     12  C   UNL     1       2.301   2.576  21.489  0.00  0.00    +0.000 A 
ATOM     13  C   UNL     1       1.044   3.046  21.089  0.00  0.00    +0.000 A 
ATOM     14  C   UNL     1       0.897   3.667  19.851  0.00  0.00    +0.000 A 
ATOM     15  C   UNL     1       2.020   3.768  19.042  0.00  0.00    +0.000 A 
ATOM     16  N   UNL     1       2.230   4.956  18.259  0.00  0.00    +0.000 N 
ATOM     17  C   UNL     1       3.539   5.486  18.449  0.00  0.00    +0.000 C 
ATOM     18  O   UNL     1       3.764   6.460  19.143  0.00  0.00    +0.000 OA
ATOM     19  H   UNL     1       2.125   4.684  17.285  0.00  0.00    +0.000 HD
ENDBRANCH   4   7
BRANCH   1  21
ATOM     20  N   UNL     1       9.423  10.431  17.602  0.00  0.00    +0.000 N 
ATOM     21  C   UNL     1       8.952   9.676  18.663  0.00  0.00    +0.000 C 
ATOM     22  O   UNL     1       9.130   9.976  19.823  0.00  0.00    +0.000 OA
ATOM     23  H   UNL     1       9.045  10.274  16.676  0.00  0.00    +0.000 HD
BRANCH  20  24
ATOM     24  C   UNL     1      10.223  11.617  17.831  0.00  0.00    +0.000 C 
BRANCH  24  25
ATOM     25  C   UNL     1       9.386  12.894  17.778  0.00  0.00    +0.000 C 
BRANCH  25  26
ATOM     26  C   UNL     1      10.008  13.980  18.671  0.00  0.00    +0.000 C 
BRANCH  26  32
ATOM     27  C   UNL     1       9.239  16.319  18.709  0.00  0.00    +0.000 C 
ATOM     28  C   UNL     1       9.358  17.688  18.000  0.00  0.00    +0.000 C 
ATOM     29  C   UNL     1      10.789  18.200  17.974  0.00  0.00    +0.000 C 
ATOM     30  C   UNL     1      11.708  17.140  17.393  0.00  0.00    +0.000 C 
ATOM     31  C   UNL     1      11.528  15.796  18.099  0.00  0.00    +0.000 C 
ATOM     32  N   UNL     1      10.129  15.318  18.050  0.00  0.00    +0.000 NA
BRANCH  27  34
ATOM     33  C   UNL     1       6.769  17.106  18.829  0.00  0.00    +0.000 C 
ATOM     34  C   UNL     1       7.740  15.933  18.802  0.00  0.00    +0.000 C 
ENDBRANCH  27  34
ENDBRANCH  26  32
ENDBRANCH  25  26
ENDBRANCH  24  25
ENDBRANCH  20  24
ENDBRANCH   1  21
TORSDOF 7
ENDMDL
MODEL 7
REMARK VINA RESULT:      -7.7      0.645      2.019
REMARK  Name = 
REMARK  8 active torsions:
REMARK  status: ('A' for Active; 'I' for Inactive)
REMARK    1  A    between atoms: C_1  and  C_2
REMARK    2  A    between atoms: C_2  and  C_3
REMARK    3  A    between atoms: N_8  and  C_9
REMARK    4  A    between atoms: C_9  and  C_10
REMARK    5  A    between atoms: C_10  and  C_11
REMARK    6  A    between atoms: C_11  and  N_12
REMARK    7  A    between atoms: C_13  and  C_15
REMARK    8  A    between atoms: C_18  and  C_19
REMARK                            x       y       z     vdW  Elec       q    Type
REMARK                         _______ _______ _______ _____ _____    ______ ____
ROOT
ATOM      1  C   UNL     1       8.161   8.458  18.193  0.00  0.00    +0.000 A 
ATOM      2  C   UNL     1       8.405   7.254  18.854  0.00  0.00    +0.000 A 
ATOM      3  C   UNL     1       7.607   6.142  18.592  0.00  0.00    +0.000 A 
ATOM      4  C   UNL     1       6.537   6.218  17.688  0.00  0.00    +0.000 A 
ATOM      5  C   UNL     1       6.332   7.403  16.984  0.00  0.00    +0.000 A 
ATOM      6  C   UNL     1       7.128   8.526  17.247  0.00  0.00    +0.000 A 
ENDROOT
BRANCH   4   7
ATOM      7  C   UNL     1       5.798   4.994  17.381  0.00  0.00    +0.000 C 
ATOM      8  C   UNL     1       4.573   4.638  17.814  0.00  0.00    +0.000 C 
ATOM      9  S   UNL     1       4.290   2.910  17.957  0.00  0.00    +0.000 S 
ATOM     10  C   UNL     1       3.130   3.026  19.304  0.00  0.00    +0.000 A 
ATOM     11  C   UNL     1       3.355   2.537  20.581  0.00  0.00    +0.000 A 
ATOM     12  C   UNL     1       2.330   2.621  21.526  0.00  0.00    +0.000 A 
ATOM     13  C   UNL     1       1.066   3.095  21.156  0.00  0.00    +0.000 A 
ATOM     14  C   UNL     1       0.890   3.713  19.921  0.00  0.00    +0.000 A 
ATOM     15  C   UNL     1       1.993   3.808  19.083  0.00  0.00    +0.000 A 
ATOM     16  N   UNL     1       2.187   4.994  18.293  0.00  0.00    +0.000 N 
ATOM     17  C   UNL     1       3.503   5.519  18.448  0.00  0.00    +0.000 C 
ATOM     18  O   UNL     1       3.749   6.493  19.134  0.00  0.00    +0.000 OA
ATOM     19  H   UNL     1       2.056   4.720  17.322  0.00  0.00    +0.000 HD
ENDBRANCH   4   7
BRANCH   1  21
ATOM     20  N   UNL     1       9.173   9.930  19.861  0.00  0.00    +0.000 N 
ATOM     21  C   UNL     1       8.936   9.687  18.518  0.00  0.00    +0.000 C 
ATOM     22  O   UNL     1       9.328  10.414  17.633  0.00  0.00    +0.000 OA
ATOM     23  H   UNL     1       9.042   9.182  20.531  0.00  0.00    +0.000 HD
BRANCH  20  24
ATOM     24  C   UNL     1       9.868  11.127  20.288  0.00  0.00    +0.000 C 
BRANCH  24  25
ATOM     25  C   UNL     1       9.093  11.890  21.362  0.00  0.00    +0.000 C 
BRANCH  25  26
ATOM     26  C   UNL     1       9.321  13.404  21.214  0.00  0.00    +0.000 C 
BRANCH  26  32
ATOM     27  C   UNL     1       8.312  15.070  19.708  0.00  0.00    +0.000 C 
ATOM     28  C   UNL     1       8.238  15.547  18.238  0.00  0.00    +0.000 C 
ATOM     29  C   UNL     1       9.602  15.934  17.690  0.00  0.00    +0.000 C 
ATOM     30  C   UNL     1      10.587  14.800  17.904  0.00  0.00    +0.000 C 
ATOM     31  C   UNL     1      10.598  14.336  19.360  0.00  0.00    +0.000 C 
ATOM     32  N   UNL     1       9.257  13.921  19.828  0.00  0.00    +0.000 NA
BRANCH  27  34
ATOM     33  C   UNL     1       6.243  15.978  20.983  0.00  0.00    +0.000 C 
ATOM     34  C   UNL     1       6.873  14.817  20.225  0.00  0.00    +0.000 C 
ENDBRANCH  27  34
ENDBRANCH  26  32
ENDBRANCH  25  26
ENDBRANCH  24  25
ENDBRANCH  20  24
ENDBRANCH   1  21
TORSDOF 7
ENDMDL
MODEL 8
REMARK VINA RESULT:      -7.6      1.323      2.140
REMARK  Name = 
REMARK  8 active torsions:
REMARK  status: ('A' for Active; 'I' for Inactive)
REMARK    1  A    between atoms: C_1  and  C_2
REMARK    2  A    between atoms: C_2  and  C_3
REMARK    3  A    between atoms: N_8  and  C_9
REMARK    4  A    between atoms: C_9  and  C_10
REMARK    5  A    between atoms: C_10  and  C_11
REMARK    6  A    between atoms: C_11  and  N_12
REMARK    7  A    between atoms: C_13  and  C_15
REMARK    8  A    between atoms: C_18  and  C_19
REMARK                            x       y       z     vdW  Elec       q    Type
REMARK                         _______ _______ _______ _____ _____    ______ ____
ROOT
ATOM      1  C   UNL     1       8.249   8.485  18.369  0.00  0.00    +0.000 A 
ATOM      2  C   UNL     1       8.448   7.262  19.010  0.00  0.00    +0.000 A 
ATOM      3  C   UNL     1       7.637   6.173  18.698  0.00  0.00    +0.000 A 
ATOM      4  C   UNL     1       6.599   6.290  17.763  0.00  0.00    +0.000 A 
ATOM      5  C   UNL     1       6.439   7.495  17.080  0.00  0.00    +0.000 A 
ATOM      6  C   UNL     1       7.248   8.596  17.394  0.00  0.00    +0.000 A 
ENDROOT
BRANCH   4   7
ATOM      7  C   UNL     1       5.845   5.089  17.406  0.00  0.00    +0.000 C 
ATOM      8  C   UNL     1       4.618   4.728  17.826  0.00  0.00    +0.000 C 
ATOM      9  S   UNL     1       4.316   2.999  17.894  0.00  0.00    +0.000 S 
ATOM     10  C   UNL     1       3.160   3.069  19.249  0.00  0.00    +0.000 A 
ATOM     11  C   UNL     1       3.383   2.523  20.502  0.00  0.00    +0.000 A 
ATOM     12  C   UNL     1       2.361   2.576  21.453  0.00  0.00    +0.000 A 
ATOM     13  C   UNL     1       1.101   3.079  21.107  0.00  0.00    +0.000 A 
ATOM     14  C   UNL     1       0.929   3.752  19.900  0.00  0.00    +0.000 A 
ATOM     15  C   UNL     1       2.031   3.871  19.065  0.00  0.00    +0.000 A 
ATOM     16  N   UNL     1       2.237   5.088  18.325  0.00  0.00    +0.000 N 
ATOM     17  C   UNL     1       3.558   5.592  18.500  0.00  0.00    +0.000 C 
ATOM     18  O   UNL     1       3.816   6.533  19.227  0.00  0.00    +0.000 OA
ATOM     19  H   UNL     1       2.101   4.857  17.344  0.00  0.00    +0.000 HD
ENDBRANCH   4   7
BRANCH   1  21
ATOM     20  N   UNL     1       9.360  10.564  17.721  0.00  0.00    +0.000 N 
ATOM     21  C   UNL     1       9.037   9.691  18.747  0.00  0.00    +0.000 C 
ATOM     22  O   UNL     1       9.360   9.872  19.900  0.00  0.00    +0.000 OA
ATOM     23  H   UNL     1       8.867  10.496  16.839  0.00  0.00    +0.000 HD
BRANCH  20  24
ATOM     24  C   UNL     1      10.171  11.737  17.972  0.00  0.00    +0.000 C 
BRANCH  24  25
ATOM     25  C   UNL     1       9.526  13.010  17.425  0.00  0.00    +0.000 C 
BRANCH  25  26
ATOM     26  C   UNL     1       8.695  13.702  18.519  0.00  0.00    +0.000 C 
BRANCH  26  32
ATOM     27  C   UNL     1       9.688  15.334  20.072  0.00  0.00    +0.000 C 
ATOM     28  C   UNL     1      10.453  15.487  21.407  0.00  0.00    +0.000 C 
ATOM     29  C   UNL     1       9.689  14.894  22.580  0.00  0.00    +0.000 C 
ATOM     30  C   UNL     1       9.298  13.460  22.272  0.00  0.00    +0.000 C 
ATOM     31  C   UNL     1       8.579  13.353  20.927  0.00  0.00    +0.000 C 
ATOM     32  N   UNL     1       9.388  13.895  19.813  0.00  0.00    +0.000 NA
BRANCH  27  34
ATOM     33  C   UNL     1      11.419  17.163  19.444  0.00  0.00    +0.000 C 
ATOM     34  C   UNL     1      10.474  16.072  18.958  0.00  0.00    +0.000 C 
ENDBRANCH  27  34
ENDBRANCH  26  32
ENDBRANCH  25  26
ENDBRANCH  24  25
ENDBRANCH  20  24
ENDBRANCH   1  21
TORSDOF 7
ENDMDL
MODEL 9
REMARK VINA RESULT:      -7.6      1.788      2.903
REMARK  Name = 
REMARK  8 active torsions:
REMARK  status: ('A' for Active; 'I' for Inactive)
REMARK    1  A    between atoms: C_1  and  C_2
REMARK    2  A    between atoms: C_2  and  C_3
REMARK    3  A    between atoms: N_8  and  C_9
REMARK    4  A    between atoms: C_9  and  C_10
REMARK    5  A    between atoms: C_10  and  C_11
REMARK    6  A    between atoms: C_11  and  N_12
REMARK    7  A    between atoms: C_13  and  C_15
REMARK    8  A    between atoms: C_18  and  C_19
REMARK                            x       y       z     vdW  Elec       q    Type
REMARK                         _______ _______ _______ _____ _____    ______ ____
ROOT
ATOM      1  C   UNL     1       8.045   8.412  18.156  0.00  0.00    +0.000 A 
ATOM      2  C   UNL     1       8.373   7.280  18.902  0.00  0.00    +0.000 A 
ATOM      3  C   UNL     1       7.661   6.096  18.720  0.00  0.00    +0.000 A 
ATOM      4  C   UNL     1       6.594   6.028  17.812  0.00  0.00    +0.000 A 
ATOM      5  C   UNL     1       6.306   7.141  17.025  0.00  0.00    +0.000 A 
ATOM      6  C   UNL     1       7.016   8.336  17.208  0.00  0.00    +0.000 A 
ENDROOT
BRANCH   4   7
ATOM      7  C   UNL     1       5.949   4.734  17.594  0.00  0.00    +0.000 C 
ATOM      8  C   UNL     1       4.706   4.359  17.953  0.00  0.00    +0.000 C 
ATOM      9  S   UNL     1       4.494   2.647  18.284  0.00  0.00    +0.000 S 
ATOM     10  C   UNL     1       3.203   2.853  19.494  0.00  0.00    +0.000 A 
ATOM     11  C   UNL     1       3.325   2.534  20.837  0.00  0.00    +0.000 A 
ATOM     12  C   UNL     1       2.209   2.668  21.666  0.00  0.00    +0.000 A 
ATOM     13  C   UNL     1       0.966   3.017  21.126  0.00  0.00    +0.000 A 
ATOM     14  C   UNL     1       0.883   3.472  19.812  0.00  0.00    +0.000 A 
ATOM     15  C   UNL     1       2.056   3.532  19.074  0.00  0.00    +0.000 A 
ATOM     16  N   UNL     1       2.270   4.625  18.163  0.00  0.00    +0.000 N 
ATOM     17  C   UNL     1       3.537   5.243  18.372  0.00  0.00    +0.000 C 
ATOM     18  O   UNL     1       3.666   6.305  18.951  0.00  0.00    +0.000 OA
ATOM     19  H   UNL     1       2.249   4.230  17.226  0.00  0.00    +0.000 HD
ENDBRANCH   4   7
BRANCH   1  21
ATOM     20  N   UNL     1       9.415   9.844  19.588  0.00  0.00    +0.000 N 
ATOM     21  C   UNL     1       8.725   9.715  18.393  0.00  0.00    +0.000 C 
ATOM     22  O   UNL     1       8.663  10.596  17.564  0.00  0.00    +0.000 OA
ATOM     23  H   UNL     1       9.639   9.014  20.122  0.00  0.00    +0.000 HD
BRANCH  20  24
ATOM     24  C   UNL     1      10.063  11.090  19.940  0.00  0.00    +0.000 C 
BRANCH  24  25
ATOM     25  C   UNL     1       9.096  12.077  20.592  0.00  0.00    +0.000 C 
BRANCH  25  26
ATOM     26  C   UNL     1       9.694  12.632  21.896  0.00  0.00    +0.000 C 
BRANCH  26  32
ATOM     27  C   UNL     1       7.918  14.029  22.874  0.00  0.00    +0.000 C 
ATOM     28  C   UNL     1       6.968  14.180  24.084  0.00  0.00    +0.000 C 
ATOM     29  C   UNL     1       6.061  12.973  24.259  0.00  0.00    +0.000 C 
ATOM     30  C   UNL     1       6.891  11.703  24.302  0.00  0.00    +0.000 C 
ATOM     31  C   UNL     1       7.841  11.615  23.108  0.00  0.00    +0.000 C 
ATOM     32  N   UNL     1       8.737  12.789  23.015  0.00  0.00    +0.000 NA
BRANCH  27  34
ATOM     33  C   UNL     1       9.523  15.787  23.907  0.00  0.00    +0.000 C 
ATOM     34  C   UNL     1       8.714  15.347  22.693  0.00  0.00    +0.000 C 
ENDBRANCH  27  34
ENDBRANCH  26  32
ENDBRANCH  25  26
ENDBRANCH  24  25
ENDBRANCH  20  24
ENDBRANCH   1  21
TORSDOF 7
ENDMDL
