MODEL 1
REMARK VINA RESULT:      -8.0      0.000      0.000
REMARK  Name = 
REMARK  13 active torsions:
REMARK  status: ('A' for Active; 'I' for Inactive)
REMARK    1  A    between atoms: C_1  and  C_2
REMARK    2  A    between atoms: C_2  and  C_3
REMARK    3  A    between atoms: C_3  and  C_4
REMARK    4  A    between atoms: C_4  and  C_5
REMARK    5  A    between atoms: C_5  and  C_6
REMARK    6  A    between atoms: C_6  and  N_7
REMARK    7  A    between atoms: C_10  and  O_11
REMARK    8  A    between atoms: C_12  and  C_13
REMARK    9  A    between atoms: C_13  and  C_15
REMARK   10  A    between atoms: C_21  and  C_22
REMARK   11  A    between atoms: C_25  and  O_26
REMARK   12  A    between atoms: C_27  and  O_28
REMARK   13  A    between atoms: O_28  and  C_29
REMARK                            x       y       z     vdW  Elec       q    Type
REMARK                         _______ _______ _______ _____ _____    ______ ____
ROOT
ATOM      1  N   UNL     1       5.479   6.458  17.351  0.00  0.00    +0.000 N 
ATOM      2  C   UNL     1       5.730   5.735  16.210  0.00  0.00    +0.000 C 
ATOM      3  O   UNL     1       6.551   5.931  15.331  0.00  0.00    +0.000 OA
ATOM      4  C   UNL     1       4.805   4.584  16.212  0.00  0.00    +0.000 C 
ATOM      5  C   UNL     1       4.061   4.661  17.325  0.00  0.00    +0.000 C 
ATOM      6  C   UNL     1       4.384   5.888  18.128  0.00  0.00    +0.000 C 
ENDROOT
BRANCH   6   7
ATOM      7  C   UNL     1       3.272   6.900  18.330  0.00  0.00    +0.000 A 
ATOM      8  C   UNL     1       3.019   7.931  17.416  0.00  0.00    +0.000 A 
ATOM      9  C   UNL     1       2.118   8.950  17.731  0.00  0.00    +0.000 A 
ATOM     10  C   UNL     1       1.486   8.958  18.974  0.00  0.00    +0.000 A 
ATOM     11  C   UNL     1       1.692   7.927  19.896  0.00  0.00    +0.000 A 
ATOM     12  C   UNL     1       2.558   6.888  19.549  0.00  0.00    +0.000 A 
BRANCH  10  13
ATOM     13  O   UNL     1       0.667  10.002  19.311  0.00  0.00    +0.000 OA
ATOM     14  H   UNL     1      -0.139   9.649  19.719  0.00  0.00    +0.000 HD
ENDBRANCH  10  13
BRANCH  11  15
ATOM     15  O   UNL     1       1.047   8.039  21.099  0.00  0.00    +0.000 OA
ATOM     16  C   UNL     1       1.581   8.943  22.055  0.00  0.00    +0.000 C 
ENDBRANCH  11  15
ENDBRANCH   6   7
BRANCH   4  17
ATOM     17  O   UNL     1       4.795   3.663  15.212  0.00  0.00    +0.000 OA
ATOM     18  H   UNL     1       5.474   3.001  15.453  0.00  0.00    +0.000 HD
ENDBRANCH   4  17
BRANCH   5  19
ATOM     19  C   UNL     1       2.989   3.681  17.620  0.00  0.00    +0.000 C 
ATOM     20  O   UNL     1       2.354   3.159  16.706  0.00  0.00    +0.000 OA
BRANCH  19  21
ATOM     21  C   UNL     1       2.598   3.349  19.019  0.00  0.00    +0.000 A 
ATOM     22  C   UNL     1       1.244   3.498  19.362  0.00  0.00    +0.000 A 
ATOM     23  C   UNL     1       0.794   3.197  20.648  0.00  0.00    +0.000 A 
ATOM     24  C   UNL     1       1.695   2.751  21.611  0.00  0.00    +0.000 A 
ATOM     25  C   UNL     1       3.037   2.573  21.277  0.00  0.00    +0.000 A 
ATOM     26  C   UNL     1       3.481   2.842  19.978  0.00  0.00    +0.000 A 
ENDBRANCH  19  21
ENDBRANCH   5  19
BRANCH   1  27
ATOM     27  C   UNL     1       6.242   7.638  17.734  0.00  0.00    +0.000 C 
BRANCH  27  28
ATOM     28  C   UNL     1       7.754   7.415  17.770  0.00  0.00    +0.000 C 
BRANCH  28  29
ATOM     29  C   UNL     1       8.503   8.469  18.586  0.00  0.00    +0.000 C 
BRANCH  29  30
ATOM     30  C   UNL     1       8.365   9.850  17.942  0.00  0.00    +0.000 C 
BRANCH  30  32
ATOM     31  C   UNL     1       9.464  10.770  20.007  0.00  0.00    +0.000 C 
ATOM     32  C   UNL     1       9.399  10.829  18.490  0.00  0.00    +0.000 C 
ENDBRANCH  30  32
ENDBRANCH  29  30
ENDBRANCH  28  29
ENDBRANCH  27  28
ENDBRANCH   1  27
TORSDOF 11
ENDMDL
MODEL 2
REMARK VINA RESULT:      -7.7      1.024      1.448
REMARK  Name = 
REMARK  13 active torsions:
REMARK  status: ('A' for Active; 'I' for Inactive)
REMARK    1  A    between atoms: C_1  and  C_2
REMARK    2  A    between atoms: C_2  and  C_3
REMARK    3  A    between atoms: C_3  and  C_4
REMARK    4  A    between atoms: C_4  and  C_5
REMARK    5  A    between atoms: C_5  and  C_6
REMARK    6  A    between atoms: C_6  and  N_7
REMARK    7  A    between atoms: C_10  and  O_11
REMARK    8  A    between atoms: C_12  and  C_13
REMARK    9  A    between atoms: C_13  and  C_15
REMARK   10  A    between atoms: C_21  and  C_22
REMARK   11  A    between atoms: C_25  and  O_26
REMARK   12  A    between atoms: C_27  and  O_28
REMARK   13  A    between atoms: O_28  and  C_29
REMARK                            x       y       z     vdW  Elec       q    Type
REMARK                         _______ _______ _______ _____ _____    ______ ____
ROOT
ATOM      1  N   UNL     1       6.257   5.550  17.843  0.00  0.00    +0.000 N 
ATOM      2  C   UNL     1       6.656   4.713  16.830  0.00  0.00    +0.000 C 
ATOM      3  O   UNL     1       7.644   4.767  16.120  0.00  0.00    +0.000 OA
ATOM      4  C   UNL     1       5.646   3.640  16.731  0.00  0.00    +0.000 C 
ATOM      5  C   UNL     1       4.712   3.871  17.665  0.00  0.00    +0.000 C 
ATOM      6  C   UNL     1       4.986   5.137  18.426  0.00  0.00    +0.000 C 
ENDROOT
BRANCH   6   7
ATOM      7  C   UNL     1       3.953   6.243  18.329  0.00  0.00    +0.000 A 
ATOM      8  C   UNL     1       3.880   7.109  17.230  0.00  0.00    +0.000 A 
ATOM      9  C   UNL     1       3.047   8.228  17.266  0.00  0.00    +0.000 A 
ATOM     10  C   UNL     1       2.303   8.504  18.412  0.00  0.00    +0.000 A 
ATOM     11  C   UNL     1       2.328   7.642  19.514  0.00  0.00    +0.000 A 
ATOM     12  C   UNL     1       3.128   6.500  19.446  0.00  0.00    +0.000 A 
BRANCH  10  13
ATOM     13  O   UNL     1       1.550   9.646  18.474  0.00  0.00    +0.000 OA
ATOM     14  H   UNL     1       1.972  10.330  17.933  0.00  0.00    +0.000 HD
ENDBRANCH  10  13
BRANCH  11  15
ATOM     15  O   UNL     1       1.584   8.013  20.602  0.00  0.00    +0.000 OA
ATOM     16  C   UNL     1       0.886   6.996  21.306  0.00  0.00    +0.000 C 
ENDBRANCH  11  15
ENDBRANCH   6   7
BRANCH   4  17
ATOM     17  O   UNL     1       5.744   2.637  15.818  0.00  0.00    +0.000 OA
ATOM     18  H   UNL     1       6.555   2.143  16.052  0.00  0.00    +0.000 HD
ENDBRANCH   4  17
BRANCH   5  19
ATOM     19  C   UNL     1       3.518   3.005  17.810  0.00  0.00    +0.000 C 
ATOM     20  O   UNL     1       3.131   2.314  16.870  0.00  0.00    +0.000 OA
BRANCH  19  21
ATOM     21  C   UNL     1       2.711   2.992  19.063  0.00  0.00    +0.000 A 
ATOM     22  C   UNL     1       3.372   2.642  20.252  0.00  0.00    +0.000 A 
ATOM     23  C   UNL     1       2.690   2.618  21.470  0.00  0.00    +0.000 A 
ATOM     24  C   UNL     1       1.335   2.935  21.512  0.00  0.00    +0.000 A 
ATOM     25  C   UNL     1       0.673   3.310  20.344  0.00  0.00    +0.000 A 
ATOM     26  C   UNL     1       1.365   3.367  19.130  0.00  0.00    +0.000 A 
ENDBRANCH  19  21
ENDBRANCH   5  19
BRANCH   1  27
ATOM     27  C   UNL     1       7.037   6.699  18.284  0.00  0.00    +0.000 C 
BRANCH  27  28
ATOM     28  C   UNL     1       7.403   7.668  17.160  0.00  0.00    +0.000 C 
BRANCH  28  29
ATOM     29  C   UNL     1       7.816   9.052  17.664  0.00  0.00    +0.000 C 
BRANCH  29  30
ATOM     30  C   UNL     1       8.794   8.930  18.835  0.00  0.00    +0.000 C 
BRANCH  30  32
ATOM     31  C   UNL     1       9.700  11.159  18.106  0.00  0.00    +0.000 C 
ATOM     32  C   UNL     1       9.294  10.298  19.291  0.00  0.00    +0.000 C 
ENDBRANCH  30  32
ENDBRANCH  29  30
ENDBRANCH  28  29
ENDBRANCH  27  28
ENDBRANCH   1  27
TORSDOF 11
ENDMDL
MODEL 3
REMARK VINA RESULT:      -7.2      0.748      1.563
REMARK  Name = 
REMARK  13 active torsions:
REMARK  status: ('A' for Active; 'I' for Inactive)
REMARK    1  A    between atoms: C_1  and  C_2
REMARK    2  A    between atoms: C_2  and  C_3
REMARK    3  A    between atoms: C_3  and  C_4
REMARK    4  A    between atoms: C_4  and  C_5
REMARK    5  A    between atoms: C_5  and  C_6
REMARK    6  A    between atoms: C_6  and  N_7
REMARK    7  A    between atoms: C_10  and  O_11
REMARK    8  A    between atoms: C_12  and  C_13
REMARK    9  A    between atoms: C_13  and  C_15
REMARK   10  A    between atoms: C_21  and  C_22
REMARK   11  A    between atoms: C_25  and  O_26
REMARK   12  A    between atoms: C_27  and  O_28
REMARK   13  A    between atoms: O_28  and  C_29
REMARK                            x       y       z     vdW  Elec       q    Type
REMARK                         _______ _______ _______ _____ _____    ______ ____
ROOT
ATOM      1  N   UNL     1       5.547   6.298  17.229  0.00  0.00    +0.000 N 
ATOM      2  C   UNL     1       5.541   5.742  15.973  0.00  0.00    +0.000 C 
ATOM      3  O   UNL     1       6.203   6.031  14.992  0.00  0.00    +0.000 OA
ATOM      4  C   UNL     1       4.555   4.643  15.990  0.00  0.00    +0.000 C 
ATOM      5  C   UNL     1       4.028   4.585  17.222  0.00  0.00    +0.000 C 
ATOM      6  C   UNL     1       4.572   5.666  18.111  0.00  0.00    +0.000 C 
ENDROOT
BRANCH   6   7
ATOM      7  C   UNL     1       3.584   6.682  18.653  0.00  0.00    +0.000 A 
ATOM      8  C   UNL     1       2.859   6.470  19.834  0.00  0.00    +0.000 A 
ATOM      9  C   UNL     1       1.825   7.335  20.193  0.00  0.00    +0.000 A 
ATOM     10  C   UNL     1       1.491   8.402  19.360  0.00  0.00    +0.000 A 
ATOM     11  C   UNL     1       2.215   8.660  18.192  0.00  0.00    +0.000 A 
ATOM     12  C   UNL     1       3.279   7.815  17.869  0.00  0.00    +0.000 A 
BRANCH  10  13
ATOM     13  O   UNL     1       0.424   9.200  19.675  0.00  0.00    +0.000 OA
ATOM     14  H   UNL     1       0.753  10.063  19.970  0.00  0.00    +0.000 HD
ENDBRANCH  10  13
BRANCH  11  15
ATOM     15  O   UNL     1       1.793   9.715  17.427  0.00  0.00    +0.000 OA
ATOM     16  C   UNL     1       2.226  11.016  17.795  0.00  0.00    +0.000 C 
ENDBRANCH  11  15
ENDBRANCH   6   7
BRANCH   4  17
ATOM     17  O   UNL     1       4.304   3.880  14.892  0.00  0.00    +0.000 OA
ATOM     18  H   UNL     1       4.309   2.954  15.205  0.00  0.00    +0.000 HD
ENDBRANCH   4  17
BRANCH   5  19
ATOM     19  C   UNL     1       2.962   3.618  17.573  0.00  0.00    +0.000 C 
ATOM     20  O   UNL     1       2.288   3.087  16.693  0.00  0.00    +0.000 OA
BRANCH  19  21
ATOM     21  C   UNL     1       2.625   3.309  18.992  0.00  0.00    +0.000 A 
ATOM     22  C   UNL     1       1.290   3.491  19.390  0.00  0.00    +0.000 A 
ATOM     23  C   UNL     1       0.889   3.213  20.698  0.00  0.00    +0.000 A 
ATOM     24  C   UNL     1       1.822   2.759  21.627  0.00  0.00    +0.000 A 
ATOM     25  C   UNL     1       3.143   2.549  21.238  0.00  0.00    +0.000 A 
ATOM     26  C   UNL     1       3.537   2.795  19.918  0.00  0.00    +0.000 A 
ENDBRANCH  19  21
ENDBRANCH   5  19
BRANCH   1  27
ATOM     27  C   UNL     1       6.444   7.377  17.622  0.00  0.00    +0.000 C 
BRANCH  27  28
ATOM     28  C   UNL     1       7.818   6.900  18.090  0.00  0.00    +0.000 C 
BRANCH  28  29
ATOM     29  C   UNL     1       8.599   7.966  18.860  0.00  0.00    +0.000 C 
BRANCH  29  30
ATOM     30  C   UNL     1       8.454   9.333  18.188  0.00  0.00    +0.000 C 
BRANCH  30  32
ATOM     31  C   UNL     1       9.955  11.337  17.962  0.00  0.00    +0.000 C 
ATOM     32  C   UNL     1       9.242  10.408  18.931  0.00  0.00    +0.000 C 
ENDBRANCH  30  32
ENDBRANCH  29  30
ENDBRANCH  28  29
ENDBRANCH  27  28
ENDBRANCH   1  27
TORSDOF 11
ENDMDL
MODEL 4
REMARK VINA RESULT:      -7.0      3.057      7.046
REMARK  Name = 
REMARK  13 active torsions:
REMARK  status: ('A' for Active; 'I' for Inactive)
REMARK    1  A    between atoms: C_1  and  C_2
REMARK    2  A    between atoms: C_2  and  C_3
REMARK    3  A    between atoms: C_3  and  C_4
REMARK    4  A    between atoms: C_4  and  C_5
REMARK    5  A    between atoms: C_5  and  C_6
REMARK    6  A    between atoms: C_6  and  N_7
REMARK    7  A    between atoms: C_10  and  O_11
REMARK    8  A    between atoms: C_12  and  C_13
REMARK    9  A    between atoms: C_13  and  C_15
REMARK   10  A    between atoms: C_21  and  C_22
REMARK   11  A    between atoms: C_25  and  O_26
REMARK   12  A    between atoms: C_27  and  O_28
REMARK   13  A    between atoms: O_28  and  C_29
REMARK                            x       y       z     vdW  Elec       q    Type
REMARK                         _______ _______ _______ _____ _____    ______ ____
ROOT
ATOM      1  N   UNL     1       4.158   6.370  18.158  0.00  0.00    +0.000 N 
ATOM      2  C   UNL     1       3.978   7.117  17.020  0.00  0.00    +0.000 C 
ATOM      3  O   UNL     1       3.168   7.997  16.787  0.00  0.00    +0.000 OA
ATOM      4  C   UNL     1       5.002   6.682  16.048  0.00  0.00    +0.000 C 
ATOM      5  C   UNL     1       5.734   5.721  16.630  0.00  0.00    +0.000 C 
ATOM      6  C   UNL     1       5.233   5.396  18.008  0.00  0.00    +0.000 C 
ENDROOT
BRANCH   6   7
ATOM      7  C   UNL     1       4.732   3.985  18.250  0.00  0.00    +0.000 A 
ATOM      8  C   UNL     1       3.887   3.323  17.349  0.00  0.00    +0.000 A 
ATOM      9  C   UNL     1       3.296   2.107  17.698  0.00  0.00    +0.000 A 
ATOM     10  C   UNL     1       3.524   1.561  18.960  0.00  0.00    +0.000 A 
ATOM     11  C   UNL     1       4.387   2.180  19.870  0.00  0.00    +0.000 A 
ATOM     12  C   UNL     1       5.011   3.371  19.490  0.00  0.00    +0.000 A 
BRANCH  10  13
ATOM     13  O   UNL     1       2.878   0.411  19.329  0.00  0.00    +0.000 OA
ATOM     14  H   UNL     1       3.317   0.041  20.110  0.00  0.00    +0.000 HD
ENDBRANCH  10  13
BRANCH  11  15
ATOM     15  O   UNL     1       4.525   1.580  21.094  0.00  0.00    +0.000 OA
ATOM     16  C   UNL     1       5.638   0.721  21.289  0.00  0.00    +0.000 C 
ENDBRANCH  11  15
ENDBRANCH   6   7
BRANCH   4  17
ATOM     17  O   UNL     1       5.099   7.230  14.807  0.00  0.00    +0.000 OA
ATOM     18  H   UNL     1       5.611   6.590  14.274  0.00  0.00    +0.000 HD
ENDBRANCH   4  17
BRANCH   5  19
ATOM     19  C   UNL     1       6.826   5.025  15.910  0.00  0.00    +0.000 C 
ATOM     20  O   UNL     1       7.908   4.828  16.459  0.00  0.00    +0.000 OA
BRANCH  19  21
ATOM     21  C   UNL     1       6.681   4.608  14.486  0.00  0.00    +0.000 A 
ATOM     22  C   UNL     1       7.621   5.106  13.570  0.00  0.00    +0.000 A 
ATOM     23  C   UNL     1       7.562   4.753  12.220  0.00  0.00    +0.000 A 
ATOM     24  C   UNL     1       6.554   3.904  11.770  0.00  0.00    +0.000 A 
ATOM     25  C   UNL     1       5.631   3.381  12.673  0.00  0.00    +0.000 A 
ATOM     26  C   UNL     1       5.712   3.708  14.031  0.00  0.00    +0.000 A 
ENDBRANCH  19  21
ENDBRANCH   5  19
BRANCH   1  27
ATOM     27  C   UNL     1       3.372   6.557  19.370  0.00  0.00    +0.000 C 
BRANCH  27  28
ATOM     28  C   UNL     1       1.974   5.943  19.304  0.00  0.00    +0.000 C 
BRANCH  28  29
ATOM     29  C   UNL     1       1.635   5.078  20.518  0.00  0.00    +0.000 C 
BRANCH  29  30
ATOM     30  C   UNL     1       0.816   3.855  20.099  0.00  0.00    +0.000 C 
BRANCH  30  32
ATOM     31  C   UNL     1       1.987   3.036  22.168  0.00  0.00    +0.000 C 
ATOM     32  C   UNL     1       0.924   2.731  21.125  0.00  0.00    +0.000 C 
ENDBRANCH  30  32
ENDBRANCH  29  30
ENDBRANCH  28  29
ENDBRANCH  27  28
ENDBRANCH   1  27
TORSDOF 11
ENDMDL
MODEL 5
REMARK VINA RESULT:      -7.0      0.945      1.868
REMARK  Name = 
REMARK  13 active torsions:
REMARK  status: ('A' for Active; 'I' for Inactive)
REMARK    1  A    between atoms: C_1  and  C_2
REMARK    2  A    between atoms: C_2  and  C_3
REMARK    3  A    between atoms: C_3  and  C_4
REMARK    4  A    between atoms: C_4  and  C_5
REMARK    5  A    between atoms: C_5  and  C_6
REMARK    6  A    between atoms: C_6  and  N_7
REMARK    7  A    between atoms: C_10  and  O_11
REMARK    8  A    between atoms: C_12  and  C_13
REMARK    9  A    between atoms: C_13  and  C_15
REMARK   10  A    between atoms: C_21  and  C_22
REMARK   11  A    between atoms: C_25  and  O_26
REMARK   12  A    between atoms: C_27  and  O_28
REMARK   13  A    between atoms: O_28  and  C_29
REMARK                            x       y       z     vdW  Elec       q    Type
REMARK                         _______ _______ _______ _____ _____    ______ ____
ROOT
ATOM      1  N   UNL     1       6.090   5.806  17.629  0.00  0.00    +0.000 N 
ATOM      2  C   UNL     1       6.259   5.371  16.337  0.00  0.00    +0.000 C 
ATOM      3  O   UNL     1       7.121   5.660  15.526  0.00  0.00    +0.000 OA
ATOM      4  C   UNL     1       5.173   4.411  16.057  0.00  0.00    +0.000 C 
ATOM      5  C   UNL     1       4.421   4.311  17.163  0.00  0.00    +0.000 C 
ATOM      6  C   UNL     1       4.904   5.228  18.250  0.00  0.00    +0.000 C 
ENDROOT
BRANCH   6   7
ATOM      7  C   UNL     1       3.950   6.309  18.720  0.00  0.00    +0.000 A 
ATOM      8  C   UNL     1       3.224   6.203  19.915  0.00  0.00    +0.000 A 
ATOM      9  C   UNL     1       2.218   7.123  20.214  0.00  0.00    +0.000 A 
ATOM     10  C   UNL     1       1.913   8.138  19.308  0.00  0.00    +0.000 A 
ATOM     11  C   UNL     1       2.639   8.291  18.122  0.00  0.00    +0.000 A 
ATOM     12  C   UNL     1       3.675   7.393  17.858  0.00  0.00    +0.000 A 
BRANCH  10  13
ATOM     13  O   UNL     1       0.871   8.989  19.568  0.00  0.00    +0.000 OA
ATOM     14  H   UNL     1       0.939   9.756  18.980  0.00  0.00    +0.000 HD
ENDBRANCH  10  13
BRANCH  11  15
ATOM     15  O   UNL     1       2.246   9.301  17.286  0.00  0.00    +0.000 OA
ATOM     16  C   UNL     1       2.355  10.635  17.760  0.00  0.00    +0.000 C 
ENDBRANCH  11  15
ENDBRANCH   6   7
BRANCH   4  17
ATOM     17  O   UNL     1       5.050   3.789  14.854  0.00  0.00    +0.000 OA
ATOM     18  H   UNL     1       5.949   3.480  14.621  0.00  0.00    +0.000 HD
ENDBRANCH   4  17
BRANCH   5  19
ATOM     19  C   UNL     1       3.208   3.461  17.211  0.00  0.00    +0.000 C 
ATOM     20  O   UNL     1       2.726   3.003  16.176  0.00  0.00    +0.000 OA
BRANCH  19  21
ATOM     21  C   UNL     1       2.495   3.190  18.491  0.00  0.00    +0.000 A 
ATOM     22  C   UNL     1       3.240   2.613  19.533  0.00  0.00    +0.000 A 
ATOM     23  C   UNL     1       2.650   2.339  20.769  0.00  0.00    +0.000 A 
ATOM     24  C   UNL     1       1.303   2.630  20.972  0.00  0.00    +0.000 A 
ATOM     25  C   UNL     1       0.560   3.226  19.956  0.00  0.00    +0.000 A 
ATOM     26  C   UNL     1       1.160   3.532  18.730  0.00  0.00    +0.000 A 
ENDBRANCH  19  21
ENDBRANCH   5  19
BRANCH   1  27
ATOM     27  C   UNL     1       7.011   6.720  18.291  0.00  0.00    +0.000 C 
BRANCH  27  28
ATOM     28  C   UNL     1       7.723   7.681  17.339  0.00  0.00    +0.000 C 
BRANCH  28  29
ATOM     29  C   UNL     1       7.704   9.133  17.818  0.00  0.00    +0.000 C 
BRANCH  29  30
ATOM     30  C   UNL     1       8.886   9.410  18.749  0.00  0.00    +0.000 C 
BRANCH  30  32
ATOM     31  C   UNL     1       9.788  11.405  19.985  0.00  0.00    +0.000 C 
ATOM     32  C   UNL     1       9.362  10.856  18.634  0.00  0.00    +0.000 C 
ENDBRANCH  30  32
ENDBRANCH  29  30
ENDBRANCH  28  29
ENDBRANCH  27  28
ENDBRANCH   1  27
TORSDOF 11
ENDMDL
MODEL 6
REMARK VINA RESULT:      -6.8      1.221      1.688
REMARK  Name = 
REMARK  13 active torsions:
REMARK  status: ('A' for Active; 'I' for Inactive)
REMARK    1  A    between atoms: C_1  and  C_2
REMARK    2  A    between atoms: C_2  and  C_3
REMARK    3  A    between atoms: C_3  and  C_4
REMARK    4  A    between atoms: C_4  and  C_5
REMARK    5  A    between atoms: C_5  and  C_6
REMARK    6  A    between atoms: C_6  and  N_7
REMARK    7  A    between atoms: C_10  and  O_11
REMARK    8  A    between atoms: C_12  and  C_13
REMARK    9  A    between atoms: C_13  and  C_15
REMARK   10  A    between atoms: C_21  and  C_22
REMARK   11  A    between atoms: C_25  and  O_26
REMARK   12  A    between atoms: C_27  and  O_28
REMARK   13  A    between atoms: O_28  and  C_29
REMARK                            x       y       z     vdW  Elec       q    Type
REMARK                         _______ _______ _______ _____ _____    ______ ____
ROOT
ATOM      1  N   UNL     1       6.183   6.557  17.381  0.00  0.00    +0.000 N 
ATOM      2  C   UNL     1       6.558   5.604  16.465  0.00  0.00    +0.000 C 
ATOM      3  O   UNL     1       7.242   5.715  15.464  0.00  0.00    +0.000 OA
ATOM      4  C   UNL     1       5.983   4.320  16.916  0.00  0.00    +0.000 C 
ATOM      5  C   UNL     1       5.311   4.550  18.053  0.00  0.00    +0.000 C 
ATOM      6  C   UNL     1       5.332   6.004  18.428  0.00  0.00    +0.000 C 
ENDROOT
BRANCH   6   7
ATOM      7  C   UNL     1       3.999   6.725  18.487  0.00  0.00    +0.000 A 
ATOM      8  C   UNL     1       3.555   7.571  17.462  0.00  0.00    +0.000 A 
ATOM      9  C   UNL     1       2.419   8.362  17.640  0.00  0.00    +0.000 A 
ATOM     10  C   UNL     1       1.736   8.334  18.855  0.00  0.00    +0.000 A 
ATOM     11  C   UNL     1       2.134   7.477  19.887  0.00  0.00    +0.000 A 
ATOM     12  C   UNL     1       3.243   6.655  19.678  0.00  0.00    +0.000 A 
BRANCH  10  13
ATOM     13  O   UNL     1       0.671   9.171  19.054  0.00  0.00    +0.000 OA
ATOM     14  H   UNL     1       0.860   9.743  19.813  0.00  0.00    +0.000 HD
ENDBRANCH  10  13
BRANCH  11  15
ATOM     15  O   UNL     1       1.415   7.542  21.051  0.00  0.00    +0.000 OA
ATOM     16  C   UNL     1       1.548   8.710  21.848  0.00  0.00    +0.000 C 
ENDBRANCH  11  15
ENDBRANCH   6   7
BRANCH   4  17
ATOM     17  O   UNL     1       6.169   3.164  16.225  0.00  0.00    +0.000 OA
ATOM     18  H   UNL     1       6.144   3.412  15.279  0.00  0.00    +0.000 HD
ENDBRANCH   4  17
BRANCH   5  19
ATOM     19  C   UNL     1       4.566   3.477  18.753  0.00  0.00    +0.000 C 
ATOM     20  O   UNL     1       5.169   2.581  19.340  0.00  0.00    +0.000 OA
BRANCH  19  21
ATOM     21  C   UNL     1       3.078   3.405  18.712  0.00  0.00    +0.000 A 
ATOM     22  C   UNL     1       2.422   2.974  19.877  0.00  0.00    +0.000 A 
ATOM     23  C   UNL     1       1.029   2.891  19.925  0.00  0.00    +0.000 A 
ATOM     24  C   UNL     1       0.276   3.228  18.803  0.00  0.00    +0.000 A 
ATOM     25  C   UNL     1       0.912   3.683  17.650  0.00  0.00    +0.000 A 
ATOM     26  C   UNL     1       2.306   3.799  17.614  0.00  0.00    +0.000 A 
ENDBRANCH  19  21
ENDBRANCH   5  19
BRANCH   1  27
ATOM     27  C   UNL     1       6.615   7.946  17.311  0.00  0.00    +0.000 C 
BRANCH  27  28
ATOM     28  C   UNL     1       8.005   8.194  17.898  0.00  0.00    +0.000 C 
BRANCH  28  29
ATOM     29  C   UNL     1       8.400   9.671  17.914  0.00  0.00    +0.000 C 
BRANCH  29  30
ATOM     30  C   UNL     1       9.254   9.989  19.144  0.00  0.00    +0.000 C 
BRANCH  30  32
ATOM     31  C   UNL     1       9.186  12.248  18.044  0.00  0.00    +0.000 C 
ATOM     32  C   UNL     1       9.410  11.493  19.343  0.00  0.00    +0.000 C 
ENDBRANCH  30  32
ENDBRANCH  29  30
ENDBRANCH  28  29
ENDBRANCH  27  28
ENDBRANCH   1  27
TORSDOF 11
ENDMDL
MODEL 7
REMARK VINA RESULT:      -6.8      1.544      5.789
REMARK  Name = 
REMARK  13 active torsions:
REMARK  status: ('A' for Active; 'I' for Inactive)
REMARK    1  A    between atoms: C_1  and  C_2
REMARK    2  A    between atoms: C_2  and  C_3
REMARK    3  A    between atoms: C_3  and  C_4
REMARK    4  A    between atoms: C_4  and  C_5
REMARK    5  A    between atoms: C_5  and  C_6
REMARK    6  A    between atoms: C_6  and  N_7
REMARK    7  A    between atoms: C_10  and  O_11
REMARK    8  A    between atoms: C_12  and  C_13
REMARK    9  A    between atoms: C_13  and  C_15
REMARK   10  A    between atoms: C_21  and  C_22
REMARK   11  A    between atoms: C_25  and  O_26
REMARK   12  A    between atoms: C_27  and  O_28
REMARK   13  A    between atoms: O_28  and  C_29
REMARK                            x       y       z     vdW  Elec       q    Type
REMARK                         _______ _______ _______ _____ _____    ______ ____
ROOT
ATOM      1  N   UNL     1       2.450   4.046  17.512  0.00  0.00    +0.000 N 
ATOM      2  C   UNL     1       3.472   3.138  17.377  0.00  0.00    +0.000 C 
ATOM      3  O   UNL     1       3.475   1.936  17.574  0.00  0.00    +0.000 OA
ATOM      4  C   UNL     1       4.654   3.884  16.901  0.00  0.00    +0.000 C 
ATOM      5  C   UNL     1       4.300   5.171  16.771  0.00  0.00    +0.000 C 
ATOM      6  C   UNL     1       2.879   5.403  17.197  0.00  0.00    +0.000 C 
ENDROOT
BRANCH   6   7
ATOM      7  C   UNL     1       2.649   6.337  18.370  0.00  0.00    +0.000 A 
ATOM      8  C   UNL     1       2.770   5.915  19.701  0.00  0.00    +0.000 A 
ATOM      9  C   UNL     1       2.364   6.747  20.746  0.00  0.00    +0.000 A 
ATOM     10  C   UNL     1       1.809   7.995  20.464  0.00  0.00    +0.000 A 
ATOM     11  C   UNL     1       1.703   8.458  19.149  0.00  0.00    +0.000 A 
ATOM     12  C   UNL     1       2.158   7.636  18.116  0.00  0.00    +0.000 A 
BRANCH  10  13
ATOM     13  O   UNL     1       1.337   8.773  21.487  0.00  0.00    +0.000 OA
ATOM     14  H   UNL     1       2.076   9.269  21.871  0.00  0.00    +0.000 HD
ENDBRANCH  10  13
BRANCH  11  15
ATOM     15  O   UNL     1       1.119   9.684  18.974  0.00  0.00    +0.000 OA
ATOM     16  C   UNL     1       1.863  10.682  18.291  0.00  0.00    +0.000 C 
ENDBRANCH  11  15
ENDBRANCH   6   7
BRANCH   4  17
ATOM     17  O   UNL     1       5.846   3.274  16.664  0.00  0.00    +0.000 OA
ATOM     18  H   UNL     1       6.408   3.947  16.231  0.00  0.00    +0.000 HD
ENDBRANCH   4  17
BRANCH   5  19
ATOM     19  C   UNL     1       5.270   6.211  16.355  0.00  0.00    +0.000 C 
ATOM     20  O   UNL     1       5.217   6.697  15.227  0.00  0.00    +0.000 OA
BRANCH  19  21
ATOM     21  C   UNL     1       6.376   6.650  17.253  0.00  0.00    +0.000 A 
ATOM     22  C   UNL     1       6.779   5.760  18.261  0.00  0.00    +0.000 A 
ATOM     23  C   UNL     1       7.817   6.090  19.135  0.00  0.00    +0.000 A 
ATOM     24  C   UNL     1       8.456   7.321  19.017  0.00  0.00    +0.000 A 
ATOM     25  C   UNL     1       8.084   8.203  18.005  0.00  0.00    +0.000 A 
ATOM     26  C   UNL     1       7.068   7.857  17.107  0.00  0.00    +0.000 A 
ENDBRANCH  19  21
ENDBRANCH   5  19
BRANCH   1  27
ATOM     27  C   UNL     1       1.096   3.673  17.903  0.00  0.00    +0.000 C 
BRANCH  27  28
ATOM     28  C   UNL     1       1.036   2.721  19.097  0.00  0.00    +0.000 C 
BRANCH  28  29
ATOM     29  C   UNL     1       0.678   3.418  20.410  0.00  0.00    +0.000 C 
BRANCH  29  30
ATOM     30  C   UNL     1       1.723   3.114  21.486  0.00  0.00    +0.000 C 
BRANCH  30  32
ATOM     31  C   UNL     1       4.097   2.620  20.821  0.00  0.00    +0.000 C 
ATOM     32  C   UNL     1       2.706   2.042  21.024  0.00  0.00    +0.000 C 
ENDBRANCH  30  32
ENDBRANCH  29  30
ENDBRANCH  28  29
ENDBRANCH  27  28
ENDBRANCH   1  27
TORSDOF 11
ENDMDL
MODEL 8
REMARK VINA RESULT:      -6.8      6.706      9.811
REMARK  Name = 
REMARK  13 active torsions:
REMARK  status: ('A' for Active; 'I' for Inactive)
REMARK    1  A    between atoms: C_1  and  C_2
REMARK    2  A    between atoms: C_2  and  C_3
REMARK    3  A    between atoms: C_3  and  C_4
REMARK    4  A    between atoms: C_4  and  C_5
REMARK    5  A    between atoms: C_5  and  C_6
REMARK    6  A    between atoms: C_6  and  N_7
REMARK    7  A    between atoms: C_10  and  O_11
REMARK    8  A    between atoms: C_12  and  C_13
REMARK    9  A    between atoms: C_13  and  C_15
REMARK   10  A    between atoms: C_21  and  C_22
REMARK   11  A    between atoms: C_25  and  O_26
REMARK   12  A    between atoms: C_27  and  O_28
REMARK   13  A    between atoms: O_28  and  C_29
REMARK                            x       y       z     vdW  Elec       q    Type
REMARK                         _______ _______ _______ _____ _____    ______ ____
ROOT
ATOM      1  N   UNL     1      -0.909  11.955  22.136  0.00  0.00    +0.000 N 
ATOM      2  C   UNL     1      -0.434  10.707  22.458  0.00  0.00    +0.000 C 
ATOM      3  O   UNL     1      -0.161  10.236  23.547  0.00  0.00    +0.000 OA
ATOM      4  C   UNL     1      -0.311   9.951  21.195  0.00  0.00    +0.000 C 
ATOM      5  C   UNL     1      -0.710  10.754  20.198  0.00  0.00    +0.000 C 
ATOM      6  C   UNL     1      -1.079  12.122  20.698  0.00  0.00    +0.000 C 
ENDROOT
BRANCH   6   7
ATOM      7  C   UNL     1      -0.265  13.292  20.181  0.00  0.00    +0.000 A 
ATOM      8  C   UNL     1      -0.839  14.348  19.460  0.00  0.00    +0.000 A 
ATOM      9  C   UNL     1      -0.031  15.302  18.840  0.00  0.00    +0.000 A 
ATOM     10  C   UNL     1       1.357  15.190  18.912  0.00  0.00    +0.000 A 
ATOM     11  C   UNL     1       1.961  14.167  19.650  0.00  0.00    +0.000 A 
ATOM     12  C   UNL     1       1.141  13.247  20.307  0.00  0.00    +0.000 A 
BRANCH  10  13
ATOM     13  O   UNL     1       2.146  16.081  18.234  0.00  0.00    +0.000 OA
ATOM     14  H   UNL     1       2.440  15.672  17.406  0.00  0.00    +0.000 HD
ENDBRANCH  10  13
BRANCH  11  15
ATOM     15  O   UNL     1       3.330  14.126  19.638  0.00  0.00    +0.000 OA
ATOM     16  C   UNL     1       4.015  14.500  20.825  0.00  0.00    +0.000 C 
ENDBRANCH  11  15
ENDBRANCH   6   7
BRANCH   4  17
ATOM     17  O   UNL     1       0.136   8.667  21.162  0.00  0.00    +0.000 OA
ATOM     18  H   UNL     1      -0.216   8.242  21.970  0.00  0.00    +0.000 HD
ENDBRANCH   4  17
BRANCH   5  19
ATOM     19  C   UNL     1      -0.669  10.322  18.781  0.00  0.00    +0.000 C 
ATOM     20  O   UNL     1       0.354   9.829  18.309  0.00  0.00    +0.000 OA
BRANCH  19  21
ATOM     21  C   UNL     1      -1.827  10.533  17.867  0.00  0.00    +0.000 A 
ATOM     22  C   UNL     1      -1.861   9.773  16.686  0.00  0.00    +0.000 A 
ATOM     23  C   UNL     1      -2.918   9.901  15.782  0.00  0.00    +0.000 A 
ATOM     24  C   UNL     1      -3.949  10.800  16.045  0.00  0.00    +0.000 A 
ATOM     25  C   UNL     1      -3.941  11.540  17.226  0.00  0.00    +0.000 A 
ATOM     26  C   UNL     1      -2.900  11.385  18.147  0.00  0.00    +0.000 A 
ENDBRANCH  19  21
ENDBRANCH   5  19
BRANCH   1  27
ATOM     27  C   UNL     1      -1.221  12.972  23.131  0.00  0.00    +0.000 C 
BRANCH  27  28
ATOM     28  C   UNL     1      -2.700  13.030  23.515  0.00  0.00    +0.000 C 
BRANCH  28  29
ATOM     29  C   UNL     1      -3.573  13.708  22.458  0.00  0.00    +0.000 C 
BRANCH  29  30
ATOM     30  C   UNL     1      -4.567  12.711  21.858  0.00  0.00    +0.000 C 
BRANCH  30  32
ATOM     31  C   UNL     1      -6.246  12.305  20.032  0.00  0.00    +0.000 C 
ATOM     32  C   UNL     1      -5.154  13.227  20.547  0.00  0.00    +0.000 C 
ENDBRANCH  30  32
ENDBRANCH  29  30
ENDBRANCH  28  29
ENDBRANCH  27  28
ENDBRANCH   1  27
TORSDOF 11
ENDMDL
MODEL 9
REMARK VINA RESULT:      -6.8      1.259      1.631
REMARK  Name = 
REMARK  13 active torsions:
REMARK  status: ('A' for Active; 'I' for Inactive)
REMARK    1  A    between atoms: C_1  and  C_2
REMARK    2  A    between atoms: C_2  and  C_3
REMARK    3  A    between atoms: C_3  and  C_4
REMARK    4  A    between atoms: C_4  and  C_5
REMARK    5  A    between atoms: C_5  and  C_6
REMARK    6  A    between atoms: C_6  and  N_7
REMARK    7  A    between atoms: C_10  and  O_11
REMARK    8  A    between atoms: C_12  and  C_13
REMARK    9  A    between atoms: C_13  and  C_15
REMARK   10  A    between atoms: C_21  and  C_22
REMARK   11  A    between atoms: C_25  and  O_26
REMARK   12  A    between atoms: C_27  and  O_28
REMARK   13  A    between atoms: O_28  and  C_29
REMARK                            x       y       z     vdW  Elec       q    Type
REMARK                         _______ _______ _______ _____ _____    ______ ____
ROOT
ATOM      1  N   UNL     1       6.232   6.611  17.376  0.00  0.00    +0.000 N 
ATOM      2  C   UNL     1       6.622   5.649  16.477  0.00  0.00    +0.000 C 
ATOM      3  O   UNL     1       7.309   5.752  15.477  0.00  0.00    +0.000 OA
ATOM      4  C   UNL     1       6.062   4.365  16.946  0.00  0.00    +0.000 C 
ATOM      5  C   UNL     1       5.382   4.605  18.077  0.00  0.00    +0.000 C 
ATOM      6  C   UNL     1       5.383   6.065  18.428  0.00  0.00    +0.000 C 
ENDROOT
BRANCH   6   7
ATOM      7  C   UNL     1       4.041   6.770  18.471  0.00  0.00    +0.000 A 
ATOM      8  C   UNL     1       3.603   7.616  17.443  0.00  0.00    +0.000 A 
ATOM      9  C   UNL     1       2.456   8.393  17.608  0.00  0.00    +0.000 A 
ATOM     10  C   UNL     1       1.754   8.349  18.812  0.00  0.00    +0.000 A 
ATOM     11  C   UNL     1       2.145   7.492  19.845  0.00  0.00    +0.000 A 
ATOM     12  C   UNL     1       3.267   6.684  19.649  0.00  0.00    +0.000 A 
BRANCH  10  13
ATOM     13  O   UNL     1       0.676   9.173  18.999  0.00  0.00    +0.000 OA
ATOM     14  H   UNL     1       0.660   9.463  19.924  0.00  0.00    +0.000 HD
ENDBRANCH  10  13
BRANCH  11  15
ATOM     15  O   UNL     1       1.408   7.541  20.998  0.00  0.00    +0.000 OA
ATOM     16  C   UNL     1       1.548   8.686  21.826  0.00  0.00    +0.000 C 
ENDBRANCH  11  15
ENDBRANCH   6   7
BRANCH   4  17
ATOM     17  O   UNL     1       6.265   3.200  16.274  0.00  0.00    +0.000 OA
ATOM     18  H   UNL     1       5.979   2.489  16.883  0.00  0.00    +0.000 HD
ENDBRANCH   4  17
BRANCH   5  19
ATOM     19  C   UNL     1       4.648   3.534  18.791  0.00  0.00    +0.000 C 
ATOM     20  O   UNL     1       5.260   2.638  19.370  0.00  0.00    +0.000 OA
BRANCH  19  21
ATOM     21  C   UNL     1       3.159   3.463  18.774  0.00  0.00    +0.000 A 
ATOM     22  C   UNL     1       2.508   3.886  17.603  0.00  0.00    +0.000 A 
ATOM     23  C   UNL     1       1.116   3.840  17.502  0.00  0.00    +0.000 A 
ATOM     24  C   UNL     1       0.358   3.379  18.576  0.00  0.00    +0.000 A 
ATOM     25  C   UNL     1       0.993   2.932  19.733  0.00  0.00    +0.000 A 
ATOM     26  C   UNL     1       2.389   2.945  19.820  0.00  0.00    +0.000 A 
ENDBRANCH  19  21
ENDBRANCH   5  19
BRANCH   1  27
ATOM     27  C   UNL     1       6.647   8.005  17.285  0.00  0.00    +0.000 C 
BRANCH  27  28
ATOM     28  C   UNL     1       8.023   8.283  17.889  0.00  0.00    +0.000 C 
BRANCH  28  29
ATOM     29  C   UNL     1       8.337   9.774  18.019  0.00  0.00    +0.000 C 
BRANCH  29  30
ATOM     30  C   UNL     1       9.262  10.030  19.211  0.00  0.00    +0.000 C 
BRANCH  30  32
ATOM     31  C   UNL     1      10.710  11.777  20.294  0.00  0.00    +0.000 C 
ATOM     32  C   UNL     1      10.139  11.258  18.984  0.00  0.00    +0.000 C 
ENDBRANCH  30  32
ENDBRANCH  29  30
ENDBRANCH  28  29
ENDBRANCH  27  28
ENDBRANCH   1  27
TORSDOF 11
ENDMDL
