MODEL 1
REMARK VINA RESULT:      -7.6      0.000      0.000
REMARK  Name = 
REMARK  8 active torsions:
REMARK  status: ('A' for Active; 'I' for Inactive)
REMARK    1  A    between atoms: C_2  and  O_3
REMARK    2  A    between atoms: C_2  and  C_4
REMARK    3  A    between atoms: C_4  and  C_5
REMARK    4  A    between atoms: C_5  and  C_6
REMARK    5  A    between atoms: C_13  and  C_14
REMARK    6  A    between atoms: C_14  and  N_15
REMARK    7  A    between atoms: N_15  and  S_16
REMARK    8  A    between atoms: S_16  and  C_19
REMARK                            x       y       z     vdW  Elec       q    Type
REMARK                         _______ _______ _______ _____ _____    ______ ____
ROOT
ATOM      1  C   UNL     1       7.094   6.326  18.072  0.00  0.00    +0.000 A 
ATOM      2  C   UNL     1       6.711   6.310  16.714  0.00  0.00    +0.000 A 
ATOM      3  C   UNL     1       5.780   5.387  16.231  0.00  0.00    +0.000 A 
ATOM      4  C   UNL     1       5.258   4.457  17.112  0.00  0.00    +0.000 A 
ATOM      5  C   UNL     1       5.649   4.437  18.449  0.00  0.00    +0.000 A 
ATOM      6  C   UNL     1       6.558   5.364  18.947  0.00  0.00    +0.000 A 
ATOM      7  C   UNL     1       4.916   3.360  19.193  0.00  0.00    +0.000 C 
ATOM      8  C   UNL     1       4.390   2.473  18.033  0.00  0.00    +0.000 C 
ATOM      9  C   UNL     1       4.217   3.420  16.829  0.00  0.00    +0.000 C 
ENDROOT
BRANCH   1  10
ATOM     10  C   UNL     1       8.077   7.370  18.569  0.00  0.00    +0.000 C 
BRANCH  10  11
ATOM     11  C   UNL     1       8.131   8.593  17.646  0.00  0.00    +0.000 C 
BRANCH  11  13
ATOM     12  O   UNL     1       8.594  10.961  17.925  0.00  0.00    +0.000 OA
ATOM     13  C   UNL     1       8.663   9.819  18.348  0.00  0.00    +0.000 C 
BRANCH  13  14
ATOM     14  O   UNL     1       9.236   9.523  19.539  0.00  0.00    +0.000 OA
ATOM     15  H   UNL     1       9.615   8.626  19.593  0.00  0.00    +0.000 HD
ENDBRANCH  13  14
ENDBRANCH  11  13
ENDBRANCH  10  11
ENDBRANCH   1  10
BRANCH   8  16
ATOM     16  C   UNL     1       3.103   1.744  18.411  0.00  0.00    +0.000 C 
BRANCH  16  17
ATOM     17  N   UNL     1       2.693   2.065  19.789  0.00  0.00    +0.000 NA
ATOM     18  H   UNL     1       3.404   2.435  20.420  0.00  0.00    +0.000 HD
BRANCH  17  19
ATOM     19  S   UNL     1       1.250   2.936  19.967  0.00  0.00    +0.000 S 
ATOM     20  O   UNL     1       0.316   2.384  19.014  0.00  0.00    +0.000 OA
ATOM     21  O   UNL     1       0.951   3.003  21.380  0.00  0.00    +0.000 OA
BRANCH  19  22
ATOM     22  C   UNL     1       1.701   4.557  19.401  0.00  0.00    +0.000 A 
ATOM     23  C   UNL     1       2.173   5.503  20.318  0.00  0.00    +0.000 A 
ATOM     24  C   UNL     1       2.495   6.789  19.873  0.00  0.00    +0.000 A 
ATOM     25  C   UNL     1       2.358   7.112  18.521  0.00  0.00    +0.000 A 
ATOM     26 CL   UNL     1       2.719   8.705  17.983  0.00  0.00    +0.000 Cl
ATOM     27  C   UNL     1       1.917   6.157  17.604  0.00  0.00    +0.000 A 
ATOM     28  C   UNL     1       1.590   4.873  18.043  0.00  0.00    +0.000 A 
ENDBRANCH  19  22
ENDBRANCH  17  19
ENDBRANCH  16  17
ENDBRANCH   8  16
TORSDOF 8
ENDMDL
MODEL 2
REMARK VINA RESULT:      -6.9      4.955      6.295
REMARK  Name = 
REMARK  8 active torsions:
REMARK  status: ('A' for Active; 'I' for Inactive)
REMARK    1  A    between atoms: C_2  and  O_3
REMARK    2  A    between atoms: C_2  and  C_4
REMARK    3  A    between atoms: C_4  and  C_5
REMARK    4  A    between atoms: C_5  and  C_6
REMARK    5  A    between atoms: C_13  and  C_14
REMARK    6  A    between atoms: C_14  and  N_15
REMARK    7  A    between atoms: N_15  and  S_16
REMARK    8  A    between atoms: S_16  and  C_19
REMARK                            x       y       z     vdW  Elec       q    Type
REMARK                         _______ _______ _______ _____ _____    ______ ____
ROOT
ATOM      1  C   UNL     1       4.081   4.229  17.191  0.00  0.00    +0.000 A 
ATOM      2  C   UNL     1       3.346   3.259  17.906  0.00  0.00    +0.000 A 
ATOM      3  C   UNL     1       2.473   3.621  18.934  0.00  0.00    +0.000 A 
ATOM      4  C   UNL     1       2.363   4.959  19.265  0.00  0.00    +0.000 A 
ATOM      5  C   UNL     1       3.106   5.927  18.592  0.00  0.00    +0.000 A 
ATOM      6  C   UNL     1       3.962   5.583  17.552  0.00  0.00    +0.000 A 
ATOM      7  C   UNL     1       2.781   7.295  19.117  0.00  0.00    +0.000 C 
ATOM      8  C   UNL     1       2.100   6.962  20.471  0.00  0.00    +0.000 C 
ATOM      9  C   UNL     1       1.458   5.573  20.286  0.00  0.00    +0.000 C 
ENDROOT
BRANCH   1  10
ATOM     10  C   UNL     1       4.989   3.803  16.052  0.00  0.00    +0.000 C 
BRANCH  10  11
ATOM     11  C   UNL     1       5.539   5.004  15.276  0.00  0.00    +0.000 C 
BRANCH  11  13
ATOM     12  O   UNL     1       7.762   5.207  14.319  0.00  0.00    +0.000 OA
ATOM     13  C   UNL     1       6.690   4.628  14.374  0.00  0.00    +0.000 C 
BRANCH  13  14
ATOM     14  O   UNL     1       6.414   3.542  13.613  0.00  0.00    +0.000 OA
ATOM     15  H   UNL     1       5.675   3.664  12.989  0.00  0.00    +0.000 HD
ENDBRANCH  13  14
ENDBRANCH  11  13
ENDBRANCH  10  11
ENDBRANCH   1  10
BRANCH   8  16
ATOM     16  C   UNL     1       1.095   8.036  20.883  0.00  0.00    +0.000 C 
BRANCH  16  17
ATOM     17  N   UNL     1       1.083   9.152  19.921  0.00  0.00    +0.000 NA
ATOM     18  H   UNL     1       0.809   8.946  18.959  0.00  0.00    +0.000 HD
BRANCH  17  19
ATOM     19  S   UNL     1       0.348  10.589  20.437  0.00  0.00    +0.000 S 
ATOM     20  O   UNL     1      -0.240  10.310  21.727  0.00  0.00    +0.000 OA
ATOM     21  O   UNL     1       1.301  11.660  20.247  0.00  0.00    +0.000 OA
BRANCH  19  22
ATOM     22  C   UNL     1      -0.977  10.789  19.273  0.00  0.00    +0.000 A 
ATOM     23  C   UNL     1      -2.033  11.657  19.570  0.00  0.00    +0.000 A 
ATOM     24  C   UNL     1      -3.091  11.786  18.665  0.00  0.00    +0.000 A 
ATOM     25  C   UNL     1      -3.077  11.062  17.471  0.00  0.00    +0.000 A 
ATOM     26 CL   UNL     1      -4.398  11.194  16.377  0.00  0.00    +0.000 Cl
ATOM     27  C   UNL     1      -2.007  10.221  17.163  0.00  0.00    +0.000 A 
ATOM     28  C   UNL     1      -0.950  10.085  18.065  0.00  0.00    +0.000 A 
ENDBRANCH  19  22
ENDBRANCH  17  19
ENDBRANCH  16  17
ENDBRANCH   8  16
TORSDOF 8
ENDMDL
MODEL 3
REMARK VINA RESULT:      -6.9      4.921      6.267
REMARK  Name = 
REMARK  8 active torsions:
REMARK  status: ('A' for Active; 'I' for Inactive)
REMARK    1  A    between atoms: C_2  and  O_3
REMARK    2  A    between atoms: C_2  and  C_4
REMARK    3  A    between atoms: C_4  and  C_5
REMARK    4  A    between atoms: C_5  and  C_6
REMARK    5  A    between atoms: C_13  and  C_14
REMARK    6  A    between atoms: C_14  and  N_15
REMARK    7  A    between atoms: N_15  and  S_16
REMARK    8  A    between atoms: S_16  and  C_19
REMARK                            x       y       z     vdW  Elec       q    Type
REMARK                         _______ _______ _______ _____ _____    ______ ____
ROOT
ATOM      1  C   UNL     1       4.012   4.602  17.702  0.00  0.00    +0.000 A 
ATOM      2  C   UNL     1       3.472   3.691  18.634  0.00  0.00    +0.000 A 
ATOM      3  C   UNL     1       2.619   4.115  19.656  0.00  0.00    +0.000 A 
ATOM      4  C   UNL     1       2.336   5.465  19.759  0.00  0.00    +0.000 A 
ATOM      5  C   UNL     1       2.886   6.383  18.868  0.00  0.00    +0.000 A 
ATOM      6  C   UNL     1       3.719   5.972  17.832  0.00  0.00    +0.000 A 
ATOM      7  C   UNL     1       2.397   7.769  19.175  0.00  0.00    +0.000 C 
ATOM      8  C   UNL     1       1.856   7.602  20.619  0.00  0.00    +0.000 C 
ATOM      9  C   UNL     1       1.414   6.130  20.733  0.00  0.00    +0.000 C 
ENDROOT
BRANCH   1  10
ATOM     10  C   UNL     1       4.901   4.100  16.580  0.00  0.00    +0.000 C 
BRANCH  10  11
ATOM     11  C   UNL     1       5.518   5.250  15.777  0.00  0.00    +0.000 C 
BRANCH  11  13
ATOM     12  O   UNL     1       7.414   6.613  16.445  0.00  0.00    +0.000 OA
ATOM     13  C   UNL     1       6.951   5.519  16.166  0.00  0.00    +0.000 C 
BRANCH  13  14
ATOM     14  O   UNL     1       7.700   4.391  16.188  0.00  0.00    +0.000 OA
ATOM     15  H   UNL     1       8.484   4.416  15.609  0.00  0.00    +0.000 HD
ENDBRANCH  13  14
ENDBRANCH  11  13
ENDBRANCH  10  11
ENDBRANCH   1  10
BRANCH   8  16
ATOM     16  C   UNL     1       0.732   8.589  20.925  0.00  0.00    +0.000 C 
BRANCH  16  17
ATOM     17  N   UNL     1       0.947   9.873  20.233  0.00  0.00    +0.000 NA
ATOM     18  H   UNL     1       1.160   9.842  19.235  0.00  0.00    +0.000 HD
BRANCH  17  19
ATOM     19  S   UNL     1      -0.176  11.101  20.549  0.00  0.00    +0.000 S 
ATOM     20  O   UNL     1      -0.922  10.686  21.715  0.00  0.00    +0.000 OA
ATOM     21  O   UNL     1       0.531  12.362  20.504  0.00  0.00    +0.000 OA
BRANCH  19  22
ATOM     22  C   UNL     1      -1.264  11.005  19.150  0.00  0.00    +0.000 A 
ATOM     23  C   UNL     1      -2.434  11.772  19.131  0.00  0.00    +0.000 A 
ATOM     24  C   UNL     1      -3.305  11.668  18.041  0.00  0.00    +0.000 A 
ATOM     25  C   UNL     1      -2.993  10.814  16.981  0.00  0.00    +0.000 A 
ATOM     26 CL   UNL     1      -4.084  10.659  15.660  0.00  0.00    +0.000 Cl
ATOM     27  C   UNL     1      -1.810  10.074  16.989  0.00  0.00    +0.000 A 
ATOM     28  C   UNL     1      -0.939  10.171  18.076  0.00  0.00    +0.000 A 
ENDBRANCH  19  22
ENDBRANCH  17  19
ENDBRANCH  16  17
ENDBRANCH   8  16
TORSDOF 8
ENDMDL
MODEL 4
REMARK VINA RESULT:      -6.8      3.797      6.279
REMARK  Name = 
REMARK  8 active torsions:
REMARK  status: ('A' for Active; 'I' for Inactive)
REMARK    1  A    between atoms: C_2  and  O_3
REMARK    2  A    between atoms: C_2  and  C_4
REMARK    3  A    between atoms: C_4  and  C_5
REMARK    4  A    between atoms: C_5  and  C_6
REMARK    5  A    between atoms: C_13  and  C_14
REMARK    6  A    between atoms: C_14  and  N_15
REMARK    7  A    between atoms: N_15  and  S_16
REMARK    8  A    between atoms: S_16  and  C_19
REMARK                            x       y       z     vdW  Elec       q    Type
REMARK                         _______ _______ _______ _____ _____    ______ ____
ROOT
ATOM      1  C   UNL     1       1.081  10.166  19.979  0.00  0.00    +0.000 A 
ATOM      2  C   UNL     1       1.597  10.176  18.666  0.00  0.00    +0.000 A 
ATOM      3  C   UNL     1       2.015   8.999  18.040  0.00  0.00    +0.000 A 
ATOM      4  C   UNL     1       1.945   7.814  18.749  0.00  0.00    +0.000 A 
ATOM      5  C   UNL     1       1.469   7.790  20.059  0.00  0.00    +0.000 A 
ATOM      6  C   UNL     1       1.028   8.950  20.686  0.00  0.00    +0.000 A 
ATOM      7  C   UNL     1       1.464   6.386  20.588  0.00  0.00    +0.000 C 
ATOM      8  C   UNL     1       2.410   5.667  19.591  0.00  0.00    +0.000 C 
ATOM      9  C   UNL     1       2.285   6.440  18.264  0.00  0.00    +0.000 C 
ENDROOT
BRANCH   1  10
ATOM     10  C   UNL     1       0.597  11.457  20.612  0.00  0.00    +0.000 C 
BRANCH  10  11
ATOM     11  C   UNL     1      -0.812  11.317  21.197  0.00  0.00    +0.000 C 
BRANCH  11  13
ATOM     12  O   UNL     1      -0.966  12.638  23.230  0.00  0.00    +0.000 OA
ATOM     13  C   UNL     1      -0.841  11.552  22.688  0.00  0.00    +0.000 C 
BRANCH  13  14
ATOM     14  O   UNL     1      -0.721  10.402  23.393  0.00  0.00    +0.000 OA
ATOM     15  H   UNL     1       0.168  10.243  23.759  0.00  0.00    +0.000 HD
ENDBRANCH  13  14
ENDBRANCH  11  13
ENDBRANCH  10  11
ENDBRANCH   1  10
BRANCH   8  16
ATOM     16  C   UNL     1       2.072   4.184  19.453  0.00  0.00    +0.000 C 
BRANCH  16  17
ATOM     17  N   UNL     1       3.019   3.349  20.213  0.00  0.00    +0.000 NA
ATOM     18  H   UNL     1       2.633   2.709  20.909  0.00  0.00    +0.000 HD
BRANCH  17  19
ATOM     19  S   UNL     1       4.229   2.570  19.319  0.00  0.00    +0.000 S 
ATOM     20  O   UNL     1       5.065   1.879  20.273  0.00  0.00    +0.000 OA
ATOM     21  O   UNL     1       3.587   1.879  18.223  0.00  0.00    +0.000 OA
BRANCH  19  22
ATOM     22  C   UNL     1       5.167   3.929  18.667  0.00  0.00    +0.000 A 
ATOM     23  C   UNL     1       5.092   4.229  17.302  0.00  0.00    +0.000 A 
ATOM     24  C   UNL     1       5.858   5.279  16.787  0.00  0.00    +0.000 A 
ATOM     25  C   UNL     1       6.678   6.024  17.638  0.00  0.00    +0.000 A 
ATOM     26 CL   UNL     1       7.648   7.291  16.995  0.00  0.00    +0.000 Cl
ATOM     27  C   UNL     1       6.727   5.742  19.003  0.00  0.00    +0.000 A 
ATOM     28  C   UNL     1       5.967   4.693  19.523  0.00  0.00    +0.000 A 
ENDBRANCH  19  22
ENDBRANCH  17  19
ENDBRANCH  16  17
ENDBRANCH   8  16
TORSDOF 8
ENDMDL
MODEL 5
REMARK VINA RESULT:      -6.8      3.410      5.405
REMARK  Name = 
REMARK  8 active torsions:
REMARK  status: ('A' for Active; 'I' for Inactive)
REMARK    1  A    between atoms: C_2  and  O_3
REMARK    2  A    between atoms: C_2  and  C_4
REMARK    3  A    between atoms: C_4  and  C_5
REMARK    4  A    between atoms: C_5  and  C_6
REMARK    5  A    between atoms: C_13  and  C_14
REMARK    6  A    between atoms: C_14  and  N_15
REMARK    7  A    between atoms: N_15  and  S_16
REMARK    8  A    between atoms: S_16  and  C_19
REMARK                            x       y       z     vdW  Elec       q    Type
REMARK                         _______ _______ _______ _____ _____    ______ ____
ROOT
ATOM      1  C   UNL     1       1.927   8.331  18.676  0.00  0.00    +0.000 A 
ATOM      2  C   UNL     1       1.828   8.369  20.083  0.00  0.00    +0.000 A 
ATOM      3  C   UNL     1       1.712   7.197  20.836  0.00  0.00    +0.000 A 
ATOM      4  C   UNL     1       1.663   5.987  20.167  0.00  0.00    +0.000 A 
ATOM      5  C   UNL     1       1.726   5.933  18.777  0.00  0.00    +0.000 A 
ATOM      6  C   UNL     1       1.864   7.090  18.017  0.00  0.00    +0.000 A 
ATOM      7  C   UNL     1       1.687   4.509  18.305  0.00  0.00    +0.000 C 
ATOM      8  C   UNL     1       1.144   3.774  19.559  0.00  0.00    +0.000 C 
ATOM      9  C   UNL     1       1.596   4.618  20.767  0.00  0.00    +0.000 C 
ENDROOT
BRANCH   1  10
ATOM     10  C   UNL     1       2.093   9.621  17.895  0.00  0.00    +0.000 C 
BRANCH  10  11
ATOM     11  C   UNL     1       1.400  10.802  18.582  0.00  0.00    +0.000 C 
BRANCH  11  13
ATOM     12  O   UNL     1      -0.729  10.064  17.676  0.00  0.00    +0.000 OA
ATOM     13  C   UNL     1      -0.105  10.716  18.496  0.00  0.00    +0.000 C 
BRANCH  13  14
ATOM     14  O   UNL     1      -0.718  11.449  19.456  0.00  0.00    +0.000 OA
ATOM     15  H   UNL     1      -1.412  12.048  19.124  0.00  0.00    +0.000 HD
ENDBRANCH  13  14
ENDBRANCH  11  13
ENDBRANCH  10  11
ENDBRANCH   1  10
BRANCH   8  16
ATOM     16  C   UNL     1       1.626   2.327  19.626  0.00  0.00    +0.000 C 
BRANCH  16  17
ATOM     17  N   UNL     1       2.872   2.216  20.404  0.00  0.00    +0.000 NA
ATOM     18  H   UNL     1       2.842   1.676  21.271  0.00  0.00    +0.000 HD
BRANCH  17  19
ATOM     19  S   UNL     1       4.278   1.841  19.536  0.00  0.00    +0.000 S 
ATOM     20  O   UNL     1       5.290   1.515  20.514  0.00  0.00    +0.000 OA
ATOM     21  O   UNL     1       3.909   0.922  18.482  0.00  0.00    +0.000 OA
BRANCH  19  22
ATOM     22  C   UNL     1       4.714   3.400  18.808  0.00  0.00    +0.000 A 
ATOM     23  C   UNL     1       4.661   3.553  17.418  0.00  0.00    +0.000 A 
ATOM     24  C   UNL     1       5.037   4.772  16.847  0.00  0.00    +0.000 A 
ATOM     25  C   UNL     1       5.448   5.827  17.665  0.00  0.00    +0.000 A 
ATOM     26 CL   UNL     1       5.946   7.313  16.958  0.00  0.00    +0.000 Cl
ATOM     27  C   UNL     1       5.470   5.681  19.053  0.00  0.00    +0.000 A 
ATOM     28  C   UNL     1       5.099   4.465  19.629  0.00  0.00    +0.000 A 
ENDBRANCH  19  22
ENDBRANCH  17  19
ENDBRANCH  16  17
ENDBRANCH   8  16
TORSDOF 8
ENDMDL
MODEL 6
REMARK VINA RESULT:      -6.8      6.551      9.693
REMARK  Name = 
REMARK  8 active torsions:
REMARK  status: ('A' for Active; 'I' for Inactive)
REMARK    1  A    between atoms: C_2  and  O_3
REMARK    2  A    between atoms: C_2  and  C_4
REMARK    3  A    between atoms: C_4  and  C_5
REMARK    4  A    between atoms: C_5  and  C_6
REMARK    5  A    between atoms: C_13  and  C_14
REMARK    6  A    between atoms: C_14  and  N_15
REMARK    7  A    between atoms: N_15  and  S_16
REMARK    8  A    between atoms: S_16  and  C_19
REMARK                            x       y       z     vdW  Elec       q    Type
REMARK                         _______ _______ _______ _____ _____    ______ ____
ROOT
ATOM      1  C   UNL     1      -3.109  10.208  15.319  0.00  0.00    +0.000 A 
ATOM      2  C   UNL     1      -4.103  11.058  15.847  0.00  0.00    +0.000 A 
ATOM      3  C   UNL     1      -3.989  11.601  17.130  0.00  0.00    +0.000 A 
ATOM      4  C   UNL     1      -2.888  11.260  17.894  0.00  0.00    +0.000 A 
ATOM      5  C   UNL     1      -1.913  10.395  17.401  0.00  0.00    +0.000 A 
ATOM      6  C   UNL     1      -2.002   9.866  16.118  0.00  0.00    +0.000 A 
ATOM      7  C   UNL     1      -0.815  10.216  18.408  0.00  0.00    +0.000 C 
ATOM      8  C   UNL     1      -1.491  10.722  19.709  0.00  0.00    +0.000 C 
ATOM      9  C   UNL     1      -2.538  11.760  19.260  0.00  0.00    +0.000 C 
ENDROOT
BRANCH   1  10
ATOM     10  C   UNL     1      -3.245   9.671  13.906  0.00  0.00    +0.000 C 
BRANCH  10  11
ATOM     11  C   UNL     1      -4.565  10.097  13.255  0.00  0.00    +0.000 C 
BRANCH  11  13
ATOM     12  O   UNL     1      -5.657   9.237  11.263  0.00  0.00    +0.000 OA
ATOM     13  C   UNL     1      -4.657   9.671  11.810  0.00  0.00    +0.000 C 
BRANCH  13  14
ATOM     14  O   UNL     1      -3.484   9.829  11.150  0.00  0.00    +0.000 OA
ATOM     15  H   UNL     1      -3.322  10.735  10.828  0.00  0.00    +0.000 HD
ENDBRANCH  13  14
ENDBRANCH  11  13
ENDBRANCH  10  11
ENDBRANCH   1  10
BRANCH   8  16
ATOM     16  C   UNL     1      -0.474  11.287  20.698  0.00  0.00    +0.000 C 
BRANCH  16  17
ATOM     17  N   UNL     1       0.794  10.538  20.645  0.00  0.00    +0.000 NA
ATOM     18  H   UNL     1       1.662  11.071  20.717  0.00  0.00    +0.000 HD
BRANCH  17  19
ATOM     19  S   UNL     1       0.889   9.143  21.602  0.00  0.00    +0.000 S 
ATOM     20  O   UNL     1       1.891   9.403  22.610  0.00  0.00    +0.000 OA
ATOM     21  O   UNL     1      -0.460   8.756  21.947  0.00  0.00    +0.000 OA
BRANCH  19  22
ATOM     22  C   UNL     1       1.558   7.943  20.477  0.00  0.00    +0.000 A 
ATOM     23  C   UNL     1       1.984   8.349  19.207  0.00  0.00    +0.000 A 
ATOM     24  C   UNL     1       2.479   7.395  18.313  0.00  0.00    +0.000 A 
ATOM     25  C   UNL     1       2.556   6.055  18.697  0.00  0.00    +0.000 A 
ATOM     26 CL   UNL     1       3.129   4.878  17.581  0.00  0.00    +0.000 Cl
ATOM     27  C   UNL     1       2.158   5.658  19.974  0.00  0.00    +0.000 A 
ATOM     28  C   UNL     1       1.660   6.605  20.871  0.00  0.00    +0.000 A 
ENDBRANCH  19  22
ENDBRANCH  17  19
ENDBRANCH  16  17
ENDBRANCH   8  16
TORSDOF 8
ENDMDL
MODEL 7
REMARK VINA RESULT:      -6.7      5.124      6.418
REMARK  Name = 
REMARK  8 active torsions:
REMARK  status: ('A' for Active; 'I' for Inactive)
REMARK    1  A    between atoms: C_2  and  O_3
REMARK    2  A    between atoms: C_2  and  C_4
REMARK    3  A    between atoms: C_4  and  C_5
REMARK    4  A    between atoms: C_5  and  C_6
REMARK    5  A    between atoms: C_13  and  C_14
REMARK    6  A    between atoms: C_14  and  N_15
REMARK    7  A    between atoms: N_15  and  S_16
REMARK    8  A    between atoms: S_16  and  C_19
REMARK                            x       y       z     vdW  Elec       q    Type
REMARK                         _______ _______ _______ _____ _____    ______ ____
ROOT
ATOM      1  C   UNL     1       5.221   5.208  15.745  0.00  0.00    +0.000 A 
ATOM      2  C   UNL     1       4.872   4.046  16.465  0.00  0.00    +0.000 A 
ATOM      3  C   UNL     1       4.025   4.105  17.575  0.00  0.00    +0.000 A 
ATOM      4  C   UNL     1       3.555   5.341  17.980  0.00  0.00    +0.000 A 
ATOM      5  C   UNL     1       3.915   6.502  17.301  0.00  0.00    +0.000 A 
ATOM      6  C   UNL     1       4.739   6.456  16.181  0.00  0.00    +0.000 A 
ATOM      7  C   UNL     1       3.249   7.697  17.917  0.00  0.00    +0.000 C 
ATOM      8  C   UNL     1       2.820   7.144  19.301  0.00  0.00    +0.000 C 
ATOM      9  C   UNL     1       2.603   5.631  19.097  0.00  0.00    +0.000 C 
ENDROOT
BRANCH   1  10
ATOM     10  C   UNL     1       6.109   5.100  14.520  0.00  0.00    +0.000 C 
BRANCH  10  11
ATOM     11  C   UNL     1       6.315   3.645  14.086  0.00  0.00    +0.000 C 
BRANCH  11  13
ATOM     12  O   UNL     1       4.737   3.668  12.239  0.00  0.00    +0.000 OA
ATOM     13  C   UNL     1       5.843   3.394  12.674  0.00  0.00    +0.000 C 
BRANCH  13  14
ATOM     14  O   UNL     1       6.801   2.823  11.905  0.00  0.00    +0.000 OA
ATOM     15  H   UNL     1       7.612   3.356  11.808  0.00  0.00    +0.000 HD
ENDBRANCH  13  14
ENDBRANCH  11  13
ENDBRANCH  10  11
ENDBRANCH   1  10
BRANCH   8  16
ATOM     16  C   UNL     1       1.583   7.857  19.842  0.00  0.00    +0.000 C 
BRANCH  16  17
ATOM     17  N   UNL     1       1.429   9.191  19.236  0.00  0.00    +0.000 NA
ATOM     18  H   UNL     1       1.212   9.236  18.239  0.00  0.00    +0.000 HD
BRANCH  17  19
ATOM     19  S   UNL     1       0.478  10.306  20.087  0.00  0.00    +0.000 S 
ATOM     20  O   UNL     1      -0.036   9.609  21.244  0.00  0.00    +0.000 OA
ATOM     21  O   UNL     1       1.239  11.529  20.207  0.00  0.00    +0.000 OA
BRANCH  19  22
ATOM     22  C   UNL     1      -0.881  10.584  18.979  0.00  0.00    +0.000 A 
ATOM     23  C   UNL     1      -1.838  11.557  19.290  0.00  0.00    +0.000 A 
ATOM     24  C   UNL     1      -2.924  11.750  18.431  0.00  0.00    +0.000 A 
ATOM     25  C   UNL     1      -3.037  10.983  17.269  0.00  0.00    +0.000 A 
ATOM     26 CL   UNL     1      -4.394  11.196  16.234  0.00  0.00    +0.000 Cl
ATOM     27  C   UNL     1      -2.065  10.036  16.946  0.00  0.00    +0.000 A 
ATOM     28  C   UNL     1      -0.980   9.836  17.802  0.00  0.00    +0.000 A 
ENDBRANCH  19  22
ENDBRANCH  17  19
ENDBRANCH  16  17
ENDBRANCH   8  16
TORSDOF 8
ENDMDL
MODEL 8
REMARK VINA RESULT:      -6.7      4.305      5.653
REMARK  Name = 
REMARK  8 active torsions:
REMARK  status: ('A' for Active; 'I' for Inactive)
REMARK    1  A    between atoms: C_2  and  O_3
REMARK    2  A    between atoms: C_2  and  C_4
REMARK    3  A    between atoms: C_4  and  C_5
REMARK    4  A    between atoms: C_5  and  C_6
REMARK    5  A    between atoms: C_13  and  C_14
REMARK    6  A    between atoms: C_14  and  N_15
REMARK    7  A    between atoms: N_15  and  S_16
REMARK    8  A    between atoms: S_16  and  C_19
REMARK                            x       y       z     vdW  Elec       q    Type
REMARK                         _______ _______ _______ _____ _____    ______ ____
ROOT
ATOM      1  C   UNL     1       4.351   3.797  16.991  0.00  0.00    +0.000 A 
ATOM      2  C   UNL     1       3.690   2.713  17.607  0.00  0.00    +0.000 A 
ATOM      3  C   UNL     1       2.763   2.913  18.633  0.00  0.00    +0.000 A 
ATOM      4  C   UNL     1       2.526   4.207  19.062  0.00  0.00    +0.000 A 
ATOM      5  C   UNL     1       3.194   5.286  18.489  0.00  0.00    +0.000 A 
ATOM      6  C   UNL     1       4.102   5.103  17.451  0.00  0.00    +0.000 A 
ATOM      7  C   UNL     1       2.735   6.574  19.107  0.00  0.00    +0.000 C 
ATOM      8  C   UNL     1       2.055   6.077  20.410  0.00  0.00    +0.000 C 
ATOM      9  C   UNL     1       1.545   4.656  20.099  0.00  0.00    +0.000 C 
ENDROOT
BRANCH   1  10
ATOM     10  C   UNL     1       5.320   3.544  15.852  0.00  0.00    +0.000 C 
BRANCH  10  11
ATOM     11  C   UNL     1       5.650   4.828  15.082  0.00  0.00    +0.000 C 
BRANCH  11  13
ATOM     12  O   UNL     1       7.580   5.455  16.416  0.00  0.00    +0.000 OA
ATOM     13  C   UNL     1       7.065   5.294  15.322  0.00  0.00    +0.000 C 
BRANCH  13  14
ATOM     14  O   UNL     1       7.736   5.517  14.167  0.00  0.00    +0.000 OA
ATOM     15  H   UNL     1       7.529   4.888  13.452  0.00  0.00    +0.000 HD
ENDBRANCH  13  14
ENDBRANCH  11  13
ENDBRANCH  10  11
ENDBRANCH   1  10
BRANCH   8  16
ATOM     16  C   UNL     1       0.948   7.022  20.872  0.00  0.00    +0.000 C 
BRANCH  16  17
ATOM     17  N   UNL     1       1.505   8.203  21.553  0.00  0.00    +0.000 NA
ATOM     18  H   UNL     1       2.183   8.770  21.040  0.00  0.00    +0.000 HD
BRANCH  17  19
ATOM     19  S   UNL     1       0.401   9.206  22.356  0.00  0.00    +0.000 S 
ATOM     20  O   UNL     1      -0.844   8.476  22.424  0.00  0.00    +0.000 OA
ATOM     21  O   UNL     1       1.054   9.715  23.542  0.00  0.00    +0.000 OA
BRANCH  19  22
ATOM     22  C   UNL     1       0.180  10.542  21.208  0.00  0.00    +0.000 A 
ATOM     23  C   UNL     1       0.923  10.564  20.022  0.00  0.00    +0.000 A 
ATOM     24  C   UNL     1       0.769  11.635  19.136  0.00  0.00    +0.000 A 
ATOM     25  C   UNL     1      -0.129  12.661  19.435  0.00  0.00    +0.000 A 
ATOM     26 CL   UNL     1      -0.288  13.996  18.362  0.00  0.00    +0.000 Cl
ATOM     27  C   UNL     1      -0.891  12.620  20.603  0.00  0.00    +0.000 A 
ATOM     28  C   UNL     1      -0.740  11.556  21.493  0.00  0.00    +0.000 A 
ENDBRANCH  19  22
ENDBRANCH  17  19
ENDBRANCH  16  17
ENDBRANCH   8  16
TORSDOF 8
ENDMDL
MODEL 9
REMARK VINA RESULT:      -6.7      4.487      6.980
REMARK  Name = 
REMARK  8 active torsions:
REMARK  status: ('A' for Active; 'I' for Inactive)
REMARK    1  A    between atoms: C_2  and  O_3
REMARK    2  A    between atoms: C_2  and  C_4
REMARK    3  A    between atoms: C_4  and  C_5
REMARK    4  A    between atoms: C_5  and  C_6
REMARK    5  A    between atoms: C_13  and  C_14
REMARK    6  A    between atoms: C_14  and  N_15
REMARK    7  A    between atoms: N_15  and  S_16
REMARK    8  A    between atoms: S_16  and  C_19
REMARK                            x       y       z     vdW  Elec       q    Type
REMARK                         _______ _______ _______ _____ _____    ______ ____
ROOT
ATOM      1  C   UNL     1       0.131   9.776  19.973  0.00  0.00    +0.000 A 
ATOM      2  C   UNL     1       0.304   8.776  20.954  0.00  0.00    +0.000 A 
ATOM      3  C   UNL     1       1.280   7.786  20.819  0.00  0.00    +0.000 A 
ATOM      4  C   UNL     1       2.062   7.783  19.678  0.00  0.00    +0.000 A 
ATOM      5  C   UNL     1       1.883   8.742  18.684  0.00  0.00    +0.000 A 
ATOM      6  C   UNL     1       0.930   9.747  18.816  0.00  0.00    +0.000 A 
ATOM      7  C   UNL     1       2.874   8.539  17.576  0.00  0.00    +0.000 C 
ATOM      8  C   UNL     1       3.346   7.084  17.835  0.00  0.00    +0.000 C 
ATOM      9  C   UNL     1       3.193   6.859  19.352  0.00  0.00    +0.000 C 
ENDROOT
BRANCH   1  10
ATOM     10  C   UNL     1      -0.912  10.859  20.173  0.00  0.00    +0.000 C 
BRANCH  10  11
ATOM     11  C   UNL     1      -0.542  11.809  21.317  0.00  0.00    +0.000 C 
BRANCH  11  13
ATOM     12  O   UNL     1      -2.525  12.037  22.701  0.00  0.00    +0.000 OA
ATOM     13  C   UNL     1      -1.399  11.596  22.541  0.00  0.00    +0.000 C 
BRANCH  13  14
ATOM     14  O   UNL     1      -0.781  10.834  23.476  0.00  0.00    +0.000 OA
ATOM     15  H   UNL     1       0.011  11.242  23.870  0.00  0.00    +0.000 HD
ENDBRANCH  13  14
ENDBRANCH  11  13
ENDBRANCH  10  11
ENDBRANCH   1  10
BRANCH   8  16
ATOM     16  C   UNL     1       4.771   6.850  17.337  0.00  0.00    +0.000 C 
BRANCH  16  17
ATOM     17  N   UNL     1       4.799   5.855  16.251  0.00  0.00    +0.000 NA
ATOM     18  H   UNL     1       5.163   6.154  15.345  0.00  0.00    +0.000 HD
BRANCH  17  19
ATOM     19  S   UNL     1       5.406   4.322  16.642  0.00  0.00    +0.000 S 
ATOM     20  O   UNL     1       5.257   3.507  15.458  0.00  0.00    +0.000 OA
ATOM     21  O   UNL     1       6.687   4.510  17.285  0.00  0.00    +0.000 OA
BRANCH  19  22
ATOM     22  C   UNL     1       4.241   3.738  17.848  0.00  0.00    +0.000 A 
ATOM     23  C   UNL     1       2.907   3.536  17.479  0.00  0.00    +0.000 A 
ATOM     24  C   UNL     1       1.986   3.108  18.441  0.00  0.00    +0.000 A 
ATOM     25  C   UNL     1       2.408   2.874  19.752  0.00  0.00    +0.000 A 
ATOM     26 CL   UNL     1       1.267   2.383  20.941  0.00  0.00    +0.000 Cl
ATOM     27  C   UNL     1       3.746   3.046  20.109  0.00  0.00    +0.000 A 
ATOM     28  C   UNL     1       4.669   3.477  19.154  0.00  0.00    +0.000 A 
ENDBRANCH  19  22
ENDBRANCH  17  19
ENDBRANCH  16  17
ENDBRANCH   8  16
TORSDOF 8
ENDMDL
