MODEL 1
REMARK VINA RESULT:      -9.9      0.000      0.000
REMARK  Name = 
REMARK  6 active torsions:
REMARK  status: ('A' for Active; 'I' for Inactive)
REMARK    1  A    between atoms: C_2  and  C_3
REMARK    2  A    between atoms: C_2  and  C_14
REMARK    3  A    between atoms: C_5  and  C_6
REMARK    4  A    between atoms: C_14  and  O_15
REMARK    5  A    between atoms: N_18  and  C_19
REMARK    6  A    between atoms: C_19  and  C_20
REMARK                            x       y       z     vdW  Elec       q    Type
REMARK                         _______ _______ _______ _____ _____    ______ ____
ROOT
ATOM      1  C   UNL     1       6.282   5.148  18.059  0.00  0.00    +0.000 C 
ATOM      2  C   UNL     1       4.782   5.644  18.044  0.00  0.00    +0.000 C 
ATOM      3  O   UNL     1       4.346   6.686  18.514  0.00  0.00    +0.000 OA
ATOM      4  N   UNL     1       4.079   4.776  17.122  0.00  0.00    +0.000 N 
ATOM      5  C   UNL     1       5.046   4.603  16.093  0.00  0.00    +0.000 A 
ATOM      6  C   UNL     1       4.728   4.311  14.773  0.00  0.00    +0.000 A 
ATOM      7  C   UNL     1       5.783   4.226  13.874  0.00  0.00    +0.000 A 
ATOM      8  C   UNL     1       7.101   4.412  14.326  0.00  0.00    +0.000 A 
ATOM      9  C   UNL     1       7.397   4.673  15.680  0.00  0.00    +0.000 A 
ATOM     10  C   UNL     1       6.353   4.764  16.584  0.00  0.00    +0.000 A 
ENDROOT
BRANCH   1  12
ATOM     11  C   UNL     1       8.396   5.208  19.454  0.00  0.00    +0.000 C 
ATOM     12  C   UNL     1       7.488   5.826  18.668  0.00  0.00    +0.000 C 
BRANCH  12  13
ATOM     13  C   UNL     1       7.803   7.183  18.257  0.00  0.00    +0.000 A 
ATOM     14  N   UNL     1       8.616   8.017  18.887  0.00  0.00    +0.000 NA
ATOM     15  C   UNL     1       8.411   9.235  18.274  0.00  0.00    +0.000 A 
ATOM     16  N   UNL     1       7.546   9.172  17.253  0.00  0.00    +0.000 NA
ATOM     17  O   UNL     1       7.155   7.839  17.227  0.00  0.00    +0.000 OA
BRANCH  15  18
ATOM     18  C   UNL     1       9.097  10.453  18.705  0.00  0.00    +0.000 A 
ATOM     19  C   UNL     1       9.642  10.534  19.997  0.00  0.00    +0.000 A 
ATOM     20  C   UNL     1      10.328  11.679  20.417  0.00  0.00    +0.000 A 
ATOM     21  C   UNL     1      10.475  12.760  19.552  0.00  0.00    +0.000 A 
ATOM     22  C   UNL     1       9.931  12.703  18.271  0.00  0.00    +0.000 A 
ATOM     23  C   UNL     1       9.243  11.558  17.851  0.00  0.00    +0.000 A 
ENDBRANCH  15  18
ENDBRANCH  12  13
ENDBRANCH   1  12
BRANCH   1  24
ATOM     24  O   UNL     1       6.057   4.049  18.993  0.00  0.00    +0.000 OA
ATOM     25  H   UNL     1       5.593   3.359  18.473  0.00  0.00    +0.000 HD
ENDBRANCH   1  24
BRANCH   4  26
ATOM     26  C   UNL     1       3.732   3.382  17.567  0.00  0.00    +0.000 C 
BRANCH  26  27
ATOM     27  C   UNL     1       2.891   3.157  18.790  0.00  0.00    +0.000 A 
ATOM     28  C   UNL     1       3.360   2.557  19.966  0.00  0.00    +0.000 A 
ATOM     29  C   UNL     1       2.541   2.526  21.095  0.00  0.00    +0.000 A 
ATOM     30  C   UNL     1       1.260   3.075  21.061  0.00  0.00    +0.000 A 
ATOM     31  C   UNL     1       0.771   3.646  19.887  0.00  0.00    +0.000 A 
ATOM     32  C   UNL     1       1.583   3.681  18.761  0.00  0.00    +0.000 A 
ENDBRANCH  26  27
ENDBRANCH   4  26
TORSDOF 6
ENDMDL
MODEL 2
REMARK VINA RESULT:      -9.7      3.947      6.897
REMARK  Name = 
REMARK  6 active torsions:
REMARK  status: ('A' for Active; 'I' for Inactive)
REMARK    1  A    between atoms: C_2  and  C_3
REMARK    2  A    between atoms: C_2  and  C_14
REMARK    3  A    between atoms: C_5  and  C_6
REMARK    4  A    between atoms: C_14  and  O_15
REMARK    5  A    between atoms: N_18  and  C_19
REMARK    6  A    between atoms: C_19  and  C_20
REMARK                            x       y       z     vdW  Elec       q    Type
REMARK                         _______ _______ _______ _____ _____    ______ ____
ROOT
ATOM      1  C   UNL     1       4.941   5.419  18.014  0.00  0.00    +0.000 C 
ATOM      2  C   UNL     1       3.907   6.501  17.508  0.00  0.00    +0.000 C 
ATOM      3  O   UNL     1       4.042   7.263  16.560  0.00  0.00    +0.000 OA
ATOM      4  N   UNL     1       2.662   6.221  18.193  0.00  0.00    +0.000 N 
ATOM      5  C   UNL     1       2.644   4.799  18.193  0.00  0.00    +0.000 A 
ATOM      6  C   UNL     1       1.483   4.039  18.246  0.00  0.00    +0.000 A 
ATOM      7  C   UNL     1       1.629   2.660  18.182  0.00  0.00    +0.000 A 
ATOM      8  C   UNL     1       2.913   2.097  18.092  0.00  0.00    +0.000 A 
ATOM      9  C   UNL     1       4.079   2.893  18.075  0.00  0.00    +0.000 A 
ATOM     10  C   UNL     1       3.945   4.269  18.134  0.00  0.00    +0.000 A 
ENDROOT
BRANCH   1  12
ATOM     11  C   UNL     1       7.375   4.749  18.221  0.00  0.00    +0.000 C 
ATOM     12  C   UNL     1       6.314   5.106  17.466  0.00  0.00    +0.000 C 
BRANCH  12  13
ATOM     13  C   UNL     1       6.481   5.009  16.026  0.00  0.00    +0.000 A 
ATOM     14  N   UNL     1       5.777   4.237  15.212  0.00  0.00    +0.000 NA
ATOM     15  C   UNL     1       6.443   4.298  14.007  0.00  0.00    +0.000 A 
ATOM     16  N   UNL     1       7.499   5.122  14.031  0.00  0.00    +0.000 NA
ATOM     17  O   UNL     1       7.525   5.598  15.336  0.00  0.00    +0.000 OA
BRANCH  15  18
ATOM     18  C   UNL     1       6.007   3.542  12.833  0.00  0.00    +0.000 A 
ATOM     19  C   UNL     1       6.892   2.657  12.198  0.00  0.00    +0.000 A 
ATOM     20  C   UNL     1       6.484   1.903  11.092  0.00  0.00    +0.000 A 
ATOM     21  C   UNL     1       5.186   2.028  10.603  0.00  0.00    +0.000 A 
ATOM     22  C   UNL     1       4.297   2.910  11.214  0.00  0.00    +0.000 A 
ATOM     23  C   UNL     1       4.705   3.666  12.319  0.00  0.00    +0.000 A 
ENDBRANCH  15  18
ENDBRANCH  12  13
ENDBRANCH   1  12
BRANCH   1  24
ATOM     24  O   UNL     1       5.269   6.109  19.258  0.00  0.00    +0.000 OA
ATOM     25  H   UNL     1       5.114   7.059  19.074  0.00  0.00    +0.000 HD
ENDBRANCH   1  24
BRANCH   4  26
ATOM     26  C   UNL     1       2.533   6.611  19.641  0.00  0.00    +0.000 C 
BRANCH  26  27
ATOM     27  C   UNL     1       1.792   7.855  20.035  0.00  0.00    +0.000 A 
ATOM     28  C   UNL     1       1.537   8.926  19.168  0.00  0.00    +0.000 A 
ATOM     29  C   UNL     1       0.715   9.971  19.590  0.00  0.00    +0.000 A 
ATOM     30  C   UNL     1       0.155   9.965  20.867  0.00  0.00    +0.000 A 
ATOM     31  C   UNL     1       0.426   8.921  21.749  0.00  0.00    +0.000 A 
ATOM     32  C   UNL     1       1.243   7.877  21.333  0.00  0.00    +0.000 A 
ENDBRANCH  26  27
ENDBRANCH   4  26
TORSDOF 6
ENDMDL
MODEL 3
REMARK VINA RESULT:      -9.5      3.942      6.890
REMARK  Name = 
REMARK  6 active torsions:
REMARK  status: ('A' for Active; 'I' for Inactive)
REMARK    1  A    between atoms: C_2  and  C_3
REMARK    2  A    between atoms: C_2  and  C_14
REMARK    3  A    between atoms: C_5  and  C_6
REMARK    4  A    between atoms: C_14  and  O_15
REMARK    5  A    between atoms: N_18  and  C_19
REMARK    6  A    between atoms: C_19  and  C_20
REMARK                            x       y       z     vdW  Elec       q    Type
REMARK                         _______ _______ _______ _____ _____    ______ ____
ROOT
ATOM      1  C   UNL     1       4.998   5.432  18.019  0.00  0.00    +0.000 C 
ATOM      2  C   UNL     1       3.972   6.528  17.528  0.00  0.00    +0.000 C 
ATOM      3  O   UNL     1       4.109   7.296  16.585  0.00  0.00    +0.000 OA
ATOM      4  N   UNL     1       2.729   6.256  18.219  0.00  0.00    +0.000 N 
ATOM      5  C   UNL     1       2.696   4.834  18.208  0.00  0.00    +0.000 A 
ATOM      6  C   UNL     1       1.528   4.086  18.262  0.00  0.00    +0.000 A 
ATOM      7  C   UNL     1       1.658   2.706  18.187  0.00  0.00    +0.000 A 
ATOM      8  C   UNL     1       2.937   2.130  18.084  0.00  0.00    +0.000 A 
ATOM      9  C   UNL     1       4.110   2.914  18.066  0.00  0.00    +0.000 A 
ATOM     10  C   UNL     1       3.991   4.291  18.137  0.00  0.00    +0.000 A 
ENDROOT
BRANCH   1  12
ATOM     11  C   UNL     1       7.432   4.754  18.208  0.00  0.00    +0.000 C 
ATOM     12  C   UNL     1       6.365   5.108  17.460  0.00  0.00    +0.000 C 
BRANCH  12  13
ATOM     13  C   UNL     1       6.517   4.997  16.020  0.00  0.00    +0.000 A 
ATOM     14  N   UNL     1       5.794   4.229  15.219  0.00  0.00    +0.000 NA
ATOM     15  C   UNL     1       6.450   4.272  14.007  0.00  0.00    +0.000 A 
ATOM     16  N   UNL     1       7.517   5.082  14.014  0.00  0.00    +0.000 NA
ATOM     17  O   UNL     1       7.561   5.567  15.316  0.00  0.00    +0.000 OA
BRANCH  15  18
ATOM     18  C   UNL     1       5.993   3.513  12.843  0.00  0.00    +0.000 A 
ATOM     19  C   UNL     1       4.687   3.685  12.360  0.00  0.00    +0.000 A 
ATOM     20  C   UNL     1       4.241   2.990  11.230  0.00  0.00    +0.000 A 
ATOM     21  C   UNL     1       5.096   2.110  10.571  0.00  0.00    +0.000 A 
ATOM     22  C   UNL     1       6.392   1.918  11.042  0.00  0.00    +0.000 A 
ATOM     23  C   UNL     1       6.838   2.611  12.174  0.00  0.00    +0.000 A 
ENDBRANCH  15  18
ENDBRANCH  12  13
ENDBRANCH   1  12
BRANCH   1  24
ATOM     24  O   UNL     1       5.341   6.108  19.266  0.00  0.00    +0.000 OA
ATOM     25  H   UNL     1       5.322   7.065  19.055  0.00  0.00    +0.000 HD
ENDBRANCH   1  24
BRANCH   4  26
ATOM     26  C   UNL     1       2.613   6.636  19.670  0.00  0.00    +0.000 C 
BRANCH  26  27
ATOM     27  C   UNL     1       1.749   7.788  20.093  0.00  0.00    +0.000 A 
ATOM     28  C   UNL     1       1.198   7.930  21.373  0.00  0.00    +0.000 A 
ATOM     29  C   UNL     1       0.532   9.108  21.707  0.00  0.00    +0.000 A 
ATOM     30  C   UNL     1       0.399  10.140  20.779  0.00  0.00    +0.000 A 
ATOM     31  C   UNL     1       0.916   9.999  19.492  0.00  0.00    +0.000 A 
ATOM     32  C   UNL     1       1.582   8.827  19.154  0.00  0.00    +0.000 A 
ENDBRANCH  26  27
ENDBRANCH   4  26
TORSDOF 6
ENDMDL
MODEL 4
REMARK VINA RESULT:      -9.3      3.111      6.452
REMARK  Name = 
REMARK  6 active torsions:
REMARK  status: ('A' for Active; 'I' for Inactive)
REMARK    1  A    between atoms: C_2  and  C_3
REMARK    2  A    between atoms: C_2  and  C_14
REMARK    3  A    between atoms: C_5  and  C_6
REMARK    4  A    between atoms: C_14  and  O_15
REMARK    5  A    between atoms: N_18  and  C_19
REMARK    6  A    between atoms: C_19  and  C_20
REMARK                            x       y       z     vdW  Elec       q    Type
REMARK                         _______ _______ _______ _____ _____    ______ ____
ROOT
ATOM      1  C   UNL     1       6.054   5.487  17.696  0.00  0.00    +0.000 C 
ATOM      2  C   UNL     1       6.331   5.082  19.198  0.00  0.00    +0.000 C 
ATOM      3  O   UNL     1       7.344   5.307  19.847  0.00  0.00    +0.000 OA
ATOM      4  N   UNL     1       5.058   4.657  19.743  0.00  0.00    +0.000 N 
ATOM      5  C   UNL     1       4.163   5.587  19.147  0.00  0.00    +0.000 A 
ATOM      6  C   UNL     1       2.947   5.957  19.706  0.00  0.00    +0.000 A 
ATOM      7  C   UNL     1       2.208   6.918  19.028  0.00  0.00    +0.000 A 
ATOM      8  C   UNL     1       2.695   7.451  17.822  0.00  0.00    +0.000 A 
ATOM      9  C   UNL     1       3.919   7.029  17.259  0.00  0.00    +0.000 A 
ATOM     10  C   UNL     1       4.664   6.074  17.928  0.00  0.00    +0.000 A 
ENDROOT
BRANCH   1  12
ATOM     11  C   UNL     1       7.835   7.183  17.087  0.00  0.00    +0.000 C 
ATOM     12  C   UNL     1       6.970   6.207  16.734  0.00  0.00    +0.000 C 
BRANCH  12  13
ATOM     13  C   UNL     1       7.067   5.717  15.370  0.00  0.00    +0.000 A 
ATOM     14  N   UNL     1       6.193   4.927  14.764  0.00  0.00    +0.000 NA
ATOM     15  C   UNL     1       6.818   4.543  13.597  0.00  0.00    +0.000 A 
ATOM     16  N   UNL     1       8.020   5.110  13.433  0.00  0.00    +0.000 NA
ATOM     17  O   UNL     1       8.186   5.885  14.575  0.00  0.00    +0.000 OA
BRANCH  15  18
ATOM     18  C   UNL     1       6.198   3.622  12.644  0.00  0.00    +0.000 A 
ATOM     19  C   UNL     1       4.834   3.741  12.337  0.00  0.00    +0.000 A 
ATOM     20  C   UNL     1       4.230   2.888  11.406  0.00  0.00    +0.000 A 
ATOM     21  C   UNL     1       4.983   1.902  10.773  0.00  0.00    +0.000 A 
ATOM     22  C   UNL     1       6.336   1.763  11.073  0.00  0.00    +0.000 A 
ATOM     23  C   UNL     1       6.940   2.614  12.006  0.00  0.00    +0.000 A 
ENDBRANCH  15  18
ENDBRANCH  12  13
ENDBRANCH   1  12
BRANCH   1  24
ATOM     24  O   UNL     1       6.089   4.124  17.175  0.00  0.00    +0.000 OA
ATOM     25  H   UNL     1       6.407   4.209  16.251  0.00  0.00    +0.000 HD
ENDBRANCH   1  24
BRANCH   4  26
ATOM     26  C   UNL     1       4.527   3.303  19.359  0.00  0.00    +0.000 C 
BRANCH  26  27
ATOM     27  C   UNL     1       3.089   2.948  19.606  0.00  0.00    +0.000 A 
ATOM     28  C   UNL     1       2.485   2.951  20.869  0.00  0.00    +0.000 A 
ATOM     29  C   UNL     1       1.109   2.747  20.973  0.00  0.00    +0.000 A 
ATOM     30  C   UNL     1       0.333   2.529  19.835  0.00  0.00    +0.000 A 
ATOM     31  C   UNL     1       0.928   2.493  18.575  0.00  0.00    +0.000 A 
ATOM     32  C   UNL     1       2.298   2.696  18.466  0.00  0.00    +0.000 A 
ENDBRANCH  26  27
ENDBRANCH   4  26
TORSDOF 6
ENDMDL
MODEL 5
REMARK VINA RESULT:      -8.9      1.825      4.550
REMARK  Name = 
REMARK  6 active torsions:
REMARK  status: ('A' for Active; 'I' for Inactive)
REMARK    1  A    between atoms: C_2  and  C_3
REMARK    2  A    between atoms: C_2  and  C_14
REMARK    3  A    between atoms: C_5  and  C_6
REMARK    4  A    between atoms: C_14  and  O_15
REMARK    5  A    between atoms: N_18  and  C_19
REMARK    6  A    between atoms: C_19  and  C_20
REMARK                            x       y       z     vdW  Elec       q    Type
REMARK                         _______ _______ _______ _____ _____    ______ ____
ROOT
ATOM      1  C   UNL     1       6.872   5.840  17.390  0.00  0.00    +0.000 C 
ATOM      2  C   UNL     1       7.288   4.476  16.710  0.00  0.00    +0.000 C 
ATOM      3  O   UNL     1       8.256   3.781  16.985  0.00  0.00    +0.000 OA
ATOM      4  N   UNL     1       6.155   4.064  15.907  0.00  0.00    +0.000 N 
ATOM      5  C   UNL     1       5.061   4.430  16.740  0.00  0.00    +0.000 A 
ATOM      6  C   UNL     1       3.818   3.812  16.700  0.00  0.00    +0.000 A 
ATOM      7  C   UNL     1       2.868   4.248  17.615  0.00  0.00    +0.000 A 
ATOM      8  C   UNL     1       3.185   5.285  18.509  0.00  0.00    +0.000 A 
ATOM      9  C   UNL     1       4.446   5.919  18.503  0.00  0.00    +0.000 A 
ATOM     10  C   UNL     1       5.401   5.490  17.597  0.00  0.00    +0.000 A 
ENDROOT
BRANCH   1  12
ATOM     11  C   UNL     1       7.988   6.036  19.656  0.00  0.00    +0.000 C 
ATOM     12  C   UNL     1       7.578   6.591  18.496  0.00  0.00    +0.000 C 
BRANCH  12  13
ATOM     13  C   UNL     1       8.005   7.956  18.244  0.00  0.00    +0.000 A 
ATOM     14  N   UNL     1       9.001   8.584  18.851  0.00  0.00    +0.000 NA
ATOM     15  C   UNL     1       8.871   9.901  18.466  0.00  0.00    +0.000 A 
ATOM     16  N   UNL     1       7.869  10.101  17.601  0.00  0.00    +0.000 NA
ATOM     17  O   UNL     1       7.306   8.840  17.441  0.00  0.00    +0.000 OA
BRANCH  15  18
ATOM     18  C   UNL     1       9.765  10.951  18.955  0.00  0.00    +0.000 A 
ATOM     19  C   UNL     1       9.713  11.349  20.300  0.00  0.00    +0.000 A 
ATOM     20  C   UNL     1      10.581  12.329  20.794  0.00  0.00    +0.000 A 
ATOM     21  C   UNL     1      11.509  12.929  19.947  0.00  0.00    +0.000 A 
ATOM     22  C   UNL     1      11.568  12.555  18.606  0.00  0.00    +0.000 A 
ATOM     23  C   UNL     1      10.699  11.575  18.112  0.00  0.00    +0.000 A 
ENDBRANCH  15  18
ENDBRANCH  12  13
ENDBRANCH   1  12
BRANCH   1  24
ATOM     24  O   UNL     1       7.170   6.673  16.229  0.00  0.00    +0.000 OA
ATOM     25  H   UNL     1       6.335   6.709  15.717  0.00  0.00    +0.000 HD
ENDBRANCH   1  24
BRANCH   4  26
ATOM     26  C   UNL     1       5.903   4.767  14.602  0.00  0.00    +0.000 C 
BRANCH  26  27
ATOM     27  C   UNL     1       5.949   4.013  13.305  0.00  0.00    +0.000 A 
ATOM     28  C   UNL     1       7.132   3.586  12.687  0.00  0.00    +0.000 A 
ATOM     29  C   UNL     1       7.060   2.767  11.560  0.00  0.00    +0.000 A 
ATOM     30  C   UNL     1       5.827   2.381  11.037  0.00  0.00    +0.000 A 
ATOM     31  C   UNL     1       4.644   2.825  11.625  0.00  0.00    +0.000 A 
ATOM     32  C   UNL     1       4.709   3.639  12.748  0.00  0.00    +0.000 A 
ENDBRANCH  26  27
ENDBRANCH   4  26
TORSDOF 6
ENDMDL
MODEL 6
REMARK VINA RESULT:      -8.8      1.924      4.642
REMARK  Name = 
REMARK  6 active torsions:
REMARK  status: ('A' for Active; 'I' for Inactive)
REMARK    1  A    between atoms: C_2  and  C_3
REMARK    2  A    between atoms: C_2  and  C_14
REMARK    3  A    between atoms: C_5  and  C_6
REMARK    4  A    between atoms: C_14  and  O_15
REMARK    5  A    between atoms: N_18  and  C_19
REMARK    6  A    between atoms: C_19  and  C_20
REMARK                            x       y       z     vdW  Elec       q    Type
REMARK                         _______ _______ _______ _____ _____    ______ ____
ROOT
ATOM      1  C   UNL     1       7.050   5.873  17.430  0.00  0.00    +0.000 C 
ATOM      2  C   UNL     1       7.468   4.472  16.833  0.00  0.00    +0.000 C 
ATOM      3  O   UNL     1       8.396   3.762  17.199  0.00  0.00    +0.000 OA
ATOM      4  N   UNL     1       6.379   4.058  15.973  0.00  0.00    +0.000 N 
ATOM      5  C   UNL     1       5.244   4.487  16.716  0.00  0.00    +0.000 A 
ATOM      6  C   UNL     1       3.989   3.903  16.618  0.00  0.00    +0.000 A 
ATOM      7  C   UNL     1       2.995   4.401  17.450  0.00  0.00    +0.000 A 
ATOM      8  C   UNL     1       3.282   5.465  18.321  0.00  0.00    +0.000 A 
ATOM      9  C   UNL     1       4.559   6.063  18.375  0.00  0.00    +0.000 A 
ATOM     10  C   UNL     1       5.558   5.572  17.552  0.00  0.00    +0.000 A 
ENDROOT
BRANCH   1  12
ATOM     11  C   UNL     1       8.088   6.114  19.729  0.00  0.00    +0.000 C 
ATOM     12  C   UNL     1       7.704   6.650  18.550  0.00  0.00    +0.000 C 
BRANCH  12  13
ATOM     13  C   UNL     1       8.110   8.021  18.299  0.00  0.00    +0.000 A 
ATOM     14  N   UNL     1       9.034   8.694  18.968  0.00  0.00    +0.000 NA
ATOM     15  C   UNL     1       8.898   9.997  18.540  0.00  0.00    +0.000 A 
ATOM     16  N   UNL     1       7.965  10.144  17.591  0.00  0.00    +0.000 NA
ATOM     17  O   UNL     1       7.455   8.863  17.419  0.00  0.00    +0.000 OA
BRANCH  15  18
ATOM     18  C   UNL     1       9.717  11.085  19.073  0.00  0.00    +0.000 A 
ATOM     19  C   UNL     1      10.506  11.860  18.209  0.00  0.00    +0.000 A 
ATOM     20  C   UNL     1      11.273  12.925  18.697  0.00  0.00    +0.000 A 
ATOM     21  C   UNL     1      11.265  13.225  20.057  0.00  0.00    +0.000 A 
ATOM     22  C   UNL     1      10.496  12.459  20.931  0.00  0.00    +0.000 A 
ATOM     23  C   UNL     1       9.730  11.394  20.444  0.00  0.00    +0.000 A 
ENDBRANCH  15  18
ENDBRANCH  12  13
ENDBRANCH   1  12
BRANCH   1  24
ATOM     24  O   UNL     1       7.448   6.650  16.260  0.00  0.00    +0.000 OA
ATOM     25  H   UNL     1       7.532   5.997  15.534  0.00  0.00    +0.000 HD
ENDBRANCH   1  24
BRANCH   4  26
ATOM     26  C   UNL     1       6.234   4.714  14.628  0.00  0.00    +0.000 C 
BRANCH  26  27
ATOM     27  C   UNL     1       5.915   3.898  13.409  0.00  0.00    +0.000 A 
ATOM     28  C   UNL     1       4.626   3.738  12.885  0.00  0.00    +0.000 A 
ATOM     29  C   UNL     1       4.457   3.080  11.667  0.00  0.00    +0.000 A 
ATOM     30  C   UNL     1       5.553   2.573  10.972  0.00  0.00    +0.000 A 
ATOM     31  C   UNL     1       6.838   2.699  11.498  0.00  0.00    +0.000 A 
ATOM     32  C   UNL     1       7.013   3.354  12.710  0.00  0.00    +0.000 A 
ENDBRANCH  26  27
ENDBRANCH   4  26
TORSDOF 6
ENDMDL
MODEL 7
REMARK VINA RESULT:      -8.4      7.728     10.114
REMARK  Name = 
REMARK  6 active torsions:
REMARK  status: ('A' for Active; 'I' for Inactive)
REMARK    1  A    between atoms: C_2  and  C_3
REMARK    2  A    between atoms: C_2  and  C_14
REMARK    3  A    between atoms: C_5  and  C_6
REMARK    4  A    between atoms: C_14  and  O_15
REMARK    5  A    between atoms: N_18  and  C_19
REMARK    6  A    between atoms: C_19  and  C_20
REMARK                            x       y       z     vdW  Elec       q    Type
REMARK                         _______ _______ _______ _____ _____    ______ ____
ROOT
ATOM      1  C   UNL     1      -0.098  11.641  19.348  0.00  0.00    +0.000 C 
ATOM      2  C   UNL     1      -0.734  13.018  19.790  0.00  0.00    +0.000 C 
ATOM      3  O   UNL     1      -0.251  14.133  19.645  0.00  0.00    +0.000 OA
ATOM      4  N   UNL     1      -2.113  12.735  20.131  0.00  0.00    +0.000 N 
ATOM      5  C   UNL     1      -2.470  11.786  19.133  0.00  0.00    +0.000 A 
ATOM      6  C   UNL     1      -3.769  11.586  18.685  0.00  0.00    +0.000 A 
ATOM      7  C   UNL     1      -3.948  10.660  17.666  0.00  0.00    +0.000 A 
ATOM      8  C   UNL     1      -2.841   9.962  17.154  0.00  0.00    +0.000 A 
ATOM      9  C   UNL     1      -1.536  10.160  17.653  0.00  0.00    +0.000 A 
ATOM     10  C   UNL     1      -1.345  11.084  18.667  0.00  0.00    +0.000 A 
ENDROOT
BRANCH   1  12
ATOM     11  C   UNL     1       2.170  12.345  18.467  0.00  0.00    +0.000 C 
ATOM     12  C   UNL     1       1.236  11.394  18.682  0.00  0.00    +0.000 C 
BRANCH  12  13
ATOM     13  C   UNL     1       1.629  10.024  18.404  0.00  0.00    +0.000 A 
ATOM     14  N   UNL     1       1.570   9.010  19.254  0.00  0.00    +0.000 NA
ATOM     15  C   UNL     1       2.261   7.991  18.633  0.00  0.00    +0.000 A 
ATOM     16  N   UNL     1       2.696   8.320  17.410  0.00  0.00    +0.000 NA
ATOM     17  O   UNL     1       2.280   9.635  17.247  0.00  0.00    +0.000 OA
BRANCH  15  18
ATOM     18  C   UNL     1       2.467   6.688  19.265  0.00  0.00    +0.000 A 
ATOM     19  C   UNL     1       1.701   6.318  20.381  0.00  0.00    +0.000 A 
ATOM     20  C   UNL     1       1.863   5.063  20.980  0.00  0.00    +0.000 A 
ATOM     21  C   UNL     1       2.797   4.164  20.473  0.00  0.00    +0.000 A 
ATOM     22  C   UNL     1       3.575   4.518  19.373  0.00  0.00    +0.000 A 
ATOM     23  C   UNL     1       3.414   5.774  18.774  0.00  0.00    +0.000 A 
ENDBRANCH  15  18
ENDBRANCH  12  13
ENDBRANCH   1  12
BRANCH   1  24
ATOM     24  O   UNL     1       0.154  11.161  20.703  0.00  0.00    +0.000 OA
ATOM     25  H   UNL     1       0.106  10.184  20.644  0.00  0.00    +0.000 HD
ENDBRANCH   1  24
BRANCH   4  26
ATOM     26  C   UNL     1      -2.406  12.052  21.439  0.00  0.00    +0.000 C 
BRANCH  26  27
ATOM     27  C   UNL     1      -3.543  12.510  22.304  0.00  0.00    +0.000 A 
ATOM     28  C   UNL     1      -4.752  13.018  21.809  0.00  0.00    +0.000 A 
ATOM     29  C   UNL     1      -5.799  13.280  22.692  0.00  0.00    +0.000 A 
ATOM     30  C   UNL     1      -5.653  13.052  24.059  0.00  0.00    +0.000 A 
ATOM     31  C   UNL     1      -4.445  12.576  24.567  0.00  0.00    +0.000 A 
ATOM     32  C   UNL     1      -3.399  12.312  23.693  0.00  0.00    +0.000 A 
ENDBRANCH  26  27
ENDBRANCH   4  26
TORSDOF 6
ENDMDL
MODEL 8
REMARK VINA RESULT:      -8.4      7.553      9.955
REMARK  Name = 
REMARK  6 active torsions:
REMARK  status: ('A' for Active; 'I' for Inactive)
REMARK    1  A    between atoms: C_2  and  C_3
REMARK    2  A    between atoms: C_2  and  C_14
REMARK    3  A    between atoms: C_5  and  C_6
REMARK    4  A    between atoms: C_14  and  O_15
REMARK    5  A    between atoms: N_18  and  C_19
REMARK    6  A    between atoms: C_19  and  C_20
REMARK                            x       y       z     vdW  Elec       q    Type
REMARK                         _______ _______ _______ _____ _____    ______ ____
ROOT
ATOM      1  C   UNL     1       0.032  11.239  19.309  0.00  0.00    +0.000 C 
ATOM      2  C   UNL     1      -0.430  12.698  19.701  0.00  0.00    +0.000 C 
ATOM      3  O   UNL     1       0.196  13.738  19.540  0.00  0.00    +0.000 OA
ATOM      4  N   UNL     1      -1.840  12.604  20.018  0.00  0.00    +0.000 N 
ATOM      5  C   UNL     1      -2.296  11.681  19.036  0.00  0.00    +0.000 A 
ATOM      6  C   UNL     1      -3.601  11.637  18.563  0.00  0.00    +0.000 A 
ATOM      7  C   UNL     1      -3.878  10.714  17.564  0.00  0.00    +0.000 A 
ATOM      8  C   UNL     1      -2.860   9.865  17.096  0.00  0.00    +0.000 A 
ATOM      9  C   UNL     1      -1.551   9.909  17.620  0.00  0.00    +0.000 A 
ATOM     10  C   UNL     1      -1.262  10.828  18.614  0.00  0.00    +0.000 A 
ENDROOT
BRANCH   1  12
ATOM     11  C   UNL     1       2.184  11.631  18.029  0.00  0.00    +0.000 C 
ATOM     12  C   UNL     1       1.337  10.805  18.681  0.00  0.00    +0.000 C 
BRANCH  12  13
ATOM     13  C   UNL     1       1.811   9.455  18.929  0.00  0.00    +0.000 A 
ATOM     14  N   UNL     1       2.469   8.691  18.070  0.00  0.00    +0.000 NA
ATOM     15  C   UNL     1       2.488   7.443  18.653  0.00  0.00    +0.000 A 
ATOM     16  N   UNL     1       1.916   7.419  19.864  0.00  0.00    +0.000 NA
ATOM     17  O   UNL     1       1.483   8.725  20.057  0.00  0.00    +0.000 OA
BRANCH  15  18
ATOM     18  C   UNL     1       3.094   6.283  18.000  0.00  0.00    +0.000 A 
ATOM     19  C   UNL     1       2.459   5.033  18.053  0.00  0.00    +0.000 A 
ATOM     20  C   UNL     1       3.008   3.919  17.409  0.00  0.00    +0.000 A 
ATOM     21  C   UNL     1       4.204   4.040  16.706  0.00  0.00    +0.000 A 
ATOM     22  C   UNL     1       4.855   5.270  16.651  0.00  0.00    +0.000 A 
ATOM     23  C   UNL     1       4.307   6.384  17.297  0.00  0.00    +0.000 A 
ENDBRANCH  15  18
ENDBRANCH  12  13
ENDBRANCH   1  12
BRANCH   1  24
ATOM     24  O   UNL     1       0.194  10.769  20.682  0.00  0.00    +0.000 OA
ATOM     25  H   UNL     1      -0.336  11.385  21.230  0.00  0.00    +0.000 HD
ENDBRANCH   1  24
BRANCH   4  26
ATOM     26  C   UNL     1      -2.243  12.001  21.336  0.00  0.00    +0.000 C 
BRANCH  26  27
ATOM     27  C   UNL     1      -3.331  12.624  22.162  0.00  0.00    +0.000 A 
ATOM     28  C   UNL     1      -4.398  13.359  21.630  0.00  0.00    +0.000 A 
ATOM     29  C   UNL     1      -5.433  13.772  22.469  0.00  0.00    +0.000 A 
ATOM     30  C   UNL     1      -5.410  13.471  23.830  0.00  0.00    +0.000 A 
ATOM     31  C   UNL     1      -4.338  12.767  24.376  0.00  0.00    +0.000 A 
ATOM     32  C   UNL     1      -3.305  12.353  23.545  0.00  0.00    +0.000 A 
ENDBRANCH  26  27
ENDBRANCH   4  26
TORSDOF 6
ENDMDL
MODEL 9
REMARK VINA RESULT:      -8.3      6.837     10.415
REMARK  Name = 
REMARK  6 active torsions:
REMARK  status: ('A' for Active; 'I' for Inactive)
REMARK    1  A    between atoms: C_2  and  C_3
REMARK    2  A    between atoms: C_2  and  C_14
REMARK    3  A    between atoms: C_5  and  C_6
REMARK    4  A    between atoms: C_14  and  O_15
REMARK    5  A    between atoms: N_18  and  C_19
REMARK    6  A    between atoms: C_19  and  C_20
REMARK                            x       y       z     vdW  Elec       q    Type
REMARK                         _______ _______ _______ _____ _____    ______ ____
ROOT
ATOM      1  C   UNL     1       0.258  11.421  19.270  0.00  0.00    +0.000 C 
ATOM      2  C   UNL     1      -0.243  12.822  18.738  0.00  0.00    +0.000 C 
ATOM      3  O   UNL     1      -0.884  13.037  17.718  0.00  0.00    +0.000 OA
ATOM      4  N   UNL     1      -0.054  13.758  19.827  0.00  0.00    +0.000 N 
ATOM      5  C   UNL     1      -0.418  12.970  20.954  0.00  0.00    +0.000 A 
ATOM      6  C   UNL     1      -0.907  13.497  22.142  0.00  0.00    +0.000 A 
ATOM      7  C   UNL     1      -1.269  12.592  23.131  0.00  0.00    +0.000 A 
ATOM      8  C   UNL     1      -1.112  11.214  22.907  0.00  0.00    +0.000 A 
ATOM      9  C   UNL     1      -0.579  10.708  21.703  0.00  0.00    +0.000 A 
ATOM     10  C   UNL     1      -0.218  11.601  20.709  0.00  0.00    +0.000 A 
ENDROOT
BRANCH   1  12
ATOM     11  C   UNL     1      -0.903   9.740  17.772  0.00  0.00    +0.000 C 
ATOM     12  C   UNL     1       0.084  10.060  18.636  0.00  0.00    +0.000 C 
BRANCH  12  13
ATOM     13  C   UNL     1       1.131   9.070  18.820  0.00  0.00    +0.000 A 
ATOM     14  N   UNL     1       1.807   8.465  17.856  0.00  0.00    +0.000 NA
ATOM     15  C   UNL     1       2.501   7.458  18.492  0.00  0.00    +0.000 A 
ATOM     16  N   UNL     1       2.322   7.454  19.820  0.00  0.00    +0.000 NA
ATOM     17  O   UNL     1       1.442   8.506  20.044  0.00  0.00    +0.000 OA
BRANCH  15  18
ATOM     18  C   UNL     1       3.352   6.516  17.767  0.00  0.00    +0.000 A 
ATOM     19  C   UNL     1       4.430   6.987  17.002  0.00  0.00    +0.000 A 
ATOM     20  C   UNL     1       5.275   6.099  16.326  0.00  0.00    +0.000 A 
ATOM     21  C   UNL     1       5.048   4.727  16.402  0.00  0.00    +0.000 A 
ATOM     22  C   UNL     1       3.976   4.241  17.148  0.00  0.00    +0.000 A 
ATOM     23  C   UNL     1       3.131   5.130  17.823  0.00  0.00    +0.000 A 
ENDBRANCH  15  18
ENDBRANCH  12  13
ENDBRANCH   1  12
BRANCH   1  24
ATOM     24  O   UNL     1       1.675  11.679  19.032  0.00  0.00    +0.000 OA
ATOM     25  H   UNL     1       1.755  12.655  18.986  0.00  0.00    +0.000 HD
ENDBRANCH   1  24
BRANCH   4  26
ATOM     26  C   UNL     1       1.338  14.244  20.126  0.00  0.00    +0.000 C 
BRANCH  26  27
ATOM     27  C   UNL     1       2.062  15.134  19.158  0.00  0.00    +0.000 A 
ATOM     28  C   UNL     1       3.202  14.751  18.440  0.00  0.00    +0.000 A 
ATOM     29  C   UNL     1       3.713  15.601  17.459  0.00  0.00    +0.000 A 
ATOM     30  C   UNL     1       3.109  16.829  17.195  0.00  0.00    +0.000 A 
ATOM     31  C   UNL     1       1.992  17.234  17.924  0.00  0.00    +0.000 A 
ATOM     32  C   UNL     1       1.479  16.392  18.902  0.00  0.00    +0.000 A 
ENDBRANCH  26  27
ENDBRANCH   4  26
TORSDOF 6
ENDMDL
