MODEL 1
REMARK VINA RESULT:      -7.8      0.000      0.000
REMARK  Name = 
REMARK  6 active torsions:
REMARK  status: ('A' for Active; 'I' for Inactive)
REMARK    1  A    between atoms: C_2  and  C_3
REMARK    2  A    between atoms: C_2  and  C_14
REMARK    3  A    between atoms: C_3  and  S_4
REMARK    4  A    between atoms: S_4  and  C_5
REMARK    5  A    between atoms: C_17  and  O_18
REMARK    6  A    between atoms: C_19  and  O_20
REMARK                            x       y       z     vdW  Elec       q    Type
REMARK                         _______ _______ _______ _____ _____    ______ ____
ROOT
ATOM      1  O   UNL     1       6.055   4.103  19.171  0.00  0.00    +0.000 OA
ATOM      2  C   UNL     1       5.078   4.678  18.692  0.00  0.00    +0.000 C 
ENDROOT
BRANCH   2   3
ATOM      3  C   UNL     1       3.783   3.941  18.664  0.00  0.00    +0.000 A 
ATOM      4  C   UNL     1       3.635   2.894  17.736  0.00  0.00    +0.000 A 
ATOM      5  C   UNL     1       2.442   2.168  17.659  0.00  0.00    +0.000 A 
ATOM      6  C   UNL     1       1.404   2.493  18.522  0.00  0.00    +0.000 A 
ATOM      7  C   UNL     1       1.554   3.521  19.450  0.00  0.00    +0.000 A 
ATOM      8  C   UNL     1       2.734   4.251  19.533  0.00  0.00    +0.000 A 
BRANCH   6   9
ATOM      9  O   UNL     1       0.213   1.823  18.501  0.00  0.00    +0.000 OA
ATOM     10  H   UNL     1       0.011   1.529  19.407  0.00  0.00    +0.000 HD
ENDBRANCH   6   9
BRANCH   7  11
ATOM     11  O   UNL     1       0.528   3.822  20.300  0.00  0.00    +0.000 OA
ATOM     12  H   UNL     1      -0.156   3.148  20.114  0.00  0.00    +0.000 HD
ENDBRANCH   7  11
ENDBRANCH   2   3
BRANCH   2  13
ATOM     13  C   UNL     1       5.112   6.099  18.150  0.00  0.00    +0.000 C 
BRANCH  13  14
ATOM     14  S   UNL     1       6.717   6.440  17.364  0.00  0.00    +0.000 S 
BRANCH  14  15
ATOM     15  C   UNL     1       6.551   5.548  15.901  0.00  0.00    +0.000 A 
ATOM     16  N   UNL     1       5.548   4.794  15.526  0.00  0.00    +0.000 NA
ATOM     17  C   UNL     1       5.888   4.369  14.262  0.00  0.00    +0.000 A 
ATOM     18  C   UNL     1       5.177   3.560  13.364  0.00  0.00    +0.000 A 
ATOM     19  C   UNL     1       5.736   3.299  12.105  0.00  0.00    +0.000 A 
ATOM     20  C   UNL     1       6.983   3.819  11.752  0.00  0.00    +0.000 A 
ATOM     21  C   UNL     1       7.717   4.616  12.640  0.00  0.00    +0.000 A 
ATOM     22  C   UNL     1       7.131   4.870  13.882  0.00  0.00    +0.000 A 
ATOM     23  N   UNL     1       7.538   5.608  14.963  0.00  0.00    +0.000 N 
ATOM     24  H   UNL     1       8.393   6.134  15.052  0.00  0.00    +0.000 HD
ENDBRANCH  14  15
ENDBRANCH  13  14
ENDBRANCH   2  13
TORSDOF 6
ENDMDL
MODEL 2
REMARK VINA RESULT:      -7.7      0.707      1.474
REMARK  Name = 
REMARK  6 active torsions:
REMARK  status: ('A' for Active; 'I' for Inactive)
REMARK    1  A    between atoms: C_2  and  C_3
REMARK    2  A    between atoms: C_2  and  C_14
REMARK    3  A    between atoms: C_3  and  S_4
REMARK    4  A    between atoms: S_4  and  C_5
REMARK    5  A    between atoms: C_17  and  O_18
REMARK    6  A    between atoms: C_19  and  O_20
REMARK                            x       y       z     vdW  Elec       q    Type
REMARK                         _______ _______ _______ _____ _____    ______ ____
ROOT
ATOM      1  O   UNL     1       6.046   4.742  19.719  0.00  0.00    +0.000 OA
ATOM      2  C   UNL     1       5.118   5.175  19.037  0.00  0.00    +0.000 C 
ENDROOT
BRANCH   2   3
ATOM      3  C   UNL     1       3.787   4.519  19.179  0.00  0.00    +0.000 A 
ATOM      4  C   UNL     1       2.896   5.026  20.142  0.00  0.00    +0.000 A 
ATOM      5  C   UNL     1       1.635   4.451  20.326  0.00  0.00    +0.000 A 
ATOM      6  C   UNL     1       1.271   3.371  19.534  0.00  0.00    +0.000 A 
ATOM      7  C   UNL     1       2.147   2.875  18.571  0.00  0.00    +0.000 A 
ATOM      8  C   UNL     1       3.404   3.437  18.382  0.00  0.00    +0.000 A 
BRANCH   6   9
ATOM      9  O   UNL     1       0.054   2.761  19.660  0.00  0.00    +0.000 OA
ATOM     10  H   UNL     1      -0.609   3.302  19.196  0.00  0.00    +0.000 HD
ENDBRANCH   6   9
BRANCH   7  11
ATOM     11  O   UNL     1       1.771   1.818  17.791  0.00  0.00    +0.000 OA
ATOM     12  H   UNL     1       1.516   1.119  18.425  0.00  0.00    +0.000 HD
ENDBRANCH   7  11
ENDBRANCH   2   3
BRANCH   2  13
ATOM     13  C   UNL     1       5.245   6.349  18.079  0.00  0.00    +0.000 C 
BRANCH  13  14
ATOM     14  S   UNL     1       6.922   6.415  17.374  0.00  0.00    +0.000 S 
BRANCH  14  15
ATOM     15  C   UNL     1       6.691   5.526  15.919  0.00  0.00    +0.000 A 
ATOM     16  N   UNL     1       5.680   4.759  15.595  0.00  0.00    +0.000 NA
ATOM     17  C   UNL     1       5.959   4.343  14.312  0.00  0.00    +0.000 A 
ATOM     18  C   UNL     1       5.213   3.527  13.450  0.00  0.00    +0.000 A 
ATOM     19  C   UNL     1       5.708   3.277  12.163  0.00  0.00    +0.000 A 
ATOM     20  C   UNL     1       6.928   3.816  11.746  0.00  0.00    +0.000 A 
ATOM     21  C   UNL     1       7.697   4.620  12.597  0.00  0.00    +0.000 A 
ATOM     22  C   UNL     1       7.173   4.862  13.869  0.00  0.00    +0.000 A 
ATOM     23  N   UNL     1       7.626   5.602  14.931  0.00  0.00    +0.000 N 
ATOM     24  H   UNL     1       8.478   6.140  14.976  0.00  0.00    +0.000 HD
ENDBRANCH  14  15
ENDBRANCH  13  14
ENDBRANCH   2  13
TORSDOF 6
ENDMDL
MODEL 3
REMARK VINA RESULT:      -7.7      1.474      2.376
REMARK  Name = 
REMARK  6 active torsions:
REMARK  status: ('A' for Active; 'I' for Inactive)
REMARK    1  A    between atoms: C_2  and  C_3
REMARK    2  A    between atoms: C_2  and  C_14
REMARK    3  A    between atoms: C_3  and  S_4
REMARK    4  A    between atoms: S_4  and  C_5
REMARK    5  A    between atoms: C_17  and  O_18
REMARK    6  A    between atoms: C_19  and  O_20
REMARK                            x       y       z     vdW  Elec       q    Type
REMARK                         _______ _______ _______ _____ _____    ______ ____
ROOT
ATOM      1  O   UNL     1       4.120   7.023  16.752  0.00  0.00    +0.000 OA
ATOM      2  C   UNL     1       4.451   6.353  17.729  0.00  0.00    +0.000 C 
ENDROOT
BRANCH   2   3
ATOM      3  C   UNL     1       3.394   5.554  18.413  0.00  0.00    +0.000 A 
ATOM      4  C   UNL     1       2.967   5.970  19.687  0.00  0.00    +0.000 A 
ATOM      5  C   UNL     1       1.982   5.259  20.380  0.00  0.00    +0.000 A 
ATOM      6  C   UNL     1       1.424   4.136  19.785  0.00  0.00    +0.000 A 
ATOM      7  C   UNL     1       1.837   3.731  18.518  0.00  0.00    +0.000 A 
ATOM      8  C   UNL     1       2.817   4.427  17.821  0.00  0.00    +0.000 A 
BRANCH   6   9
ATOM      9  O   UNL     1       0.456   3.397  20.406  0.00  0.00    +0.000 OA
ATOM     10  H   UNL     1      -0.194   4.007  20.794  0.00  0.00    +0.000 HD
ENDBRANCH   6   9
BRANCH   7  11
ATOM     11  O   UNL     1       1.270   2.630  17.939  0.00  0.00    +0.000 OA
ATOM     12  H   UNL     1       2.015   2.010  17.802  0.00  0.00    +0.000 HD
ENDBRANCH   7  11
ENDBRANCH   2   3
BRANCH   2  13
ATOM     13  C   UNL     1       5.873   6.275  18.262  0.00  0.00    +0.000 C 
BRANCH  13  14
ATOM     14  S   UNL     1       6.566   4.616  17.979  0.00  0.00    +0.000 S 
BRANCH  14  15
ATOM     15  C   UNL     1       6.689   4.611  16.262  0.00  0.00    +0.000 A 
ATOM     16  N   UNL     1       7.513   5.300  15.511  0.00  0.00    +0.000 NA
ATOM     17  C   UNL     1       7.241   4.883  14.228  0.00  0.00    +0.000 A 
ATOM     18  C   UNL     1       7.836   5.259  13.015  0.00  0.00    +0.000 A 
ATOM     19  C   UNL     1       7.395   4.653  11.831  0.00  0.00    +0.000 A 
ATOM     20  C   UNL     1       6.372   3.702  11.851  0.00  0.00    +0.000 A 
ATOM     21  C   UNL     1       5.752   3.323  13.048  0.00  0.00    +0.000 A 
ATOM     22  C   UNL     1       6.220   3.935  14.214  0.00  0.00    +0.000 A 
ATOM     23  N   UNL     1       5.876   3.796  15.534  0.00  0.00    +0.000 N 
ATOM     24  H   UNL     1       5.174   3.181  15.917  0.00  0.00    +0.000 HD
ENDBRANCH  14  15
ENDBRANCH  13  14
ENDBRANCH   2  13
TORSDOF 6
ENDMDL
MODEL 4
REMARK VINA RESULT:      -7.6      1.510      2.097
REMARK  Name = 
REMARK  6 active torsions:
REMARK  status: ('A' for Active; 'I' for Inactive)
REMARK    1  A    between atoms: C_2  and  C_3
REMARK    2  A    between atoms: C_2  and  C_14
REMARK    3  A    between atoms: C_3  and  S_4
REMARK    4  A    between atoms: S_4  and  C_5
REMARK    5  A    between atoms: C_17  and  O_18
REMARK    6  A    between atoms: C_19  and  O_20
REMARK                            x       y       z     vdW  Elec       q    Type
REMARK                         _______ _______ _______ _____ _____    ______ ____
ROOT
ATOM      1  O   UNL     1       4.332   6.888  16.359  0.00  0.00    +0.000 OA
ATOM      2  C   UNL     1       4.619   6.386  17.445  0.00  0.00    +0.000 C 
ENDROOT
BRANCH   2   3
ATOM      3  C   UNL     1       3.544   5.661  18.180  0.00  0.00    +0.000 A 
ATOM      4  C   UNL     1       3.142   6.160  19.433  0.00  0.00    +0.000 A 
ATOM      5  C   UNL     1       2.142   5.521  20.172  0.00  0.00    +0.000 A 
ATOM      6  C   UNL     1       1.544   4.384  19.645  0.00  0.00    +0.000 A 
ATOM      7  C   UNL     1       1.932   3.896  18.399  0.00  0.00    +0.000 A 
ATOM      8  C   UNL     1       2.927   4.521  17.657  0.00  0.00    +0.000 A 
BRANCH   6   9
ATOM      9  O   UNL     1       0.559   3.711  20.313  0.00  0.00    +0.000 OA
ATOM     10  H   UNL     1      -0.290   4.149  20.129  0.00  0.00    +0.000 HD
ENDBRANCH   6   9
BRANCH   7  11
ATOM     11  O   UNL     1       1.326   2.783  17.888  0.00  0.00    +0.000 OA
ATOM     12  H   UNL     1       0.754   3.119  17.169  0.00  0.00    +0.000 HD
ENDBRANCH   7  11
ENDBRANCH   2   3
BRANCH   2  13
ATOM     13  C   UNL     1       6.006   6.444  18.066  0.00  0.00    +0.000 C 
BRANCH  13  14
ATOM     14  S   UNL     1       6.804   4.810  17.989  0.00  0.00    +0.000 S 
BRANCH  14  15
ATOM     15  C   UNL     1       6.765   4.516  16.294  0.00  0.00    +0.000 A 
ATOM     16  N   UNL     1       5.996   3.683  15.638  0.00  0.00    +0.000 NA
ATOM     17  C   UNL     1       6.320   3.882  14.315  0.00  0.00    +0.000 A 
ATOM     18  C   UNL     1       5.794   3.284  13.161  0.00  0.00    +0.000 A 
ATOM     19  C   UNL     1       6.278   3.692  11.910  0.00  0.00    +0.000 A 
ATOM     20  C   UNL     1       7.276   4.665  11.810  0.00  0.00    +0.000 A 
ATOM     21  C   UNL     1       7.827   5.263  12.950  0.00  0.00    +0.000 A 
ATOM     22  C   UNL     1       7.317   4.846  14.182  0.00  0.00    +0.000 A 
ATOM     23  N   UNL     1       7.593   5.220  15.472  0.00  0.00    +0.000 N 
ATOM     24  H   UNL     1       8.260   5.913  15.773  0.00  0.00    +0.000 HD
ENDBRANCH  14  15
ENDBRANCH  13  14
ENDBRANCH   2  13
TORSDOF 6
ENDMDL
MODEL 5
REMARK VINA RESULT:      -7.5      1.236      1.657
REMARK  Name = 
REMARK  6 active torsions:
REMARK  status: ('A' for Active; 'I' for Inactive)
REMARK    1  A    between atoms: C_2  and  C_3
REMARK    2  A    between atoms: C_2  and  C_14
REMARK    3  A    between atoms: C_3  and  S_4
REMARK    4  A    between atoms: S_4  and  C_5
REMARK    5  A    between atoms: C_17  and  O_18
REMARK    6  A    between atoms: C_19  and  O_20
REMARK                            x       y       z     vdW  Elec       q    Type
REMARK                         _______ _______ _______ _____ _____    ______ ____
ROOT
ATOM      1  O   UNL     1       4.090   6.823  18.083  0.00  0.00    +0.000 OA
ATOM      2  C   UNL     1       4.549   5.706  18.316  0.00  0.00    +0.000 C 
ENDROOT
BRANCH   2   3
ATOM      3  C   UNL     1       3.595   4.562  18.378  0.00  0.00    +0.000 A 
ATOM      4  C   UNL     1       2.218   4.848  18.419  0.00  0.00    +0.000 A 
ATOM      5  C   UNL     1       1.274   3.818  18.482  0.00  0.00    +0.000 A 
ATOM      6  C   UNL     1       1.718   2.503  18.496  0.00  0.00    +0.000 A 
ATOM      7  C   UNL     1       3.081   2.218  18.442  0.00  0.00    +0.000 A 
ATOM      8  C   UNL     1       4.029   3.234  18.383  0.00  0.00    +0.000 A 
BRANCH   6   9
ATOM      9  O   UNL     1       0.851   1.448  18.555  0.00  0.00    +0.000 OA
ATOM     10  H   UNL     1       0.959   0.917  17.748  0.00  0.00    +0.000 HD
ENDBRANCH   6   9
BRANCH   7  11
ATOM     11  O   UNL     1       3.504   0.919  18.445  0.00  0.00    +0.000 OA
ATOM     12  H   UNL     1       3.391   0.619  17.521  0.00  0.00    +0.000 HD
ENDBRANCH   7  11
ENDBRANCH   2   3
BRANCH   2  13
ATOM     13  C   UNL     1       6.029   5.422  18.519  0.00  0.00    +0.000 C 
BRANCH  13  14
ATOM     14  S   UNL     1       7.028   6.402  17.355  0.00  0.00    +0.000 S 
BRANCH  14  15
ATOM     15  C   UNL     1       6.774   5.521  15.898  0.00  0.00    +0.000 A 
ATOM     16  N   UNL     1       5.757   4.757  15.585  0.00  0.00    +0.000 NA
ATOM     17  C   UNL     1       6.016   4.348  14.296  0.00  0.00    +0.000 A 
ATOM     18  C   UNL     1       5.256   3.539  13.440  0.00  0.00    +0.000 A 
ATOM     19  C   UNL     1       5.730   3.295  12.144  0.00  0.00    +0.000 A 
ATOM     20  C   UNL     1       6.945   3.835  11.712  0.00  0.00    +0.000 A 
ATOM     21  C   UNL     1       7.727   4.633  12.556  0.00  0.00    +0.000 A 
ATOM     22  C   UNL     1       7.224   4.869  13.837  0.00  0.00    +0.000 A 
ATOM     23  N   UNL     1       7.694   5.601  14.896  0.00  0.00    +0.000 N 
ATOM     24  H   UNL     1       8.547   6.138  14.931  0.00  0.00    +0.000 HD
ENDBRANCH  14  15
ENDBRANCH  13  14
ENDBRANCH   2  13
TORSDOF 6
ENDMDL
MODEL 6
REMARK VINA RESULT:      -7.5      3.230      6.466
REMARK  Name = 
REMARK  6 active torsions:
REMARK  status: ('A' for Active; 'I' for Inactive)
REMARK    1  A    between atoms: C_2  and  C_3
REMARK    2  A    between atoms: C_2  and  C_14
REMARK    3  A    between atoms: C_3  and  S_4
REMARK    4  A    between atoms: S_4  and  C_5
REMARK    5  A    between atoms: C_17  and  O_18
REMARK    6  A    between atoms: C_19  and  O_20
REMARK                            x       y       z     vdW  Elec       q    Type
REMARK                         _______ _______ _______ _____ _____    ______ ____
ROOT
ATOM      1  O   UNL     1       7.568   6.710  16.439  0.00  0.00    +0.000 OA
ATOM      2  C   UNL     1       7.294   5.511  16.483  0.00  0.00    +0.000 C 
ENDROOT
BRANCH   2   3
ATOM      3  C   UNL     1       6.778   4.871  15.240  0.00  0.00    +0.000 A 
ATOM      4  C   UNL     1       5.586   4.128  15.321  0.00  0.00    +0.000 A 
ATOM      5  C   UNL     1       5.054   3.500  14.190  0.00  0.00    +0.000 A 
ATOM      6  C   UNL     1       5.719   3.629  12.979  0.00  0.00    +0.000 A 
ATOM      7  C   UNL     1       6.892   4.376  12.894  0.00  0.00    +0.000 A 
ATOM      8  C   UNL     1       7.432   5.001  14.011  0.00  0.00    +0.000 A 
BRANCH   6   9
ATOM      9  O   UNL     1       5.253   3.044  11.834  0.00  0.00    +0.000 OA
ATOM     10  H   UNL     1       5.815   3.330  11.093  0.00  0.00    +0.000 HD
ENDBRANCH   6   9
BRANCH   7  11
ATOM     11  O   UNL     1       7.529   4.504  11.692  0.00  0.00    +0.000 OA
ATOM     12  H   UNL     1       8.169   3.764  11.670  0.00  0.00    +0.000 HD
ENDBRANCH   7  11
ENDBRANCH   2   3
BRANCH   2  13
ATOM     13  C   UNL     1       7.474   4.645  17.720  0.00  0.00    +0.000 C 
BRANCH  13  14
ATOM     14  S   UNL     1       6.787   5.480  19.184  0.00  0.00    +0.000 S 
BRANCH  14  15
ATOM     15  C   UNL     1       5.252   4.710  19.299  0.00  0.00    +0.000 A 
ATOM     16  N   UNL     1       4.129   5.215  19.746  0.00  0.00    +0.000 NA
ATOM     17  C   UNL     1       3.203   4.213  19.563  0.00  0.00    +0.000 A 
ATOM     18  C   UNL     1       1.827   4.200  19.835  0.00  0.00    +0.000 A 
ATOM     19  C   UNL     1       1.089   3.051  19.520  0.00  0.00    +0.000 A 
ATOM     20  C   UNL     1       1.710   1.931  18.961  0.00  0.00    +0.000 A 
ATOM     21  C   UNL     1       3.085   1.917  18.697  0.00  0.00    +0.000 A 
ATOM     22  C   UNL     1       3.793   3.080  19.008  0.00  0.00    +0.000 A 
ATOM     23  N   UNL     1       5.112   3.425  18.869  0.00  0.00    +0.000 N 
ATOM     24  H   UNL     1       5.851   2.856  18.485  0.00  0.00    +0.000 HD
ENDBRANCH  14  15
ENDBRANCH  13  14
ENDBRANCH   2  13
TORSDOF 6
ENDMDL
MODEL 7
REMARK VINA RESULT:      -7.5      3.902      7.060
REMARK  Name = 
REMARK  6 active torsions:
REMARK  status: ('A' for Active; 'I' for Inactive)
REMARK    1  A    between atoms: C_2  and  C_3
REMARK    2  A    between atoms: C_2  and  C_14
REMARK    3  A    between atoms: C_3  and  S_4
REMARK    4  A    between atoms: S_4  and  C_5
REMARK    5  A    between atoms: C_17  and  O_18
REMARK    6  A    between atoms: C_19  and  O_20
REMARK                            x       y       z     vdW  Elec       q    Type
REMARK                         _______ _______ _______ _____ _____    ______ ____
ROOT
ATOM      1  O   UNL     1       5.284   3.264  19.748  0.00  0.00    +0.000 OA
ATOM      2  C   UNL     1       4.660   3.785  18.825  0.00  0.00    +0.000 C 
ENDROOT
BRANCH   2   3
ATOM      3  C   UNL     1       5.438   4.280  17.654  0.00  0.00    +0.000 A 
ATOM      4  C   UNL     1       5.327   3.579  16.438  0.00  0.00    +0.000 A 
ATOM      5  C   UNL     1       6.035   3.993  15.306  0.00  0.00    +0.000 A 
ATOM      6  C   UNL     1       6.847   5.115  15.397  0.00  0.00    +0.000 A 
ATOM      7  C   UNL     1       6.948   5.817  16.596  0.00  0.00    +0.000 A 
ATOM      8  C   UNL     1       6.251   5.414  17.729  0.00  0.00    +0.000 A 
BRANCH   6   9
ATOM      9  O   UNL     1       7.566   5.574  14.329  0.00  0.00    +0.000 OA
ATOM     10  H   UNL     1       8.030   4.821  13.925  0.00  0.00    +0.000 HD
ENDBRANCH   6   9
BRANCH   7  11
ATOM     11  O   UNL     1       7.742   6.927  16.668  0.00  0.00    +0.000 OA
ATOM     12  H   UNL     1       7.364   7.546  16.013  0.00  0.00    +0.000 HD
ENDBRANCH   7  11
ENDBRANCH   2   3
BRANCH   2  13
ATOM     13  C   UNL     1       3.146   3.931  18.799  0.00  0.00    +0.000 C 
BRANCH  13  14
ATOM     14  S   UNL     1       2.550   4.631  20.370  0.00  0.00    +0.000 S 
BRANCH  14  15
ATOM     15  C   UNL     1       2.263   6.262  19.902  0.00  0.00    +0.000 A 
ATOM     16  N   UNL     1       2.500   6.822  18.742  0.00  0.00    +0.000 NA
ATOM     17  C   UNL     1       2.033   8.110  18.878  0.00  0.00    +0.000 A 
ATOM     18  C   UNL     1       1.999   9.157  17.945  0.00  0.00    +0.000 A 
ATOM     19  C   UNL     1       1.432  10.381  18.326  0.00  0.00    +0.000 A 
ATOM     20  C   UNL     1       0.922  10.564  19.614  0.00  0.00    +0.000 A 
ATOM     21  C   UNL     1       0.960   9.538  20.566  0.00  0.00    +0.000 A 
ATOM     22  C   UNL     1       1.520   8.326  20.155  0.00  0.00    +0.000 A 
ATOM     23  N   UNL     1       1.699   7.126  20.793  0.00  0.00    +0.000 N 
ATOM     24  H   UNL     1       1.435   6.896  21.739  0.00  0.00    +0.000 HD
ENDBRANCH  14  15
ENDBRANCH  13  14
ENDBRANCH   2  13
TORSDOF 6
ENDMDL
MODEL 8
REMARK VINA RESULT:      -7.5      3.777      7.068
REMARK  Name = 
REMARK  6 active torsions:
REMARK  status: ('A' for Active; 'I' for Inactive)
REMARK    1  A    between atoms: C_2  and  C_3
REMARK    2  A    between atoms: C_2  and  C_14
REMARK    3  A    between atoms: C_3  and  S_4
REMARK    4  A    between atoms: S_4  and  C_5
REMARK    5  A    between atoms: C_17  and  O_18
REMARK    6  A    between atoms: C_19  and  O_20
REMARK                            x       y       z     vdW  Elec       q    Type
REMARK                         _______ _______ _______ _____ _____    ______ ____
ROOT
ATOM      1  O   UNL     1       5.983   3.329  15.625  0.00  0.00    +0.000 OA
ATOM      2  C   UNL     1       5.460   4.064  16.461  0.00  0.00    +0.000 C 
ENDROOT
BRANCH   2   3
ATOM      3  C   UNL     1       6.335   5.041  17.170  0.00  0.00    +0.000 A 
ATOM      4  C   UNL     1       6.401   6.355  16.674  0.00  0.00    +0.000 A 
ATOM      5  C   UNL     1       7.207   7.316  17.292  0.00  0.00    +0.000 A 
ATOM      6  C   UNL     1       7.939   6.953  18.414  0.00  0.00    +0.000 A 
ATOM      7  C   UNL     1       7.865   5.655  18.915  0.00  0.00    +0.000 A 
ATOM      8  C   UNL     1       7.070   4.691  18.306  0.00  0.00    +0.000 A 
BRANCH   6   9
ATOM      9  O   UNL     1       8.745   7.841  19.069  0.00  0.00    +0.000 OA
ATOM     10  H   UNL     1       8.239   8.657  19.226  0.00  0.00    +0.000 HD
ENDBRANCH   6   9
BRANCH   7  11
ATOM     11  O   UNL     1       8.582   5.314  20.027  0.00  0.00    +0.000 OA
ATOM     12  H   UNL     1       9.483   5.126  19.694  0.00  0.00    +0.000 HD
ENDBRANCH   7  11
ENDBRANCH   2   3
BRANCH   2  13
ATOM     13  C   UNL     1       3.976   4.049  16.796  0.00  0.00    +0.000 C 
BRANCH  13  14
ATOM     14  S   UNL     1       3.732   4.100  18.599  0.00  0.00    +0.000 S 
BRANCH  14  15
ATOM     15  C   UNL     1       3.067   5.676  18.785  0.00  0.00    +0.000 A 
ATOM     16  N   UNL     1       2.912   6.600  17.869  0.00  0.00    +0.000 NA
ATOM     17  C   UNL     1       2.282   7.634  18.524  0.00  0.00    +0.000 A 
ATOM     18  C   UNL     1       1.842   8.872  18.034  0.00  0.00    +0.000 A 
ATOM     19  C   UNL     1       1.189   9.750  18.910  0.00  0.00    +0.000 A 
ATOM     20  C   UNL     1       0.989   9.408  20.250  0.00  0.00    +0.000 A 
ATOM     21  C   UNL     1       1.435   8.184  20.764  0.00  0.00    +0.000 A 
ATOM     22  C   UNL     1       2.072   7.325  19.865  0.00  0.00    +0.000 A 
ATOM     23  N   UNL     1       2.603   6.069  20.005  0.00  0.00    +0.000 N 
ATOM     24  H   UNL     1       2.624   5.508  20.843  0.00  0.00    +0.000 HD
ENDBRANCH  14  15
ENDBRANCH  13  14
ENDBRANCH   2  13
TORSDOF 6
ENDMDL
MODEL 9
REMARK VINA RESULT:      -7.5      0.852      1.551
REMARK  Name = 
REMARK  6 active torsions:
REMARK  status: ('A' for Active; 'I' for Inactive)
REMARK    1  A    between atoms: C_2  and  C_3
REMARK    2  A    between atoms: C_2  and  C_14
REMARK    3  A    between atoms: C_3  and  S_4
REMARK    4  A    between atoms: S_4  and  C_5
REMARK    5  A    between atoms: C_17  and  O_18
REMARK    6  A    between atoms: C_19  and  O_20
REMARK                            x       y       z     vdW  Elec       q    Type
REMARK                         _______ _______ _______ _____ _____    ______ ____
ROOT
ATOM      1  O   UNL     1       4.155   6.603  17.881  0.00  0.00    +0.000 OA
ATOM      2  C   UNL     1       4.459   5.460  18.218  0.00  0.00    +0.000 C 
ENDROOT
BRANCH   2   3
ATOM      3  C   UNL     1       3.359   4.467  18.375  0.00  0.00    +0.000 A 
ATOM      4  C   UNL     1       3.355   3.340  17.533  0.00  0.00    +0.000 A 
ATOM      5  C   UNL     1       2.347   2.376  17.630  0.00  0.00    +0.000 A 
ATOM      6  C   UNL     1       1.349   2.544  18.580  0.00  0.00    +0.000 A 
ATOM      7  C   UNL     1       1.359   3.653  19.424  0.00  0.00    +0.000 A 
ATOM      8  C   UNL     1       2.354   4.619  19.334  0.00  0.00    +0.000 A 
BRANCH   6   9
ATOM      9  O   UNL     1       0.335   1.640  18.730  0.00  0.00    +0.000 OA
ATOM     10  H   UNL     1      -0.128   1.556  17.879  0.00  0.00    +0.000 HD
ENDBRANCH   6   9
BRANCH   7  11
ATOM     11  O   UNL     1       0.376   3.800  20.363  0.00  0.00    +0.000 OA
ATOM     12  H   UNL     1       0.765   3.443  21.187  0.00  0.00    +0.000 HD
ENDBRANCH   7  11
ENDBRANCH   2   3
BRANCH   2  13
ATOM     13  C   UNL     1       5.888   4.997  18.458  0.00  0.00    +0.000 C 
BRANCH  13  14
ATOM     14  S   UNL     1       7.061   6.082  17.586  0.00  0.00    +0.000 S 
BRANCH  14  15
ATOM     15  C   UNL     1       6.910   5.486  15.978  0.00  0.00    +0.000 A 
ATOM     16  N   UNL     1       7.749   5.631  14.983  0.00  0.00    +0.000 NA
ATOM     17  C   UNL     1       7.188   4.916  13.950  0.00  0.00    +0.000 A 
ATOM     18  C   UNL     1       7.661   4.694  12.649  0.00  0.00    +0.000 A 
ATOM     19  C   UNL     1       6.906   3.888  11.785  0.00  0.00    +0.000 A 
ATOM     20  C   UNL     1       5.697   3.325  12.204  0.00  0.00    +0.000 A 
ATOM     21  C   UNL     1       5.198   3.547  13.493  0.00  0.00    +0.000 A 
ATOM     22  C   UNL     1       5.977   4.344  14.335  0.00  0.00    +0.000 A 
ATOM     23  N   UNL     1       5.819   4.745  15.637  0.00  0.00    +0.000 N 
ATOM     24  H   UNL     1       5.057   4.512  16.255  0.00  0.00    +0.000 HD
ENDBRANCH  14  15
ENDBRANCH  13  14
ENDBRANCH   2  13
TORSDOF 6
ENDMDL
