MODEL 1
REMARK VINA RESULT:      -8.0      0.000      0.000
REMARK  Name = 
REMARK  4 active torsions:
REMARK  status: ('A' for Active; 'I' for Inactive)
REMARK    1  A    between atoms: C_2  and  O_3
REMARK    2  A    between atoms: C_2  and  C_4
REMARK    3  A    between atoms: C_10  and  C_11
REMARK    4  A    between atoms: N_13  and  C_14
REMARK                            x       y       z     vdW  Elec       q    Type
REMARK                         _______ _______ _______ _____ _____    ______ ____
ROOT
ATOM      1  C   UNL     1       2.698   6.482  19.544  0.00  0.00    +0.000 C 
ATOM      2  O   UNL     1       3.272   6.789  18.498  0.00  0.00    +0.000 OA
ATOM      3  N   UNL     1       1.831   7.285  20.256  0.00  0.00    +0.000 N 
ATOM      4  H   UNL     1       1.508   6.973  21.178  0.00  0.00    +0.000 HD
ENDROOT
BRANCH   3   5
ATOM      5  C   UNL     1       1.427   8.615  19.928  0.00  0.00    +0.000 A 
ATOM      6  C   UNL     1       1.725   9.195  18.688  0.00  0.00    +0.000 A 
ATOM      7  C   UNL     1       1.368  10.510  18.410  0.00  0.00    +0.000 A 
ATOM      8  C   UNL     1       0.706  11.262  19.369  0.00  0.00    +0.000 A 
ATOM      9  C   UNL     1       0.368  10.688  20.601  0.00  0.00    +0.000 A 
ATOM     10  C   UNL     1      -0.307  11.443  21.566  0.00  0.00    +0.000 A 
ATOM     11  C   UNL     1      -0.651  10.864  22.777  0.00  0.00    +0.000 A 
ATOM     12  C   UNL     1      -0.302   9.540  22.982  0.00  0.00    +0.000 A 
ATOM     13  N   UNL     1       0.372   8.781  22.083  0.00  0.00    +0.000 NA
ATOM     14  C   UNL     1       0.710   9.343  20.899  0.00  0.00    +0.000 A 
ENDBRANCH   3   5
BRANCH   1  21
ATOM     15  C   UNL     1       2.914   4.045  18.914  0.00  0.00    +0.000 C 
ATOM     16  C   UNL     1       1.788   3.094  19.351  0.00  0.00    +0.000 C 
ATOM     17  C   UNL     1       2.078   2.270  20.608  0.00  0.00    +0.000 C 
ATOM     18  C   UNL     1       2.138   3.339  21.696  0.00  0.00    +0.000 C 
ATOM     19  C   UNL     1       1.738   4.597  20.925  0.00  0.00    +0.000 C 
ATOM     20  O   UNL     1       0.849   4.057  19.917  0.00  0.00    +0.000 OA
ATOM     21  C   UNL     1       2.902   5.067  20.058  0.00  0.00    +0.000 C 
BRANCH  15  23
ATOM     22  O   UNL     1       5.236   3.556  19.405  0.00  0.00    +0.000 OA
ATOM     23  C   UNL     1       4.247   3.369  18.714  0.00  0.00    +0.000 C 
BRANCH  23  24
ATOM     24  O   UNL     1       4.242   2.450  17.721  0.00  0.00    +0.000 OA
ATOM     25  H   UNL     1       4.517   2.765  16.836  0.00  0.00    +0.000 HD
ENDBRANCH  23  24
ENDBRANCH  15  23
ENDBRANCH   1  21
TORSDOF 4
ENDMDL
MODEL 2
REMARK VINA RESULT:      -7.8      2.872      7.158
REMARK  Name = 
REMARK  4 active torsions:
REMARK  status: ('A' for Active; 'I' for Inactive)
REMARK    1  A    between atoms: C_2  and  O_3
REMARK    2  A    between atoms: C_2  and  C_4
REMARK    3  A    between atoms: C_10  and  C_11
REMARK    4  A    between atoms: N_13  and  C_14
REMARK                            x       y       z     vdW  Elec       q    Type
REMARK                         _______ _______ _______ _____ _____    ______ ____
ROOT
ATOM      1  C   UNL     1       1.904   7.418  20.002  0.00  0.00    +0.000 C 
ATOM      2  O   UNL     1       1.566   6.539  20.795  0.00  0.00    +0.000 OA
ATOM      3  N   UNL     1       2.461   7.212  18.756  0.00  0.00    +0.000 N 
ATOM      4  H   UNL     1       2.818   8.018  18.232  0.00  0.00    +0.000 HD
ENDROOT
BRANCH   3   5
ATOM      5  C   UNL     1       2.750   5.956  18.141  0.00  0.00    +0.000 A 
ATOM      6  C   UNL     1       1.826   4.902  18.141  0.00  0.00    +0.000 A 
ATOM      7  C   UNL     1       2.149   3.669  17.584  0.00  0.00    +0.000 A 
ATOM      8  C   UNL     1       3.400   3.476  17.017  0.00  0.00    +0.000 A 
ATOM      9  C   UNL     1       4.323   4.529  16.975  0.00  0.00    +0.000 A 
ATOM     10  C   UNL     1       5.582   4.337  16.397  0.00  0.00    +0.000 A 
ATOM     11  C   UNL     1       6.484   5.387  16.347  0.00  0.00    +0.000 A 
ATOM     12  C   UNL     1       6.092   6.601  16.885  0.00  0.00    +0.000 A 
ATOM     13  N   UNL     1       4.892   6.822  17.476  0.00  0.00    +0.000 NA
ATOM     14  C   UNL     1       4.008   5.799  17.526  0.00  0.00    +0.000 A 
ENDBRANCH   3   5
BRANCH   1  21
ATOM     15  C   UNL     1       0.468   8.947  21.409  0.00  0.00    +0.000 C 
ATOM     16  C   UNL     1      -0.505   9.884  20.676  0.00  0.00    +0.000 C 
ATOM     17  C   UNL     1      -0.023  11.327  20.508  0.00  0.00    +0.000 C 
ATOM     18  C   UNL     1       1.164  11.171  19.563  0.00  0.00    +0.000 C 
ATOM     19  C   UNL     1       1.101   9.682  19.220  0.00  0.00    +0.000 C 
ATOM     20  O   UNL     1      -0.322   9.419  19.306  0.00  0.00    +0.000 OA
ATOM     21  C   UNL     1       1.615   8.856  20.396  0.00  0.00    +0.000 C 
BRANCH  15  23
ATOM     22  O   UNL     1       0.129   9.819  23.645  0.00  0.00    +0.000 OA
ATOM     23  C   UNL     1       0.892   9.442  22.769  0.00  0.00    +0.000 C 
BRANCH  23  24
ATOM     24  O   UNL     1       2.226   9.364  22.980  0.00  0.00    +0.000 OA
ATOM     25  H   UNL     1       2.780   9.184  22.194  0.00  0.00    +0.000 HD
ENDBRANCH  23  24
ENDBRANCH  15  23
ENDBRANCH   1  21
TORSDOF 4
ENDMDL
MODEL 3
REMARK VINA RESULT:      -7.7      2.774      6.824
REMARK  Name = 
REMARK  4 active torsions:
REMARK  status: ('A' for Active; 'I' for Inactive)
REMARK    1  A    between atoms: C_2  and  O_3
REMARK    2  A    between atoms: C_2  and  C_4
REMARK    3  A    between atoms: C_10  and  C_11
REMARK    4  A    between atoms: N_13  and  C_14
REMARK                            x       y       z     vdW  Elec       q    Type
REMARK                         _______ _______ _______ _____ _____    ______ ____
ROOT
ATOM      1  C   UNL     1       2.075   8.516  18.455  0.00  0.00    +0.000 C 
ATOM      2  O   UNL     1       2.132   8.850  17.272  0.00  0.00    +0.000 OA
ATOM      3  N   UNL     1       2.511   7.314  18.977  0.00  0.00    +0.000 N 
ATOM      4  H   UNL     1       2.302   7.093  19.957  0.00  0.00    +0.000 HD
ENDROOT
BRANCH   3   5
ATOM      5  C   UNL     1       3.108   6.232  18.261  0.00  0.00    +0.000 A 
ATOM      6  C   UNL     1       4.206   6.423  17.413  0.00  0.00    +0.000 A 
ATOM      7  C   UNL     1       4.738   5.365  16.683  0.00  0.00    +0.000 A 
ATOM      8  C   UNL     1       4.179   4.101  16.795  0.00  0.00    +0.000 A 
ATOM      9  C   UNL     1       3.103   3.884  17.666  0.00  0.00    +0.000 A 
ATOM     10  C   UNL     1       2.543   2.607  17.786  0.00  0.00    +0.000 A 
ATOM     11  C   UNL     1       1.489   2.397  18.660  0.00  0.00    +0.000 A 
ATOM     12  C   UNL     1       1.027   3.481  19.386  0.00  0.00    +0.000 A 
ATOM     13  N   UNL     1       1.525   4.738  19.282  0.00  0.00    +0.000 NA
ATOM     14  C   UNL     1       2.555   4.947  18.430  0.00  0.00    +0.000 A 
ENDBRANCH   3   5
BRANCH   1  21
ATOM     15  C   UNL     1       0.268   9.064  20.133  0.00  0.00    +0.000 C 
ATOM     16  C   UNL     1      -0.700  10.206  19.788  0.00  0.00    +0.000 C 
ATOM     17  C   UNL     1      -0.388  11.552  20.447  0.00  0.00    +0.000 C 
ATOM     18  C   UNL     1       0.933  11.941  19.791  0.00  0.00    +0.000 C 
ATOM     19  C   UNL     1       1.111  10.831  18.754  0.00  0.00    +0.000 C 
ATOM     20  O   UNL     1      -0.264  10.507  18.429  0.00  0.00    +0.000 OA
ATOM     21  C   UNL     1       1.552   9.543  19.443  0.00  0.00    +0.000 C 
BRANCH  15  23
ATOM     22  O   UNL     1      -0.486   8.834  22.424  0.00  0.00    +0.000 OA
ATOM     23  C   UNL     1       0.426   8.816  21.612  0.00  0.00    +0.000 C 
BRANCH  23  24
ATOM     24  O   UNL     1       1.687   8.487  21.973  0.00  0.00    +0.000 OA
ATOM     25  H   UNL     1       1.782   7.971  22.798  0.00  0.00    +0.000 HD
ENDBRANCH  23  24
ENDBRANCH  15  23
ENDBRANCH   1  21
TORSDOF 4
ENDMDL
MODEL 4
REMARK VINA RESULT:      -7.7      2.694      6.728
REMARK  Name = 
REMARK  4 active torsions:
REMARK  status: ('A' for Active; 'I' for Inactive)
REMARK    1  A    between atoms: C_2  and  O_3
REMARK    2  A    between atoms: C_2  and  C_4
REMARK    3  A    between atoms: C_10  and  C_11
REMARK    4  A    between atoms: N_13  and  C_14
REMARK                            x       y       z     vdW  Elec       q    Type
REMARK                         _______ _______ _______ _____ _____    ______ ____
ROOT
ATOM      1  C   UNL     1       1.602   8.788  19.072  0.00  0.00    +0.000 C 
ATOM      2  O   UNL     1       1.332   8.954  17.882  0.00  0.00    +0.000 OA
ATOM      3  N   UNL     1       2.267   7.701  19.605  0.00  0.00    +0.000 N 
ATOM      4  H   UNL     1       2.328   7.609  20.625  0.00  0.00    +0.000 HD
ENDROOT
BRANCH   3   5
ATOM      5  C   UNL     1       2.770   6.569  18.896  0.00  0.00    +0.000 A 
ATOM      6  C   UNL     1       3.705   6.701  17.860  0.00  0.00    +0.000 A 
ATOM      7  C   UNL     1       4.142   5.589  17.146  0.00  0.00    +0.000 A 
ATOM      8  C   UNL     1       3.650   4.332  17.461  0.00  0.00    +0.000 A 
ATOM      9  C   UNL     1       2.742   4.176  18.517  0.00  0.00    +0.000 A 
ATOM     10  C   UNL     1       2.251   2.907  18.840  0.00  0.00    +0.000 A 
ATOM     11  C   UNL     1       1.365   2.760  19.895  0.00  0.00    +0.000 A 
ATOM     12  C   UNL     1       0.995   3.897  20.591  0.00  0.00    +0.000 A 
ATOM     13  N   UNL     1       1.429   5.147  20.296  0.00  0.00    +0.000 NA
ATOM     14  C   UNL     1       2.295   5.296  19.266  0.00  0.00    +0.000 A 
ENDBRANCH   3   5
BRANCH   1  21
ATOM     15  C   UNL     1       0.295   9.427  21.136  0.00  0.00    +0.000 C 
ATOM     16  C   UNL     1      -0.888  10.393  20.959  0.00  0.00    +0.000 C 
ATOM     17  C   UNL     1      -0.598  11.854  21.309  0.00  0.00    +0.000 C 
ATOM     18  C   UNL     1       0.406  12.258  20.234  0.00  0.00    +0.000 C 
ATOM     19  C   UNL     1       0.438  11.013  19.347  0.00  0.00    +0.000 C 
ATOM     20  O   UNL     1      -0.910  10.503  19.505  0.00  0.00    +0.000 OA
ATOM     21  C   UNL     1       1.241   9.909  20.030  0.00  0.00    +0.000 C 
BRANCH  15  23
ATOM     22  O   UNL     1       0.291   9.661  23.548  0.00  0.00    +0.000 OA
ATOM     23  C   UNL     1       0.906   9.449  22.514  0.00  0.00    +0.000 C 
BRANCH  23  24
ATOM     24  O   UNL     1       2.221   9.131  22.527  0.00  0.00    +0.000 OA
ATOM     25  H   UNL     1       2.688   9.247  23.379  0.00  0.00    +0.000 HD
ENDBRANCH  23  24
ENDBRANCH  15  23
ENDBRANCH   1  21
TORSDOF 4
ENDMDL
MODEL 5
REMARK VINA RESULT:      -7.7      1.177      1.355
REMARK  Name = 
REMARK  4 active torsions:
REMARK  status: ('A' for Active; 'I' for Inactive)
REMARK    1  A    between atoms: C_2  and  O_3
REMARK    2  A    between atoms: C_2  and  C_4
REMARK    3  A    between atoms: C_10  and  C_11
REMARK    4  A    between atoms: N_13  and  C_14
REMARK                            x       y       z     vdW  Elec       q    Type
REMARK                         _______ _______ _______ _____ _____    ______ ____
ROOT
ATOM      1  C   UNL     1       2.852   6.675  18.592  0.00  0.00    +0.000 C 
ATOM      2  O   UNL     1       3.508   7.186  17.683  0.00  0.00    +0.000 OA
ATOM      3  N   UNL     1       1.943   7.330  19.399  0.00  0.00    +0.000 N 
ATOM      4  H   UNL     1       1.546   6.833  20.203  0.00  0.00    +0.000 HD
ENDROOT
BRANCH   3   5
ATOM      5  C   UNL     1       1.582   8.710  19.342  0.00  0.00    +0.000 A 
ATOM      6  C   UNL     1       1.897   9.513  18.238  0.00  0.00    +0.000 A 
ATOM      7  C   UNL     1       1.584  10.868  18.226  0.00  0.00    +0.000 A 
ATOM      8  C   UNL     1       0.948  11.437  19.319  0.00  0.00    +0.000 A 
ATOM      9  C   UNL     1       0.592  10.643  20.417  0.00  0.00    +0.000 A 
ATOM     10  C   UNL     1      -0.056  11.214  21.517  0.00  0.00    +0.000 A 
ATOM     11  C   UNL     1      -0.417  10.419  22.593  0.00  0.00    +0.000 A 
ATOM     12  C   UNL     1      -0.111   9.071  22.531  0.00  0.00    +0.000 A 
ATOM     13  N   UNL     1       0.537   8.482  21.495  0.00  0.00    +0.000 NA
ATOM     14  C   UNL     1       0.891   9.255  20.442  0.00  0.00    +0.000 A 
ENDBRANCH   3   5
BRANCH   1  21
ATOM     15  C   UNL     1       3.674   4.504  17.595  0.00  0.00    +0.000 C 
ATOM     16  C   UNL     1       2.620   3.455  17.209  0.00  0.00    +0.000 C 
ATOM     17  C   UNL     1       2.419   2.325  18.222  0.00  0.00    +0.000 C 
ATOM     18  C   UNL     1       1.826   3.058  19.420  0.00  0.00    +0.000 C 
ATOM     19  C   UNL     1       1.646   4.473  18.868  0.00  0.00    +0.000 C 
ATOM     20  O   UNL     1       1.401   4.213  17.464  0.00  0.00    +0.000 OA
ATOM     21  C   UNL     1       2.998   5.178  18.796  0.00  0.00    +0.000 C 
BRANCH  15  23
ATOM     22  O   UNL     1       5.525   3.859  19.019  0.00  0.00    +0.000 OA
ATOM     23  C   UNL     1       5.032   3.928  17.904  0.00  0.00    +0.000 C 
BRANCH  23  24
ATOM     24  O   UNL     1       5.655   3.405  16.822  0.00  0.00    +0.000 OA
ATOM     25  H   UNL     1       6.198   4.022  16.293  0.00  0.00    +0.000 HD
ENDBRANCH  23  24
ENDBRANCH  15  23
ENDBRANCH   1  21
TORSDOF 4
ENDMDL
MODEL 6
REMARK VINA RESULT:      -7.4      2.363      7.049
REMARK  Name = 
REMARK  4 active torsions:
REMARK  status: ('A' for Active; 'I' for Inactive)
REMARK    1  A    between atoms: C_2  and  O_3
REMARK    2  A    between atoms: C_2  and  C_4
REMARK    3  A    between atoms: C_10  and  C_11
REMARK    4  A    between atoms: N_13  and  C_14
REMARK                            x       y       z     vdW  Elec       q    Type
REMARK                         _______ _______ _______ _____ _____    ______ ____
ROOT
ATOM      1  C   UNL     1       1.644   7.736  19.721  0.00  0.00    +0.000 C 
ATOM      2  O   UNL     1       1.725   7.645  18.496  0.00  0.00    +0.000 OA
ATOM      3  N   UNL     1       1.744   6.691  20.618  0.00  0.00    +0.000 N 
ATOM      4  H   UNL     1       1.538   6.865  21.608  0.00  0.00    +0.000 HD
ENDROOT
BRANCH   3   5
ATOM      5  C   UNL     1       1.961   5.314  20.311  0.00  0.00    +0.000 A 
ATOM      6  C   UNL     1       0.972   4.344  20.519  0.00  0.00    +0.000 A 
ATOM      7  C   UNL     1       1.224   3.000  20.264  0.00  0.00    +0.000 A 
ATOM      8  C   UNL     1       2.468   2.610  19.794  0.00  0.00    +0.000 A 
ATOM      9  C   UNL     1       3.458   3.569  19.546  0.00  0.00    +0.000 A 
ATOM     10  C   UNL     1       4.712   3.178  19.064  0.00  0.00    +0.000 A 
ATOM     11  C   UNL     1       5.681   4.134  18.807  0.00  0.00    +0.000 A 
ATOM     12  C   UNL     1       5.359   5.459  19.047  0.00  0.00    +0.000 A 
ATOM     13  N   UNL     1       4.166   5.878  19.535  0.00  0.00    +0.000 NA
ATOM     14  C   UNL     1       3.217   4.947  19.787  0.00  0.00    +0.000 A 
ENDBRANCH   3   5
BRANCH   1  21
ATOM     15  C   UNL     1       0.393   9.185  21.370  0.00  0.00    +0.000 C 
ATOM     16  C   UNL     1      -0.513  10.289  20.802  0.00  0.00    +0.000 C 
ATOM     17  C   UNL     1       0.090  11.696  20.800  0.00  0.00    +0.000 C 
ATOM     18  C   UNL     1       1.229  11.563  19.793  0.00  0.00    +0.000 C 
ATOM     19  C   UNL     1       1.023  10.143  19.267  0.00  0.00    +0.000 C 
ATOM     20  O   UNL     1      -0.414   9.992  19.378  0.00  0.00    +0.000 OA
ATOM     21  C   UNL     1       1.497   9.130  20.306  0.00  0.00    +0.000 C 
BRANCH  15  23
ATOM     22  O   UNL     1       0.202   9.787  23.709  0.00  0.00    +0.000 OA
ATOM     23  C   UNL     1       0.901   9.461  22.762  0.00  0.00    +0.000 C 
BRANCH  23  24
ATOM     24  O   UNL     1       2.228   9.240  22.907  0.00  0.00    +0.000 OA
ATOM     25  H   UNL     1       2.767  10.004  23.195  0.00  0.00    +0.000 HD
ENDBRANCH  23  24
ENDBRANCH  15  23
ENDBRANCH   1  21
TORSDOF 4
ENDMDL
MODEL 7
REMARK VINA RESULT:      -7.3      1.068      2.266
REMARK  Name = 
REMARK  4 active torsions:
REMARK  status: ('A' for Active; 'I' for Inactive)
REMARK    1  A    between atoms: C_2  and  O_3
REMARK    2  A    between atoms: C_2  and  C_4
REMARK    3  A    between atoms: C_10  and  C_11
REMARK    4  A    between atoms: N_13  and  C_14
REMARK                            x       y       z     vdW  Elec       q    Type
REMARK                         _______ _______ _______ _____ _____    ______ ____
ROOT
ATOM      1  C   UNL     1       2.618   6.379  18.542  0.00  0.00    +0.000 C 
ATOM      2  O   UNL     1       3.474   6.800  17.764  0.00  0.00    +0.000 OA
ATOM      3  N   UNL     1       1.700   7.149  19.228  0.00  0.00    +0.000 N 
ATOM      4  H   UNL     1       1.115   6.705  19.943  0.00  0.00    +0.000 HD
ENDROOT
BRANCH   3   5
ATOM      5  C   UNL     1       1.558   8.569  19.173  0.00  0.00    +0.000 A 
ATOM      6  C   UNL     1       2.038   9.319  18.091  0.00  0.00    +0.000 A 
ATOM      7  C   UNL     1       1.937  10.707  18.083  0.00  0.00    +0.000 A 
ATOM      8  C   UNL     1       1.353  11.361  19.156  0.00  0.00    +0.000 A 
ATOM      9  C   UNL     1       0.835  10.625  20.230  0.00  0.00    +0.000 A 
ATOM     10  C   UNL     1       0.238  11.284  21.310  0.00  0.00    +0.000 A 
ATOM     11  C   UNL     1      -0.284  10.549  22.362  0.00  0.00    +0.000 A 
ATOM     12  C   UNL     1      -0.187   9.170  22.297  0.00  0.00    +0.000 A 
ATOM     13  N   UNL     1       0.404   8.494  21.281  0.00  0.00    +0.000 NA
ATOM     14  C   UNL     1       0.916   9.208  20.251  0.00  0.00    +0.000 A 
ENDBRANCH   3   5
BRANCH   1  21
ATOM     15  C   UNL     1       3.037   4.411  20.070  0.00  0.00    +0.000 C 
ATOM     16  C   UNL     1       4.112   3.398  19.646  0.00  0.00    +0.000 C 
ATOM     17  C   UNL     1       3.584   2.122  18.985  0.00  0.00    +0.000 C 
ATOM     18  C   UNL     1       2.997   2.646  17.678  0.00  0.00    +0.000 C 
ATOM     19  C   UNL     1       3.399   4.121  17.721  0.00  0.00    +0.000 C 
ATOM     20  O   UNL     1       4.641   4.068  18.464  0.00  0.00    +0.000 OA
ATOM     21  C   UNL     1       2.509   4.873  18.706  0.00  0.00    +0.000 C 
BRANCH  15  23
ATOM     22  O   UNL     1       2.181   3.365  22.081  0.00  0.00    +0.000 OA
ATOM     23  C   UNL     1       1.975   3.841  20.975  0.00  0.00    +0.000 C 
BRANCH  23  24
ATOM     24  O   UNL     1       0.721   3.968  20.483  0.00  0.00    +0.000 OA
ATOM     25  H   UNL     1      -0.010   3.791  21.107  0.00  0.00    +0.000 HD
ENDBRANCH  23  24
ENDBRANCH  15  23
ENDBRANCH   1  21
TORSDOF 4
ENDMDL
MODEL 8
REMARK VINA RESULT:      -7.3      1.481      2.557
REMARK  Name = 
REMARK  4 active torsions:
REMARK  status: ('A' for Active; 'I' for Inactive)
REMARK    1  A    between atoms: C_2  and  O_3
REMARK    2  A    between atoms: C_2  and  C_4
REMARK    3  A    between atoms: C_10  and  C_11
REMARK    4  A    between atoms: N_13  and  C_14
REMARK                            x       y       z     vdW  Elec       q    Type
REMARK                         _______ _______ _______ _____ _____    ______ ____
ROOT
ATOM      1  C   UNL     1       1.905   5.248  18.373  0.00  0.00    +0.000 C 
ATOM      2  O   UNL     1       1.126   5.328  17.423  0.00  0.00    +0.000 OA
ATOM      3  N   UNL     1       2.388   6.309  19.114  0.00  0.00    +0.000 N 
ATOM      4  H   UNL     1       3.127   6.138  19.803  0.00  0.00    +0.000 HD
ENDROOT
BRANCH   3   5
ATOM      5  C   UNL     1       2.082   7.692  18.932  0.00  0.00    +0.000 A 
ATOM      6  C   UNL     1       2.427   8.379  17.761  0.00  0.00    +0.000 A 
ATOM      7  C   UNL     1       2.169   9.739  17.628  0.00  0.00    +0.000 A 
ATOM      8  C   UNL     1       1.558  10.429  18.664  0.00  0.00    +0.000 A 
ATOM      9  C   UNL     1       1.173   9.752  19.828  0.00  0.00    +0.000 A 
ATOM     10  C   UNL     1       0.550  10.445  20.871  0.00  0.00    +0.000 A 
ATOM     11  C   UNL     1       0.159   9.765  22.013  0.00  0.00    +0.000 A 
ATOM     12  C   UNL     1       0.411   8.405  22.073  0.00  0.00    +0.000 A 
ATOM     13  N   UNL     1       1.033   7.701  21.096  0.00  0.00    +0.000 NA
ATOM     14  C   UNL     1       1.416   8.361  19.978  0.00  0.00    +0.000 A 
ENDBRANCH   3   5
BRANCH   1  21
ATOM     15  C   UNL     1       2.898   3.866  20.240  0.00  0.00    +0.000 C 
ATOM     16  C   UNL     1       4.278   3.233  20.001  0.00  0.00    +0.000 C 
ATOM     17  C   UNL     1       4.260   1.756  19.602  0.00  0.00    +0.000 C 
ATOM     18  C   UNL     1       3.599   1.794  18.227  0.00  0.00    +0.000 C 
ATOM     19  C   UNL     1       3.462   3.297  17.984  0.00  0.00    +0.000 C 
ATOM     20  O   UNL     1       4.605   3.819  18.706  0.00  0.00    +0.000 OA
ATOM     21  C   UNL     1       2.315   3.856  18.821  0.00  0.00    +0.000 C 
BRANCH  15  23
ATOM     22  O   UNL     1       2.444   2.750  22.342  0.00  0.00    +0.000 OA
ATOM     23  C   UNL     1       2.052   3.135  21.252  0.00  0.00    +0.000 C 
BRANCH  23  24
ATOM     24  O   UNL     1       0.759   3.000  20.878  0.00  0.00    +0.000 OA
ATOM     25  H   UNL     1       0.386   3.722  20.334  0.00  0.00    +0.000 HD
ENDBRANCH  23  24
ENDBRANCH  15  23
ENDBRANCH   1  21
TORSDOF 4
ENDMDL
MODEL 9
REMARK VINA RESULT:      -7.3      1.475      2.670
REMARK  Name = 
REMARK  4 active torsions:
REMARK  status: ('A' for Active; 'I' for Inactive)
REMARK    1  A    between atoms: C_2  and  O_3
REMARK    2  A    between atoms: C_2  and  C_4
REMARK    3  A    between atoms: C_10  and  C_11
REMARK    4  A    between atoms: N_13  and  C_14
REMARK                            x       y       z     vdW  Elec       q    Type
REMARK                         _______ _______ _______ _____ _____    ______ ____
ROOT
ATOM      1  C   UNL     1       2.378   7.714  18.272  0.00  0.00    +0.000 C 
ATOM      2  O   UNL     1       2.779   8.383  17.319  0.00  0.00    +0.000 OA
ATOM      3  N   UNL     1       1.616   8.182  19.324  0.00  0.00    +0.000 N 
ATOM      4  H   UNL     1       1.443   7.566  20.125  0.00  0.00    +0.000 HD
ENDROOT
BRANCH   3   5
ATOM      5  C   UNL     1       1.143   9.516  19.515  0.00  0.00    +0.000 A 
ATOM      6  C   UNL     1       1.342  10.517  18.555  0.00  0.00    +0.000 A 
ATOM      7  C   UNL     1       0.920  11.823  18.785  0.00  0.00    +0.000 A 
ATOM      8  C   UNL     1       0.292  12.143  19.979  0.00  0.00    +0.000 A 
ATOM      9  C   UNL     1       0.053  11.148  20.936  0.00  0.00    +0.000 A 
ATOM     10  C   UNL     1      -0.588  11.469  22.137  0.00  0.00    +0.000 A 
ATOM     11  C   UNL     1      -0.834  10.477  23.073  0.00  0.00    +0.000 A 
ATOM     12  C   UNL     1      -0.424   9.190  22.772  0.00  0.00    +0.000 A 
ATOM     13  N   UNL     1       0.220   8.841  21.631  0.00  0.00    +0.000 NA
ATOM     14  C   UNL     1       0.463   9.807  20.714  0.00  0.00    +0.000 A 
ENDBRANCH   3   5
BRANCH   1  21
ATOM     15  C   UNL     1       3.045   5.705  19.651  0.00  0.00    +0.000 C 
ATOM     16  C   UNL     1       4.429   5.090  19.389  0.00  0.00    +0.000 C 
ATOM     17  C   UNL     1       4.435   3.845  18.499  0.00  0.00    +0.000 C 
ATOM     18  C   UNL     1       3.989   4.402  17.151  0.00  0.00    +0.000 C 
ATOM     19  C   UNL     1       3.927   5.904  17.433  0.00  0.00    +0.000 C 
ATOM     20  O   UNL     1       4.961   6.058  18.437  0.00  0.00    +0.000 OA
ATOM     21  C   UNL     1       2.682   6.227  18.254  0.00  0.00    +0.000 C 
BRANCH  15  23
ATOM     22  O   UNL     1       1.088   4.276  19.608  0.00  0.00    +0.000 OA
ATOM     23  C   UNL     1       2.039   4.737  20.221  0.00  0.00    +0.000 C 
BRANCH  23  24
ATOM     24  O   UNL     1       2.323   4.346  21.485  0.00  0.00    +0.000 OA
ATOM     25  H   UNL     1       3.184   4.636  21.846  0.00  0.00    +0.000 HD
ENDBRANCH  23  24
ENDBRANCH  15  23
ENDBRANCH   1  21
TORSDOF 4
ENDMDL
