MODEL 1
REMARK VINA RESULT:      -7.8      0.000      0.000
REMARK  Name = 
REMARK  2 active torsions:
REMARK  status: ('A' for Active; 'I' for Inactive)
REMARK    1  A    between atoms: C_2  and  C_9
REMARK    2  A    between atoms: N_3  and  C_4
REMARK                            x       y       z     vdW  Elec       q    Type
REMARK                         _______ _______ _______ _____ _____    ______ ____
ROOT
ATOM      1  C   UNL     1       4.664   5.114  17.323  0.00  0.00    +0.000 A 
ATOM      2  C   UNL     1       4.042   6.367  17.298  0.00  0.00    +0.000 A 
ATOM      3  C   UNL     1       3.175   6.492  18.421  0.00  0.00    +0.000 A 
ATOM      4  C   UNL     1       2.351   7.468  19.004  0.00  0.00    +0.000 A 
ATOM      5 CL   UNL     1       2.268   8.974  18.209  0.00  0.00    +0.000 Cl
ATOM      6  C   UNL     1       1.672   7.208  20.203  0.00  0.00    +0.000 A 
ATOM      7  C   UNL     1       1.787   5.956  20.823  0.00  0.00    +0.000 A 
ATOM      8  C   UNL     1       2.559   4.958  20.237  0.00  0.00    +0.000 A 
ATOM      9  C   UNL     1       3.238   5.275  19.068  0.00  0.00    +0.000 A 
ATOM     10  N   UNL     1       4.101   4.457  18.390  0.00  0.00    +0.000 N 
ATOM     11  C   UNL     1       4.345   3.145  18.972  0.00  0.00    +0.000 C 
ATOM     12  C   UNL     1       3.133   2.732  19.845  0.00  0.00    +0.000 C 
ATOM     13  O   UNL     1       2.717   3.723  20.819  0.00  0.00    +0.000 OA
ENDROOT
BRANCH   1  15
ATOM     14  O   UNL     1       6.834   4.337  16.840  0.00  0.00    +0.000 OA
ATOM     15  C   UNL     1       5.691   4.569  16.456  0.00  0.00    +0.000 C 
ATOM     16  N   UNL     1       5.294   4.349  15.151  0.00  0.00    +0.000 N 
ATOM     17  H   UNL     1       4.413   4.733  14.846  0.00  0.00    +0.000 HD
BRANCH  16  18
ATOM     18  C   UNL     1       6.231   3.924  14.137  0.00  0.00    +0.000 C 
ATOM     19  C   UNL     1       5.561   3.429  12.862  0.00  0.00    +0.000 C 
ATOM     20  C   UNL     1       6.700   3.435  11.849  0.00  0.00    +0.000 C 
ATOM     21  C   UNL     1       7.640   4.561  12.287  0.00  0.00    +0.000 C 
ATOM     22  C   UNL     1       7.100   5.069  13.622  0.00  0.00    +0.000 C 
ENDBRANCH  16  18
ENDBRANCH   1  15
TORSDOF 2
ENDMDL
MODEL 2
REMARK VINA RESULT:      -7.7      0.924      1.003
REMARK  Name = 
REMARK  2 active torsions:
REMARK  status: ('A' for Active; 'I' for Inactive)
REMARK    1  A    between atoms: C_2  and  C_9
REMARK    2  A    between atoms: N_3  and  C_4
REMARK                            x       y       z     vdW  Elec       q    Type
REMARK                         _______ _______ _______ _____ _____    ______ ____
ROOT
ATOM      1  C   UNL     1       4.614   4.645  17.432  0.00  0.00    +0.000 A 
ATOM      2  C   UNL     1       4.045   5.874  17.782  0.00  0.00    +0.000 A 
ATOM      3  C   UNL     1       3.041   5.670  18.771  0.00  0.00    +0.000 A 
ATOM      4  C   UNL     1       2.180   6.445  19.565  0.00  0.00    +0.000 A 
ATOM      5 CL   UNL     1       2.255   8.134  19.350  0.00  0.00    +0.000 Cl
ATOM      6  C   UNL     1       1.339   5.840  20.509  0.00  0.00    +0.000 A 
ATOM      7  C   UNL     1       1.327   4.446  20.656  0.00  0.00    +0.000 A 
ATOM      8  C   UNL     1       2.136   3.655  19.846  0.00  0.00    +0.000 A 
ATOM      9  C   UNL     1       2.976   4.303  18.949  0.00  0.00    +0.000 A 
ATOM     10  N   UNL     1       3.892   3.705  18.127  0.00  0.00    +0.000 N 
ATOM     11  C   UNL     1       4.012   2.258  18.231  0.00  0.00    +0.000 C 
ATOM     12  C   UNL     1       2.682   1.665  18.759  0.00  0.00    +0.000 C 
ATOM     13  O   UNL     1       2.174   2.287  19.968  0.00  0.00    +0.000 OA
ENDROOT
BRANCH   1  15
ATOM     14  O   UNL     1       6.894   4.323  16.936  0.00  0.00    +0.000 OA
ATOM     15  C   UNL     1       5.729   4.354  16.550  0.00  0.00    +0.000 C 
ATOM     16  N   UNL     1       5.385   4.137  15.230  0.00  0.00    +0.000 N 
ATOM     17  H   UNL     1       4.447   4.364  14.935  0.00  0.00    +0.000 HD
BRANCH  16  18
ATOM     18  C   UNL     1       6.388   3.957  14.206  0.00  0.00    +0.000 C 
ATOM     19  C   UNL     1       5.810   3.562  12.854  0.00  0.00    +0.000 C 
ATOM     20  C   UNL     1       6.963   3.828  11.894  0.00  0.00    +0.000 C 
ATOM     21  C   UNL     1       7.757   4.984  12.509  0.00  0.00    +0.000 C 
ATOM     22  C   UNL     1       7.131   5.249  13.876  0.00  0.00    +0.000 C 
ENDBRANCH  16  18
ENDBRANCH   1  15
TORSDOF 2
ENDMDL
MODEL 3
REMARK VINA RESULT:      -7.4      2.044      2.839
REMARK  Name = 
REMARK  2 active torsions:
REMARK  status: ('A' for Active; 'I' for Inactive)
REMARK    1  A    between atoms: C_2  and  C_9
REMARK    2  A    between atoms: N_3  and  C_4
REMARK                            x       y       z     vdW  Elec       q    Type
REMARK                         _______ _______ _______ _____ _____    ______ ____
ROOT
ATOM      1  C   UNL     1       5.254   4.506  17.775  0.00  0.00    +0.000 A 
ATOM      2  C   UNL     1       4.888   3.669  18.834  0.00  0.00    +0.000 A 
ATOM      3  C   UNL     1       3.761   4.219  19.509  0.00  0.00    +0.000 A 
ATOM      4  C   UNL     1       2.894   3.867  20.557  0.00  0.00    +0.000 A 
ATOM      5 CL   UNL     1       3.198   2.382  21.336  0.00  0.00    +0.000 Cl
ATOM      6  C   UNL     1       1.815   4.694  20.899  0.00  0.00    +0.000 A 
ATOM      7  C   UNL     1       1.601   5.899  20.215  0.00  0.00    +0.000 A 
ATOM      8  C   UNL     1       2.477   6.290  19.207  0.00  0.00    +0.000 A 
ATOM      9  C   UNL     1       3.511   5.422  18.882  0.00  0.00    +0.000 A 
ATOM     10  N   UNL     1       4.422   5.595  17.875  0.00  0.00    +0.000 N 
ATOM     11  C   UNL     1       4.266   6.788  17.056  0.00  0.00    +0.000 C 
ATOM     12  C   UNL     1       3.532   7.883  17.869  0.00  0.00    +0.000 C 
ATOM     13  O   UNL     1       2.295   7.452  18.496  0.00  0.00    +0.000 OA
ENDROOT
BRANCH   1  15
ATOM     14  O   UNL     1       7.469   4.425  16.979  0.00  0.00    +0.000 OA
ATOM     15  C   UNL     1       6.267   4.323  16.752  0.00  0.00    +0.000 C 
ATOM     16  N   UNL     1       5.776   4.048  15.490  0.00  0.00    +0.000 N 
ATOM     17  H   UNL     1       4.788   4.166  15.323  0.00  0.00    +0.000 HD
BRANCH  16  18
ATOM     18  C   UNL     1       6.648   3.960  14.342  0.00  0.00    +0.000 C 
ATOM     19  C   UNL     1       5.926   3.562  13.061  0.00  0.00    +0.000 C 
ATOM     20  C   UNL     1       6.928   3.927  11.973  0.00  0.00    +0.000 C 
ATOM     21  C   UNL     1       7.720   5.117  12.520  0.00  0.00    +0.000 C 
ATOM     22  C   UNL     1       7.261   5.305  13.963  0.00  0.00    +0.000 C 
ENDBRANCH  16  18
ENDBRANCH   1  15
TORSDOF 2
ENDMDL
MODEL 4
REMARK VINA RESULT:      -7.3      3.233      6.869
REMARK  Name = 
REMARK  2 active torsions:
REMARK  status: ('A' for Active; 'I' for Inactive)
REMARK    1  A    between atoms: C_2  and  C_9
REMARK    2  A    between atoms: N_3  and  C_4
REMARK                            x       y       z     vdW  Elec       q    Type
REMARK                         _______ _______ _______ _____ _____    ______ ____
ROOT
ATOM      1  C   UNL     1       2.438   7.275  19.060  0.00  0.00    +0.000 A 
ATOM      2  C   UNL     1       3.323   7.235  17.977  0.00  0.00    +0.000 A 
ATOM      3  C   UNL     1       3.735   5.891  17.747  0.00  0.00    +0.000 A 
ATOM      4  C   UNL     1       4.515   5.179  16.822  0.00  0.00    +0.000 A 
ATOM      5 CL   UNL     1       5.254   6.088  15.584  0.00  0.00    +0.000 Cl
ATOM      6  C   UNL     1       4.632   3.784  16.909  0.00  0.00    +0.000 A 
ATOM      7  C   UNL     1       3.991   3.083  17.939  0.00  0.00    +0.000 A 
ATOM      8  C   UNL     1       3.253   3.774  18.896  0.00  0.00    +0.000 A 
ATOM      9  C   UNL     1       3.139   5.150  18.747  0.00  0.00    +0.000 A 
ATOM     10  N   UNL     1       2.398   5.987  19.537  0.00  0.00    +0.000 N 
ATOM     11  C   UNL     1       1.638   5.364  20.611  0.00  0.00    +0.000 C 
ATOM     12  C   UNL     1       2.312   4.028  21.014  0.00  0.00    +0.000 C 
ATOM     13  O   UNL     1       2.590   3.127  19.911  0.00  0.00    +0.000 OA
ENDROOT
BRANCH   1  15
ATOM     14  O   UNL     1       1.510   8.550  20.808  0.00  0.00    +0.000 OA
ATOM     15  C   UNL     1       1.685   8.389  19.604  0.00  0.00    +0.000 C 
ATOM     16  N   UNL     1       1.155   9.249  18.661  0.00  0.00    +0.000 N 
ATOM     17  H   UNL     1       1.166   8.966  17.693  0.00  0.00    +0.000 HD
BRANCH  16  18
ATOM     18  C   UNL     1       0.280  10.336  19.036  0.00  0.00    +0.000 C 
ATOM     19  C   UNL     1       0.898  11.712  18.825  0.00  0.00    +0.000 C 
ATOM     20  C   UNL     1      -0.305  12.645  18.892  0.00  0.00    +0.000 C 
ATOM     21  C   UNL     1      -1.492  11.829  18.373  0.00  0.00    +0.000 C 
ATOM     22  C   UNL     1      -0.974  10.408  18.168  0.00  0.00    +0.000 C 
ENDBRANCH  16  18
ENDBRANCH   1  15
TORSDOF 2
ENDMDL
MODEL 5
REMARK VINA RESULT:      -7.2      2.205      3.237
REMARK  Name = 
REMARK  2 active torsions:
REMARK  status: ('A' for Active; 'I' for Inactive)
REMARK    1  A    between atoms: C_2  and  C_9
REMARK    2  A    between atoms: N_3  and  C_4
REMARK                            x       y       z     vdW  Elec       q    Type
REMARK                         _______ _______ _______ _____ _____    ______ ____
ROOT
ATOM      1  C   UNL     1       4.584   4.839  17.655  0.00  0.00    +0.000 A 
ATOM      2  C   UNL     1       4.924   3.663  18.332  0.00  0.00    +0.000 A 
ATOM      3  C   UNL     1       4.087   3.513  19.475  0.00  0.00    +0.000 A 
ATOM      4  C   UNL     1       3.862   2.570  20.491  0.00  0.00    +0.000 A 
ATOM      5 CL   UNL     1       4.830   1.168  20.462  0.00  0.00    +0.000 Cl
ATOM      6  C   UNL     1       2.856   2.775  21.447  0.00  0.00    +0.000 A 
ATOM      7  C   UNL     1       2.078   3.940  21.416  0.00  0.00    +0.000 A 
ATOM      8  C   UNL     1       2.317   4.911  20.448  0.00  0.00    +0.000 A 
ATOM      9  C   UNL     1       3.301   4.647  19.504  0.00  0.00    +0.000 A 
ATOM     10  N   UNL     1       3.627   5.439  18.436  0.00  0.00    +0.000 N 
ATOM     11  C   UNL     1       2.844   6.655  18.267  0.00  0.00    +0.000 C 
ATOM     12  C   UNL     1       2.270   7.097  19.636  0.00  0.00    +0.000 C 
ATOM     13  O   UNL     1       1.566   6.059  20.366  0.00  0.00    +0.000 OA
ENDROOT
BRANCH   1  15
ATOM     14  O   UNL     1       5.064   6.560  16.120  0.00  0.00    +0.000 OA
ATOM     15  C   UNL     1       5.082   5.365  16.397  0.00  0.00    +0.000 C 
ATOM     16  N   UNL     1       5.560   4.412  15.518  0.00  0.00    +0.000 N 
ATOM     17  H   UNL     1       5.375   3.440  15.715  0.00  0.00    +0.000 HD
BRANCH  16  18
ATOM     18  C   UNL     1       5.977   4.760  14.179  0.00  0.00    +0.000 C 
ATOM     19  C   UNL     1       7.436   5.187  14.091  0.00  0.00    +0.000 C 
ATOM     20  C   UNL     1       7.731   5.103  12.598  0.00  0.00    +0.000 C 
ATOM     21  C   UNL     1       6.826   3.992  12.058  0.00  0.00    +0.000 C 
ATOM     22  C   UNL     1       5.929   3.574  13.220  0.00  0.00    +0.000 C 
ENDBRANCH  16  18
ENDBRANCH   1  15
TORSDOF 2
ENDMDL
MODEL 6
REMARK VINA RESULT:      -6.9      3.389      7.706
REMARK  Name = 
REMARK  2 active torsions:
REMARK  status: ('A' for Active; 'I' for Inactive)
REMARK    1  A    between atoms: C_2  and  C_9
REMARK    2  A    between atoms: N_3  and  C_4
REMARK                            x       y       z     vdW  Elec       q    Type
REMARK                         _______ _______ _______ _____ _____    ______ ____
ROOT
ATOM      1  C   UNL     1       2.153   6.739  19.842  0.00  0.00    +0.000 A 
ATOM      2  C   UNL     1       1.771   5.611  20.576  0.00  0.00    +0.000 A 
ATOM      3  C   UNL     1       2.578   4.500  20.196  0.00  0.00    +0.000 A 
ATOM      4  C   UNL     1       2.759   3.160  20.574  0.00  0.00    +0.000 A 
ATOM      5 CL   UNL     1       1.758   2.576  21.824  0.00  0.00    +0.000 Cl
ATOM      6  C   UNL     1       3.747   2.373  19.966  0.00  0.00    +0.000 A 
ATOM      7  C   UNL     1       4.553   2.908  18.952  0.00  0.00    +0.000 A 
ATOM      8  C   UNL     1       4.359   4.219  18.528  0.00  0.00    +0.000 A 
ATOM      9  C   UNL     1       3.390   4.968  19.184  0.00  0.00    +0.000 A 
ATOM     10  N   UNL     1       3.107   6.289  18.962  0.00  0.00    +0.000 N 
ATOM     11  C   UNL     1       3.921   6.971  17.967  0.00  0.00    +0.000 C 
ATOM     12  C   UNL     1       4.475   5.937  16.955  0.00  0.00    +0.000 C 
ATOM     13  O   UNL     1       5.139   4.793  17.553  0.00  0.00    +0.000 OA
ENDROOT
BRANCH   1  15
ATOM     14  O   UNL     1       1.918   8.955  19.080  0.00  0.00    +0.000 OA
ATOM     15  C   UNL     1       1.695   8.113  19.944  0.00  0.00    +0.000 C 
ATOM     16  N   UNL     1       1.006   8.411  21.104  0.00  0.00    +0.000 N 
ATOM     17  H   UNL     1       1.019   7.741  21.857  0.00  0.00    +0.000 HD
BRANCH  16  18
ATOM     18  C   UNL     1       0.591   9.761  21.411  0.00  0.00    +0.000 C 
ATOM     19  C   UNL     1      -0.512  10.279  20.497  0.00  0.00    +0.000 C 
ATOM     20  C   UNL     1      -1.038  11.497  21.246  0.00  0.00    +0.000 C 
ATOM     21  C   UNL     1      -0.828  11.192  22.732  0.00  0.00    +0.000 C 
ATOM     22  C   UNL     1      -0.049   9.881  22.791  0.00  0.00    +0.000 C 
ENDBRANCH  16  18
ENDBRANCH   1  15
TORSDOF 2
ENDMDL
MODEL 7
REMARK VINA RESULT:      -6.9      1.317      1.775
REMARK  Name = 
REMARK  2 active torsions:
REMARK  status: ('A' for Active; 'I' for Inactive)
REMARK    1  A    between atoms: C_2  and  C_9
REMARK    2  A    between atoms: N_3  and  C_4
REMARK                            x       y       z     vdW  Elec       q    Type
REMARK                         _______ _______ _______ _____ _____    ______ ____
ROOT
ATOM      1  C   UNL     1       4.171   5.566  17.213  0.00  0.00    +0.000 A 
ATOM      2  C   UNL     1       3.465   6.480  18.002  0.00  0.00    +0.000 A 
ATOM      3  C   UNL     1       2.837   5.793  19.081  0.00  0.00    +0.000 A 
ATOM      4  C   UNL     1       2.078   6.104  20.221  0.00  0.00    +0.000 A 
ATOM      5 CL   UNL     1       1.723   7.752  20.476  0.00  0.00    +0.000 Cl
ATOM      6  C   UNL     1       1.678   5.098  21.111  0.00  0.00    +0.000 A 
ATOM      7  C   UNL     1       2.010   3.759  20.860  0.00  0.00    +0.000 A 
ATOM      8  C   UNL     1       2.720   3.422  19.712  0.00  0.00    +0.000 A 
ATOM      9  C   UNL     1       3.121   4.458  18.878  0.00  0.00    +0.000 A 
ATOM     10  N   UNL     1       3.887   4.334  17.751  0.00  0.00    +0.000 N 
ATOM     11  C   UNL     1       4.342   2.992  17.419  0.00  0.00    +0.000 C 
ATOM     12  C   UNL     1       3.368   1.950  18.023  0.00  0.00    +0.000 C 
ATOM     13  O   UNL     1       3.085   2.126  19.436  0.00  0.00    +0.000 OA
ENDROOT
BRANCH   1  15
ATOM     14  O   UNL     1       5.665   6.842  15.914  0.00  0.00    +0.000 OA
ATOM     15  C   UNL     1       5.039   5.798  16.073  0.00  0.00    +0.000 C 
ATOM     16  N   UNL     1       5.091   4.761  15.162  0.00  0.00    +0.000 N 
ATOM     17  H   UNL     1       4.416   4.016  15.243  0.00  0.00    +0.000 HD
BRANCH  16  18
ATOM     18  C   UNL     1       5.812   4.885  13.916  0.00  0.00    +0.000 C 
ATOM     19  C   UNL     1       7.318   5.020  14.099  0.00  0.00    +0.000 C 
ATOM     20  C   UNL     1       7.862   4.729  12.705  0.00  0.00    +0.000 C 
ATOM     21  C   UNL     1       6.867   3.756  12.066  0.00  0.00    +0.000 C 
ATOM     22  C   UNL     1       5.703   3.636  13.045  0.00  0.00    +0.000 C 
ENDBRANCH  16  18
ENDBRANCH   1  15
TORSDOF 2
ENDMDL
MODEL 8
REMARK VINA RESULT:      -6.9      3.187      7.365
REMARK  Name = 
REMARK  2 active torsions:
REMARK  status: ('A' for Active; 'I' for Inactive)
REMARK    1  A    between atoms: C_2  and  C_9
REMARK    2  A    between atoms: N_3  and  C_4
REMARK                            x       y       z     vdW  Elec       q    Type
REMARK                         _______ _______ _______ _____ _____    ______ ____
ROOT
ATOM      1  C   UNL     1       2.486   7.332  18.921  0.00  0.00    +0.000 A 
ATOM      2  C   UNL     1       3.374   7.192  17.850  0.00  0.00    +0.000 A 
ATOM      3  C   UNL     1       3.730   5.820  17.703  0.00  0.00    +0.000 A 
ATOM      4  C   UNL     1       4.485   5.022  16.828  0.00  0.00    +0.000 A 
ATOM      5 CL   UNL     1       5.268   5.825  15.544  0.00  0.00    +0.000 Cl
ATOM      6  C   UNL     1       4.543   3.632  16.998  0.00  0.00    +0.000 A 
ATOM      7  C   UNL     1       3.867   3.020  18.063  0.00  0.00    +0.000 A 
ATOM      8  C   UNL     1       3.154   3.797  18.971  0.00  0.00    +0.000 A 
ATOM      9  C   UNL     1       3.099   5.166  18.741  0.00  0.00    +0.000 A 
ATOM     10  N   UNL     1       2.389   6.078  19.474  0.00  0.00    +0.000 N 
ATOM     11  C   UNL     1       1.598   5.552  20.577  0.00  0.00    +0.000 C 
ATOM     12  C   UNL     1       2.213   4.215  21.064  0.00  0.00    +0.000 C 
ATOM     13  O   UNL     1       2.459   3.240  20.017  0.00  0.00    +0.000 OA
ENDROOT
BRANCH   1  15
ATOM     14  O   UNL     1       1.504   9.457  18.665  0.00  0.00    +0.000 OA
ATOM     15  C   UNL     1       1.777   8.508  19.393  0.00  0.00    +0.000 C 
ATOM     16  N   UNL     1       1.451   8.490  20.735  0.00  0.00    +0.000 N 
ATOM     17  H   UNL     1       1.865   7.781  21.321  0.00  0.00    +0.000 HD
BRANCH  16  18
ATOM     18  C   UNL     1       0.854   9.635  21.383  0.00  0.00    +0.000 C 
ATOM     19  C   UNL     1      -0.403  10.138  20.687  0.00  0.00    +0.000 C 
ATOM     20  C   UNL     1      -1.044  11.036  21.738  0.00  0.00    +0.000 C 
ATOM     21  C   UNL     1      -0.643  10.443  23.091  0.00  0.00    +0.000 C 
ATOM     22  C   UNL     1       0.342   9.317  22.786  0.00  0.00    +0.000 C 
ENDBRANCH  16  18
ENDBRANCH   1  15
TORSDOF 2
ENDMDL
MODEL 9
REMARK VINA RESULT:      -6.8      3.239      6.975
REMARK  Name = 
REMARK  2 active torsions:
REMARK  status: ('A' for Active; 'I' for Inactive)
REMARK    1  A    between atoms: C_2  and  C_9
REMARK    2  A    between atoms: N_3  and  C_4
REMARK                            x       y       z     vdW  Elec       q    Type
REMARK                         _______ _______ _______ _____ _____    ______ ____
ROOT
ATOM      1  C   UNL     1       2.478   6.869  18.724  0.00  0.00    +0.000 A 
ATOM      2  C   UNL     1       1.913   5.957  19.621  0.00  0.00    +0.000 A 
ATOM      3  C   UNL     1       2.706   4.775  19.661  0.00  0.00    +0.000 A 
ATOM      4  C   UNL     1       2.743   3.562  20.368  0.00  0.00    +0.000 A 
ATOM      5 CL   UNL     1       1.514   3.312  21.523  0.00  0.00    +0.000 Cl
ATOM      6  C   UNL     1       3.771   2.635  20.146  0.00  0.00    +0.000 A 
ATOM      7  C   UNL     1       4.766   2.897  19.194  0.00  0.00    +0.000 A 
ATOM      8  C   UNL     1       4.722   4.070  18.447  0.00  0.00    +0.000 A 
ATOM      9  C   UNL     1       3.703   4.971  18.728  0.00  0.00    +0.000 A 
ATOM     10  N   UNL     1       3.538   6.204  18.157  0.00  0.00    +0.000 N 
ATOM     11  C   UNL     1       4.547   6.612  17.189  0.00  0.00    +0.000 C 
ATOM     12  C   UNL     1       5.201   5.356  16.562  0.00  0.00    +0.000 C 
ATOM     13  O   UNL     1       5.687   4.379  17.519  0.00  0.00    +0.000 OA
ENDROOT
BRANCH   1  15
ATOM     14  O   UNL     1       2.406   8.798  17.375  0.00  0.00    +0.000 OA
ATOM     15  C   UNL     1       2.091   8.234  18.418  0.00  0.00    +0.000 C 
ATOM     16  N   UNL     1       1.357   8.865  19.405  0.00  0.00    +0.000 N 
ATOM     17  H   UNL     1       1.294   8.426  20.311  0.00  0.00    +0.000 HD
BRANCH  16  18
ATOM     18  C   UNL     1       1.001  10.261  19.306  0.00  0.00    +0.000 C 
ATOM     19  C   UNL     1      -0.355  10.496  18.653  0.00  0.00    +0.000 C 
ATOM     20  C   UNL     1      -0.673  11.939  19.025  0.00  0.00    +0.000 C 
ATOM     21  C   UNL     1       0.007  12.178  20.376  0.00  0.00    +0.000 C 
ATOM     22  C   UNL     1       0.822  10.922  20.670  0.00  0.00    +0.000 C 
ENDBRANCH  16  18
ENDBRANCH   1  15
TORSDOF 2
ENDMDL
