MODEL 1
REMARK VINA RESULT:      -7.9      0.000      0.000
REMARK  Name = 
REMARK  9 active torsions:
REMARK  status: ('A' for Active; 'I' for Inactive)
REMARK    1  A    between atoms: C_2  and  C_3
REMARK    2  A    between atoms: C_3  and  C_4
REMARK    3  A    between atoms: C_4  and  C_5
REMARK    4  A    between atoms: C_8  and  C_9
REMARK    5  A    between atoms: C_9  and  C_10
REMARK    6  A    between atoms: C_10  and  C_11
REMARK    7  A    between atoms: N_18  and  C_19
REMARK    8  A    between atoms: C_19  and  C_20
REMARK    9  A    between atoms: C_20  and  N_21
REMARK                            x       y       z     vdW  Elec       q    Type
REMARK                         _______ _______ _______ _____ _____    ______ ____
ROOT
ATOM      1  C   UNL     1       7.213   5.411  18.078  0.00  0.00    +0.000 C 
ENDROOT
BRANCH   1   2
ATOM      2  C   UNL     1       7.494   6.847  17.862  0.00  0.00    +0.000 A 
ATOM      3  N   UNL     1       7.116   7.640  16.884  0.00  0.00    +0.000 NA
ATOM      4  N   UNL     1       7.656   8.880  17.163  0.00  0.00    +0.000 NA
ATOM      5  C   UNL     1       8.326   8.750  18.285  0.00  0.00    +0.000 A 
ATOM      6  O   UNL     1       8.272   7.481  18.792  0.00  0.00    +0.000 OA
BRANCH   5   7
ATOM      7  C   UNL     1       9.142   9.739  19.024  0.00  0.00    +0.000 C 
BRANCH   7   8
ATOM      8  C   UNL     1       9.330  11.059  18.276  0.00  0.00    +0.000 C 
BRANCH   8   9
ATOM      9  C   UNL     1      10.780  11.506  17.974  0.00  0.00    +0.000 C 
ATOM     10  C   UNL     1      10.918  12.848  17.232  0.00  0.00    +0.000 C 
ATOM     11  C   UNL     1      10.631  14.080  18.093  0.00  0.00    +0.000 C 
ATOM     12  C   UNL     1      11.377  14.059  19.426  0.00  0.00    +0.000 C 
ATOM     13  C   UNL     1      11.185  12.744  20.168  0.00  0.00    +0.000 C 
ATOM     14  C   UNL     1      11.585  11.561  19.288  0.00  0.00    +0.000 C 
ENDBRANCH   8   9
ENDBRANCH   7   8
ENDBRANCH   5   7
ENDBRANCH   1   2
BRANCH   1  15
ATOM     15  C   UNL     1       6.267   5.203  19.254  0.00  0.00    +0.000 C 
BRANCH  15  17
ATOM     16  O   UNL     1       3.935   5.834  19.171  0.00  0.00    +0.000 OA
ATOM     17  C   UNL     1       4.832   5.092  18.788  0.00  0.00    +0.000 C 
ATOM     18  N   UNL     1       4.632   4.072  17.885  0.00  0.00    +0.000 N 
ATOM     19  H   UNL     1       5.392   3.433  17.682  0.00  0.00    +0.000 HD
BRANCH  18  20
ATOM     20  C   UNL     1       3.310   3.752  17.358  0.00  0.00    +0.000 C 
BRANCH  20  21
ATOM     21  C   UNL     1       2.706   2.486  17.964  0.00  0.00    +0.000 C 
BRANCH  21  22
ATOM     22  N   UNL     1       2.306   2.673  19.347  0.00  0.00    +0.000 N 
ATOM     23  C   UNL     1       1.045   2.924  19.807  0.00  0.00    +0.000 A 
ATOM     24  C   UNL     1       1.142   2.971  21.177  0.00  0.00    +0.000 A 
ATOM     25  C   UNL     1       2.502   2.735  21.446  0.00  0.00    +0.000 A 
ATOM     26  N   UNL     1       3.216   2.550  20.332  0.00  0.00    +0.000 NA
ENDBRANCH  21  22
ENDBRANCH  20  21
ENDBRANCH  18  20
ENDBRANCH  15  17
ENDBRANCH   1  15
TORSDOF 9
ENDMDL
MODEL 2
REMARK VINA RESULT:      -7.7      1.679      2.207
REMARK  Name = 
REMARK  9 active torsions:
REMARK  status: ('A' for Active; 'I' for Inactive)
REMARK    1  A    between atoms: C_2  and  C_3
REMARK    2  A    between atoms: C_3  and  C_4
REMARK    3  A    between atoms: C_4  and  C_5
REMARK    4  A    between atoms: C_8  and  C_9
REMARK    5  A    between atoms: C_9  and  C_10
REMARK    6  A    between atoms: C_10  and  C_11
REMARK    7  A    between atoms: N_18  and  C_19
REMARK    8  A    between atoms: C_19  and  C_20
REMARK    9  A    between atoms: C_20  and  N_21
REMARK                            x       y       z     vdW  Elec       q    Type
REMARK                         _______ _______ _______ _____ _____    ______ ____
ROOT
ATOM      1  C   UNL     1       6.412   5.379  16.157  0.00  0.00    +0.000 C 
ENDROOT
BRANCH   1   2
ATOM      2  C   UNL     1       7.124   6.257  17.111  0.00  0.00    +0.000 A 
ATOM      3  N   UNL     1       7.711   5.959  18.250  0.00  0.00    +0.000 NA
ATOM      4  N   UNL     1       8.215   7.145  18.744  0.00  0.00    +0.000 NA
ATOM      5  C   UNL     1       7.894   8.077  17.875  0.00  0.00    +0.000 A 
ATOM      6  O   UNL     1       7.195   7.588  16.807  0.00  0.00    +0.000 OA
BRANCH   5   7
ATOM      7  C   UNL     1       8.134   9.536  17.916  0.00  0.00    +0.000 C 
BRANCH   7   8
ATOM      8  C   UNL     1       9.260   9.946  18.864  0.00  0.00    +0.000 C 
BRANCH   8   9
ATOM      9  C   UNL     1       9.383  11.447  19.218  0.00  0.00    +0.000 C 
ATOM     10  C   UNL     1      10.381  11.783  20.342  0.00  0.00    +0.000 C 
ATOM     11  C   UNL     1      11.852  11.675  19.935  0.00  0.00    +0.000 C 
ATOM     12  C   UNL     1      12.162  12.404  18.629  0.00  0.00    +0.000 C 
ATOM     13  C   UNL     1      11.197  12.018  17.517  0.00  0.00    +0.000 C 
ATOM     14  C   UNL     1       9.750  12.245  17.950  0.00  0.00    +0.000 C 
ENDBRANCH   8   9
ENDBRANCH   7   8
ENDBRANCH   5   7
ENDBRANCH   1   2
BRANCH   1  15
ATOM     15  C   UNL     1       5.821   4.163  16.859  0.00  0.00    +0.000 C 
BRANCH  15  17
ATOM     16  O   UNL     1       3.485   3.542  16.801  0.00  0.00    +0.000 OA
ATOM     17  C   UNL     1       4.345   4.352  17.130  0.00  0.00    +0.000 C 
ATOM     18  N   UNL     1       4.059   5.527  17.789  0.00  0.00    +0.000 N 
ATOM     19  H   UNL     1       4.801   6.199  17.948  0.00  0.00    +0.000 HD
BRANCH  18  20
ATOM     20  C   UNL     1       2.692   5.933  18.091  0.00  0.00    +0.000 C 
BRANCH  20  21
ATOM     21  C   UNL     1       2.388   5.974  19.588  0.00  0.00    +0.000 C 
BRANCH  21  22
ATOM     22  N   UNL     1       2.182   4.649  20.145  0.00  0.00    +0.000 N 
ATOM     23  C   UNL     1       0.995   4.108  20.551  0.00  0.00    +0.000 A 
ATOM     24  C   UNL     1       1.280   2.825  20.951  0.00  0.00    +0.000 A 
ATOM     25  C   UNL     1       2.664   2.686  20.747  0.00  0.00    +0.000 A 
ATOM     26  N   UNL     1       3.219   3.796  20.252  0.00  0.00    +0.000 NA
ENDBRANCH  21  22
ENDBRANCH  20  21
ENDBRANCH  18  20
ENDBRANCH  15  17
ENDBRANCH   1  15
TORSDOF 9
ENDMDL
MODEL 3
REMARK VINA RESULT:      -7.6      0.962      1.085
REMARK  Name = 
REMARK  9 active torsions:
REMARK  status: ('A' for Active; 'I' for Inactive)
REMARK    1  A    between atoms: C_2  and  C_3
REMARK    2  A    between atoms: C_3  and  C_4
REMARK    3  A    between atoms: C_4  and  C_5
REMARK    4  A    between atoms: C_8  and  C_9
REMARK    5  A    between atoms: C_9  and  C_10
REMARK    6  A    between atoms: C_10  and  C_11
REMARK    7  A    between atoms: N_18  and  C_19
REMARK    8  A    between atoms: C_19  and  C_20
REMARK    9  A    between atoms: C_20  and  N_21
REMARK                            x       y       z     vdW  Elec       q    Type
REMARK                         _______ _______ _______ _____ _____    ______ ____
ROOT
ATOM      1  C   UNL     1       7.651   5.367  18.342  0.00  0.00    +0.000 C 
ENDROOT
BRANCH   1   2
ATOM      2  C   UNL     1       7.784   6.805  18.024  0.00  0.00    +0.000 A 
ATOM      3  N   UNL     1       7.334   7.483  16.991  0.00  0.00    +0.000 NA
ATOM      4  N   UNL     1       7.741   8.788  17.180  0.00  0.00    +0.000 NA
ATOM      5  C   UNL     1       8.411   8.809  18.310  0.00  0.00    +0.000 A 
ATOM      6  O   UNL     1       8.485   7.581  18.906  0.00  0.00    +0.000 OA
BRANCH   5   7
ATOM      7  C   UNL     1       9.114   9.928  18.977  0.00  0.00    +0.000 C 
BRANCH   7   8
ATOM      8  C   UNL     1       9.243  11.176  18.105  0.00  0.00    +0.000 C 
BRANCH   8   9
ATOM      9  C   UNL     1      10.672  11.656  17.754  0.00  0.00    +0.000 C 
ATOM     10  C   UNL     1      10.792  13.137  17.351  0.00  0.00    +0.000 C 
ATOM     11  C   UNL     1      10.660  14.122  18.515  0.00  0.00    +0.000 C 
ATOM     12  C   UNL     1      11.544  13.757  19.705  0.00  0.00    +0.000 C 
ATOM     13  C   UNL     1      11.371  12.302  20.121  0.00  0.00    +0.000 C 
ATOM     14  C   UNL     1      11.616  11.367  18.938  0.00  0.00    +0.000 C 
ENDBRANCH   8   9
ENDBRANCH   7   8
ENDBRANCH   5   7
ENDBRANCH   1   2
BRANCH   1  15
ATOM     15  C   UNL     1       6.434   4.759  17.657  0.00  0.00    +0.000 C 
BRANCH  15  17
ATOM     16  O   UNL     1       5.055   5.339  19.556  0.00  0.00    +0.000 OA
ATOM     17  C   UNL     1       5.153   5.178  18.345  0.00  0.00    +0.000 C 
ATOM     18  N   UNL     1       4.104   5.368  17.473  0.00  0.00    +0.000 N 
ATOM     19  H   UNL     1       4.222   5.126  16.496  0.00  0.00    +0.000 HD
BRANCH  18  20
ATOM     20  C   UNL     1       2.765   5.713  17.936  0.00  0.00    +0.000 C 
BRANCH  20  21
ATOM     21  C   UNL     1       1.834   4.507  18.051  0.00  0.00    +0.000 C 
BRANCH  21  22
ATOM     22  N   UNL     1       1.856   3.918  19.378  0.00  0.00    +0.000 N 
ATOM     23  C   UNL     1       2.061   4.572  20.560  0.00  0.00    +0.000 A 
ATOM     24  C   UNL     1       1.940   3.622  21.545  0.00  0.00    +0.000 A 
ATOM     25  C   UNL     1       1.660   2.428  20.858  0.00  0.00    +0.000 A 
ATOM     26  N   UNL     1       1.605   2.604  19.535  0.00  0.00    +0.000 NA
ENDBRANCH  21  22
ENDBRANCH  20  21
ENDBRANCH  18  20
ENDBRANCH  15  17
ENDBRANCH   1  15
TORSDOF 9
ENDMDL
MODEL 4
REMARK VINA RESULT:      -7.6      2.799      3.662
REMARK  Name = 
REMARK  9 active torsions:
REMARK  status: ('A' for Active; 'I' for Inactive)
REMARK    1  A    between atoms: C_2  and  C_3
REMARK    2  A    between atoms: C_3  and  C_4
REMARK    3  A    between atoms: C_4  and  C_5
REMARK    4  A    between atoms: C_8  and  C_9
REMARK    5  A    between atoms: C_9  and  C_10
REMARK    6  A    between atoms: C_10  and  C_11
REMARK    7  A    between atoms: N_18  and  C_19
REMARK    8  A    between atoms: C_19  and  C_20
REMARK    9  A    between atoms: C_20  and  N_21
REMARK                            x       y       z     vdW  Elec       q    Type
REMARK                         _______ _______ _______ _____ _____    ______ ____
ROOT
ATOM      1  C   UNL     1       6.777   4.591  16.335  0.00  0.00    +0.000 C 
ENDROOT
BRANCH   1   2
ATOM      2  C   UNL     1       7.325   5.596  17.272  0.00  0.00    +0.000 A 
ATOM      3  N   UNL     1       7.807   5.439  18.485  0.00  0.00    +0.000 NA
ATOM      4  N   UNL     1       8.177   6.697  18.918  0.00  0.00    +0.000 NA
ATOM      5  C   UNL     1       7.890   7.526  17.941  0.00  0.00    +0.000 A 
ATOM      6  O   UNL     1       7.340   6.900  16.857  0.00  0.00    +0.000 OA
BRANCH   5   7
ATOM      7  C   UNL     1       8.028   8.998  17.873  0.00  0.00    +0.000 C 
BRANCH   7   8
ATOM      8  C   UNL     1       9.048   9.563  18.860  0.00  0.00    +0.000 C 
BRANCH   8   9
ATOM      9  C   UNL     1       8.989  11.082  19.155  0.00  0.00    +0.000 C 
ATOM     10  C   UNL     1       9.808  11.552  20.371  0.00  0.00    +0.000 C 
ATOM     11  C   UNL     1      11.321  11.574  20.143  0.00  0.00    +0.000 C 
ATOM     12  C   UNL     1      11.718  12.282  18.850  0.00  0.00    +0.000 C 
ATOM     13  C   UNL     1      10.934  11.765  17.652  0.00  0.00    +0.000 C 
ATOM     14  C   UNL     1       9.430  11.865  17.902  0.00  0.00    +0.000 C 
ENDBRANCH   8   9
ENDBRANCH   7   8
ENDBRANCH   5   7
ENDBRANCH   1   2
BRANCH   1  15
ATOM     15  C   UNL     1       5.298   4.836  16.065  0.00  0.00    +0.000 C 
BRANCH  15  17
ATOM     16  O   UNL     1       4.690   3.695  18.108  0.00  0.00    +0.000 OA
ATOM     17  C   UNL     1       4.469   4.598  17.308  0.00  0.00    +0.000 C 
ATOM     18  N   UNL     1       3.440   5.501  17.457  0.00  0.00    +0.000 N 
ATOM     19  H   UNL     1       3.250   6.163  16.714  0.00  0.00    +0.000 HD
BRANCH  18  20
ATOM     20  C   UNL     1       2.484   5.411  18.555  0.00  0.00    +0.000 C 
BRANCH  20  21
ATOM     21  C   UNL     1       2.652   6.515  19.597  0.00  0.00    +0.000 C 
BRANCH  21  22
ATOM     22  N   UNL     1       2.135   7.791  19.137  0.00  0.00    +0.000 N 
ATOM     23  C   UNL     1       1.403   8.687  19.864  0.00  0.00    +0.000 A 
ATOM     24  C   UNL     1       1.187   9.762  19.035  0.00  0.00    +0.000 A 
ATOM     25  C   UNL     1       1.828   9.419  17.831  0.00  0.00    +0.000 A 
ATOM     26  N   UNL     1       2.410   8.218  17.890  0.00  0.00    +0.000 NA
ENDBRANCH  21  22
ENDBRANCH  20  21
ENDBRANCH  18  20
ENDBRANCH  15  17
ENDBRANCH   1  15
TORSDOF 9
ENDMDL
MODEL 5
REMARK VINA RESULT:      -7.3      1.669      2.273
REMARK  Name = 
REMARK  9 active torsions:
REMARK  status: ('A' for Active; 'I' for Inactive)
REMARK    1  A    between atoms: C_2  and  C_3
REMARK    2  A    between atoms: C_3  and  C_4
REMARK    3  A    between atoms: C_4  and  C_5
REMARK    4  A    between atoms: C_8  and  C_9
REMARK    5  A    between atoms: C_9  and  C_10
REMARK    6  A    between atoms: C_10  and  C_11
REMARK    7  A    between atoms: N_18  and  C_19
REMARK    8  A    between atoms: C_19  and  C_20
REMARK    9  A    between atoms: C_20  and  N_21
REMARK                            x       y       z     vdW  Elec       q    Type
REMARK                         _______ _______ _______ _____ _____    ______ ____
ROOT
ATOM      1  C   UNL     1       7.023   5.043  15.906  0.00  0.00    +0.000 C 
ENDROOT
BRANCH   1   2
ATOM      2  C   UNL     1       7.414   5.972  16.988  0.00  0.00    +0.000 A 
ATOM      3  N   UNL     1       7.552   5.751  18.277  0.00  0.00    +0.000 NA
ATOM      4  N   UNL     1       7.927   6.956  18.837  0.00  0.00    +0.000 NA
ATOM      5  C   UNL     1       7.985   7.822  17.851  0.00  0.00    +0.000 A 
ATOM      6  O   UNL     1       7.668   7.271  16.641  0.00  0.00    +0.000 OA
BRANCH   5   7
ATOM      7  C   UNL     1       8.286   9.271  17.876  0.00  0.00    +0.000 C 
BRANCH   7   8
ATOM      8  C   UNL     1       9.158   9.695  19.056  0.00  0.00    +0.000 C 
BRANCH   8   9
ATOM      9  C   UNL     1       9.225  11.205  19.387  0.00  0.00    +0.000 C 
ATOM     10  C   UNL     1      10.315  11.615  20.394  0.00  0.00    +0.000 C 
ATOM     11  C   UNL     1      11.737  11.593  19.830  0.00  0.00    +0.000 C 
ATOM     12  C   UNL     1      11.858  12.324  18.495  0.00  0.00    +0.000 C 
ATOM     13  C   UNL     1      10.804  11.867  17.496  0.00  0.00    +0.000 C 
ATOM     14  C   UNL     1       9.401  12.009  18.083  0.00  0.00    +0.000 C 
ENDBRANCH   8   9
ENDBRANCH   7   8
ENDBRANCH   5   7
ENDBRANCH   1   2
BRANCH   1  15
ATOM     15  C   UNL     1       5.581   5.276  15.472  0.00  0.00    +0.000 C 
BRANCH  15  17
ATOM     16  O   UNL     1       4.499   7.143  16.560  0.00  0.00    +0.000 OA
ATOM     17  C   UNL     1       4.783   5.951  16.565  0.00  0.00    +0.000 C 
ATOM     18  N   UNL     1       4.401   5.090  17.570  0.00  0.00    +0.000 N 
ATOM     19  H   UNL     1       4.749   4.138  17.566  0.00  0.00    +0.000 HD
BRANCH  18  20
ATOM     20  C   UNL     1       3.679   5.550  18.751  0.00  0.00    +0.000 C 
BRANCH  20  21
ATOM     21  C   UNL     1       3.869   4.646  19.968  0.00  0.00    +0.000 C 
BRANCH  21  22
ATOM     22  N   UNL     1       2.648   3.955  20.338  0.00  0.00    +0.000 N 
ATOM     23  C   UNL     1       1.468   3.954  19.650  0.00  0.00    +0.000 A 
ATOM     24  C   UNL     1       0.623   3.125  20.347  0.00  0.00    +0.000 A 
ATOM     25  C   UNL     1       1.385   2.674  21.439  0.00  0.00    +0.000 A 
ATOM     26  N   UNL     1       2.623   3.176  21.437  0.00  0.00    +0.000 NA
ENDBRANCH  21  22
ENDBRANCH  20  21
ENDBRANCH  18  20
ENDBRANCH  15  17
ENDBRANCH   1  15
TORSDOF 9
ENDMDL
MODEL 6
REMARK VINA RESULT:      -7.3      1.576      2.002
REMARK  Name = 
REMARK  9 active torsions:
REMARK  status: ('A' for Active; 'I' for Inactive)
REMARK    1  A    between atoms: C_2  and  C_3
REMARK    2  A    between atoms: C_3  and  C_4
REMARK    3  A    between atoms: C_4  and  C_5
REMARK    4  A    between atoms: C_8  and  C_9
REMARK    5  A    between atoms: C_9  and  C_10
REMARK    6  A    between atoms: C_10  and  C_11
REMARK    7  A    between atoms: N_18  and  C_19
REMARK    8  A    between atoms: C_19  and  C_20
REMARK    9  A    between atoms: C_20  and  N_21
REMARK                            x       y       z     vdW  Elec       q    Type
REMARK                         _______ _______ _______ _____ _____    ______ ____
ROOT
ATOM      1  C   UNL     1       6.294   5.377  16.857  0.00  0.00    +0.000 C 
ENDROOT
BRANCH   1   2
ATOM      2  C   UNL     1       7.122   6.389  17.548  0.00  0.00    +0.000 A 
ATOM      3  N   UNL     1       7.866   6.272  18.626  0.00  0.00    +0.000 NA
ATOM      4  N   UNL     1       8.421   7.517  18.848  0.00  0.00    +0.000 NA
ATOM      5  C   UNL     1       7.970   8.299  17.894  0.00  0.00    +0.000 A 
ATOM      6  O   UNL     1       7.134   7.653  17.027  0.00  0.00    +0.000 OA
BRANCH   5   7
ATOM      7  C   UNL     1       8.196   9.744  17.666  0.00  0.00    +0.000 C 
BRANCH   7   8
ATOM      8  C   UNL     1       9.202  10.367  18.633  0.00  0.00    +0.000 C 
BRANCH   8   9
ATOM      9  C   UNL     1      10.208  11.391  18.053  0.00  0.00    +0.000 C 
ATOM     10  C   UNL     1       9.664  12.820  17.868  0.00  0.00    +0.000 C 
ATOM     11  C   UNL     1       9.492  13.604  19.170  0.00  0.00    +0.000 C 
ATOM     12  C   UNL     1      10.729  13.552  20.063  0.00  0.00    +0.000 C 
ATOM     13  C   UNL     1      11.219  12.125  20.277  0.00  0.00    +0.000 C 
ATOM     14  C   UNL     1      11.468  11.431  18.939  0.00  0.00    +0.000 C 
ENDBRANCH   8   9
ENDBRANCH   7   8
ENDBRANCH   5   7
ENDBRANCH   1   2
BRANCH   1  15
ATOM     15  C   UNL     1       4.999   5.985  16.333  0.00  0.00    +0.000 C 
BRANCH  15  17
ATOM     16  O   UNL     1       3.540   7.542  17.471  0.00  0.00    +0.000 OA
ATOM     17  C   UNL     1       4.122   6.463  17.469  0.00  0.00    +0.000 C 
ATOM     18  N   UNL     1       4.035   5.560  18.506  0.00  0.00    +0.000 N 
ATOM     19  H   UNL     1       4.614   4.729  18.489  0.00  0.00    +0.000 HD
BRANCH  18  20
ATOM     20  C   UNL     1       3.290   5.851  19.726  0.00  0.00    +0.000 C 
BRANCH  20  21
ATOM     21  C   UNL     1       2.530   4.644  20.274  0.00  0.00    +0.000 C 
BRANCH  21  22
ATOM     22  N   UNL     1       2.656   3.479  19.419  0.00  0.00    +0.000 N 
ATOM     23  C   UNL     1       1.767   3.061  18.469  0.00  0.00    +0.000 A 
ATOM     24  C   UNL     1       2.330   1.954  17.881  0.00  0.00    +0.000 A 
ATOM     25  C   UNL     1       3.558   1.784  18.545  0.00  0.00    +0.000 A 
ATOM     26  N   UNL     1       3.763   2.714  19.482  0.00  0.00    +0.000 NA
ENDBRANCH  21  22
ENDBRANCH  20  21
ENDBRANCH  18  20
ENDBRANCH  15  17
ENDBRANCH   1  15
TORSDOF 9
ENDMDL
MODEL 7
REMARK VINA RESULT:      -7.2      1.058      1.276
REMARK  Name = 
REMARK  9 active torsions:
REMARK  status: ('A' for Active; 'I' for Inactive)
REMARK    1  A    between atoms: C_2  and  C_3
REMARK    2  A    between atoms: C_3  and  C_4
REMARK    3  A    between atoms: C_4  and  C_5
REMARK    4  A    between atoms: C_8  and  C_9
REMARK    5  A    between atoms: C_9  and  C_10
REMARK    6  A    between atoms: C_10  and  C_11
REMARK    7  A    between atoms: N_18  and  C_19
REMARK    8  A    between atoms: C_19  and  C_20
REMARK    9  A    between atoms: C_20  and  N_21
REMARK                            x       y       z     vdW  Elec       q    Type
REMARK                         _______ _______ _______ _____ _____    ______ ____
ROOT
ATOM      1  C   UNL     1       7.806   5.629  18.755  0.00  0.00    +0.000 C 
ENDROOT
BRANCH   1   2
ATOM      2  C   UNL     1       7.750   6.982  18.160  0.00  0.00    +0.000 A 
ATOM      3  N   UNL     1       7.067   7.417  17.124  0.00  0.00    +0.000 NA
ATOM      4  N   UNL     1       7.379   8.755  16.991  0.00  0.00    +0.000 NA
ATOM      5  C   UNL     1       8.232   9.035  17.950  0.00  0.00    +0.000 A 
ATOM      6  O   UNL     1       8.520   7.954  18.737  0.00  0.00    +0.000 OA
BRANCH   5   7
ATOM      7  C   UNL     1       8.936  10.300  18.256  0.00  0.00    +0.000 C 
BRANCH   7   8
ATOM      8  C   UNL     1       9.315  10.449  19.730  0.00  0.00    +0.000 C 
BRANCH   8   9
ATOM      9  C   UNL     1      10.644  11.171  20.054  0.00  0.00    +0.000 C 
ATOM     10  C   UNL     1      11.428  11.693  18.835  0.00  0.00    +0.000 C 
ATOM     11  C   UNL     1      10.821  12.934  18.177  0.00  0.00    +0.000 C 
ATOM     12  C   UNL     1      10.484  14.034  19.181  0.00  0.00    +0.000 C 
ATOM     13  C   UNL     1       9.664  13.507  20.351  0.00  0.00    +0.000 C 
ATOM     14  C   UNL     1      10.373  12.335  21.027  0.00  0.00    +0.000 C 
ENDBRANCH   8   9
ENDBRANCH   7   8
ENDBRANCH   5   7
ENDBRANCH   1   2
BRANCH   1  15
ATOM     15  C   UNL     1       6.482   5.259  19.412  0.00  0.00    +0.000 C 
BRANCH  15  17
ATOM     16  O   UNL     1       5.732   4.159  17.395  0.00  0.00    +0.000 OA
ATOM     17  C   UNL     1       5.460   4.835  18.381  0.00  0.00    +0.000 C 
ATOM     18  N   UNL     1       4.188   5.280  18.661  0.00  0.00    +0.000 N 
ATOM     19  H   UNL     1       4.045   5.915  19.439  0.00  0.00    +0.000 HD
BRANCH  18  20
ATOM     20  C   UNL     1       3.066   5.035  17.762  0.00  0.00    +0.000 C 
BRANCH  20  21
ATOM     21  C   UNL     1       2.420   3.664  17.958  0.00  0.00    +0.000 C 
BRANCH  21  22
ATOM     22  N   UNL     1       2.194   3.356  19.358  0.00  0.00    +0.000 N 
ATOM     23  C   UNL     1       1.039   3.549  20.061  0.00  0.00    +0.000 A 
ATOM     24  C   UNL     1       1.277   3.063  21.324  0.00  0.00    +0.000 A 
ATOM     25  C   UNL     1       2.603   2.597  21.283  0.00  0.00    +0.000 A 
ATOM     26  N   UNL     1       3.166   2.772  20.084  0.00  0.00    +0.000 NA
ENDBRANCH  21  22
ENDBRANCH  20  21
ENDBRANCH  18  20
ENDBRANCH  15  17
ENDBRANCH   1  15
TORSDOF 9
ENDMDL
MODEL 8
REMARK VINA RESULT:      -7.2      2.547     10.857
REMARK  Name = 
REMARK  9 active torsions:
REMARK  status: ('A' for Active; 'I' for Inactive)
REMARK    1  A    between atoms: C_2  and  C_3
REMARK    2  A    between atoms: C_3  and  C_4
REMARK    3  A    between atoms: C_4  and  C_5
REMARK    4  A    between atoms: C_8  and  C_9
REMARK    5  A    between atoms: C_9  and  C_10
REMARK    6  A    between atoms: C_10  and  C_11
REMARK    7  A    between atoms: N_18  and  C_19
REMARK    8  A    between atoms: C_19  and  C_20
REMARK    9  A    between atoms: C_20  and  N_21
REMARK                            x       y       z     vdW  Elec       q    Type
REMARK                         _______ _______ _______ _____ _____    ______ ____
ROOT
ATOM      1  C   UNL     1       8.098   7.818  18.334  0.00  0.00    +0.000 C 
ENDROOT
BRANCH   1   2
ATOM      2  C   UNL     1       7.326   6.894  17.473  0.00  0.00    +0.000 A 
ATOM      3  N   UNL     1       7.585   6.465  16.257  0.00  0.00    +0.000 NA
ATOM      4  N   UNL     1       6.542   5.628  15.915  0.00  0.00    +0.000 NA
ATOM      5  C   UNL     1       5.724   5.614  16.942  0.00  0.00    +0.000 A 
ATOM      6  O   UNL     1       6.154   6.399  17.975  0.00  0.00    +0.000 OA
BRANCH   5   7
ATOM      7  C   UNL     1       4.423   4.928  17.111  0.00  0.00    +0.000 C 
BRANCH   7   8
ATOM      8  C   UNL     1       4.152   4.475  18.546  0.00  0.00    +0.000 C 
BRANCH   8   9
ATOM      9  C   UNL     1       3.698   3.011  18.756  0.00  0.00    +0.000 C 
ATOM     10  C   UNL     1       3.365   2.623  20.209  0.00  0.00    +0.000 C 
ATOM     11  C   UNL     1       2.043   3.193  20.728  0.00  0.00    +0.000 C 
ATOM     12  C   UNL     1       0.877   2.959  19.769  0.00  0.00    +0.000 C 
ATOM     13  C   UNL     1       1.209   3.397  18.349  0.00  0.00    +0.000 C 
ATOM     14  C   UNL     1       2.483   2.715  17.854  0.00  0.00    +0.000 C 
ENDBRANCH   8   9
ENDBRANCH   7   8
ENDBRANCH   5   7
ENDBRANCH   1   2
BRANCH   1  15
ATOM     15  C   UNL     1       8.091   9.234  17.772  0.00  0.00    +0.000 C 
BRANCH  15  17
ATOM     16  O   UNL     1       9.334   9.902  19.735  0.00  0.00    +0.000 OA
ATOM     17  C   UNL     1       8.976  10.149  18.589  0.00  0.00    +0.000 C 
ATOM     18  N   UNL     1       9.346  11.292  17.915  0.00  0.00    +0.000 N 
ATOM     19  H   UNL     1       8.939  11.485  17.006  0.00  0.00    +0.000 HD
BRANCH  18  20
ATOM     20  C   UNL     1      10.146  12.337  18.542  0.00  0.00    +0.000 C 
BRANCH  20  21
ATOM     21  C   UNL     1      10.932  13.182  17.541  0.00  0.00    +0.000 C 
BRANCH  21  22
ATOM     22  N   UNL     1      10.481  14.561  17.512  0.00  0.00    +0.000 N 
ATOM     23  C   UNL     1       9.461  15.105  18.240  0.00  0.00    +0.000 A 
ATOM     24  C   UNL     1       9.438  16.442  17.923  0.00  0.00    +0.000 A 
ATOM     25  C   UNL     1      10.483  16.607  16.997  0.00  0.00    +0.000 A 
ATOM     26  N   UNL     1      11.124  15.463  16.744  0.00  0.00    +0.000 NA
ENDBRANCH  21  22
ENDBRANCH  20  21
ENDBRANCH  18  20
ENDBRANCH  15  17
ENDBRANCH   1  15
TORSDOF 9
ENDMDL
MODEL 9
REMARK VINA RESULT:      -7.1      1.076      1.594
REMARK  Name = 
REMARK  9 active torsions:
REMARK  status: ('A' for Active; 'I' for Inactive)
REMARK    1  A    between atoms: C_2  and  C_3
REMARK    2  A    between atoms: C_3  and  C_4
REMARK    3  A    between atoms: C_4  and  C_5
REMARK    4  A    between atoms: C_8  and  C_9
REMARK    5  A    between atoms: C_9  and  C_10
REMARK    6  A    between atoms: C_10  and  C_11
REMARK    7  A    between atoms: N_18  and  C_19
REMARK    8  A    between atoms: C_19  and  C_20
REMARK    9  A    between atoms: C_20  and  N_21
REMARK                            x       y       z     vdW  Elec       q    Type
REMARK                         _______ _______ _______ _____ _____    ______ ____
ROOT
ATOM      1  C   UNL     1       7.560   5.524  18.262  0.00  0.00    +0.000 C 
ENDROOT
BRANCH   1   2
ATOM      2  C   UNL     1       7.741   6.974  18.036  0.00  0.00    +0.000 A 
ATOM      3  N   UNL     1       7.250   7.746  17.091  0.00  0.00    +0.000 NA
ATOM      4  N   UNL     1       7.734   9.014  17.340  0.00  0.00    +0.000 NA
ATOM      5  C   UNL     1       8.487   8.922  18.412  0.00  0.00    +0.000 A 
ATOM      6  O   UNL     1       8.543   7.651  18.913  0.00  0.00    +0.000 OA
BRANCH   5   7
ATOM      7  C   UNL     1       9.293   9.956  19.099  0.00  0.00    +0.000 C 
BRANCH   7   8
ATOM      8  C   UNL     1       9.515  11.215  18.261  0.00  0.00    +0.000 C 
BRANCH   8   9
ATOM      9  C   UNL     1       9.173  12.575  18.915  0.00  0.00    +0.000 C 
ATOM     10  C   UNL     1      10.002  12.936  20.162  0.00  0.00    +0.000 C 
ATOM     11  C   UNL     1      11.445  13.351  19.864  0.00  0.00    +0.000 C 
ATOM     12  C   UNL     1      11.545  14.401  18.760  0.00  0.00    +0.000 C 
ATOM     13  C   UNL     1      10.762  13.999  17.517  0.00  0.00    +0.000 C 
ATOM     14  C   UNL     1       9.306  13.698  17.867  0.00  0.00    +0.000 C 
ENDBRANCH   8   9
ENDBRANCH   7   8
ENDBRANCH   5   7
ENDBRANCH   1   2
BRANCH   1  15
ATOM     15  C   UNL     1       6.932   4.849  17.050  0.00  0.00    +0.000 C 
BRANCH  15  17
ATOM     16  O   UNL     1       4.663   5.451  17.628  0.00  0.00    +0.000 OA
ATOM     17  C   UNL     1       5.459   4.589  17.272  0.00  0.00    +0.000 C 
ATOM     18  N   UNL     1       5.094   3.283  17.029  0.00  0.00    +0.000 N 
ATOM     19  H   UNL     1       5.814   2.596  16.832  0.00  0.00    +0.000 HD
BRANCH  18  20
ATOM     20  C   UNL     1       3.733   2.806  17.244  0.00  0.00    +0.000 C 
BRANCH  20  21
ATOM     21  C   UNL     1       3.501   2.248  18.648  0.00  0.00    +0.000 C 
BRANCH  21  22
ATOM     22  N   UNL     1       2.627   3.095  19.439  0.00  0.00    +0.000 N 
ATOM     23  C   UNL     1       1.261   3.074  19.454  0.00  0.00    +0.000 A 
ATOM     24  C   UNL     1       0.878   4.008  20.387  0.00  0.00    +0.000 A 
ATOM     25  C   UNL     1       2.084   4.537  20.880  0.00  0.00    +0.000 A 
ATOM     26  N   UNL     1       3.155   3.981  20.306  0.00  0.00    +0.000 NA
ENDBRANCH  21  22
ENDBRANCH  20  21
ENDBRANCH  18  20
ENDBRANCH  15  17
ENDBRANCH   1  15
TORSDOF 9
ENDMDL
