MODEL 1
REMARK VINA RESULT:      -7.3      0.000      0.000
REMARK  Name = 
REMARK  8 active torsions:
REMARK  status: ('A' for Active; 'I' for Inactive)
REMARK    1  A    between atoms: C_1  and  S_2
REMARK    2  A    between atoms: S_2  and  C_3
REMARK    3  A    between atoms: C_6  and  S_7
REMARK    4  A    between atoms: S_7  and  C_8
REMARK    5  A    between atoms: C_8  and  C_9
REMARK    6  A    between atoms: C_14  and  C_15
REMARK    7  A    between atoms: N_17  and  C_18
REMARK    8  A    between atoms: C_18  and  C_19
REMARK                            x       y       z     vdW  Elec       q    Type
REMARK                         _______ _______ _______ _____ _____    ______ ____
ROOT
ATOM      1  C   UNL     1       5.953   4.657  17.849  0.00  0.00    +0.000 C 
ATOM      2  C   UNL     1       7.422   4.812  18.305  0.00  0.00    +0.000 C 
ATOM      3  C   UNL     1       7.825   6.249  18.619  0.00  0.00    +0.000 C 
ATOM      4  C   UNL     1       7.479   7.216  17.494  0.00  0.00    +0.000 C 
ATOM      5  C   UNL     1       6.039   7.061  17.003  0.00  0.00    +0.000 C 
ATOM      6  C   UNL     1       5.671   5.605  16.653  0.00  0.00    +0.000 C 
ENDROOT
BRANCH   6   7
ATOM      7  C   UNL     1       6.375   5.158  15.359  0.00  0.00    +0.000 C 
ATOM      8  O   UNL     1       7.437   5.636  14.971  0.00  0.00    +0.000 OA
ATOM      9  N   UNL     1       5.718   4.205  14.614  0.00  0.00    +0.000 N 
ATOM     10  H   UNL     1       4.751   3.980  14.814  0.00  0.00    +0.000 HD
BRANCH   9  11
ATOM     11  C   UNL     1       6.299   3.789  13.345  0.00  0.00    +0.000 C 
BRANCH  11  12
ATOM     12  C   UNL     1       5.296   3.430  12.330  0.00  0.00    +0.000 C 
ATOM     13  N   UNL     1       4.512   3.135  11.530  0.00  0.00    +0.000 NA
ENDBRANCH  11  12
ENDBRANCH   9  11
ENDBRANCH   6   7
BRANCH   1  14
ATOM     14  C   UNL     1       4.913   4.881  18.984  0.00  0.00    +0.000 C 
BRANCH  14  15
ATOM     15  S   UNL     1       3.220   4.997  18.300  0.00  0.00    +0.000 S 
BRANCH  15  19
ATOM     16  C   UNL     1       1.428   9.125  19.256  0.00  0.00    +0.000 A 
ATOM     17  C   UNL     1       1.921   8.808  17.990  0.00  0.00    +0.000 A 
ATOM     18  C   UNL     1       2.506   7.559  17.759  0.00  0.00    +0.000 A 
ATOM     19  C   UNL     1       2.627   6.610  18.786  0.00  0.00    +0.000 A 
ATOM     20  C   UNL     1       2.185   6.957  20.064  0.00  0.00    +0.000 A 
ATOM     21  C   UNL     1       1.597   8.210  20.296  0.00  0.00    +0.000 A 
BRANCH  16  23
ATOM     22  C   UNL     1      -0.392  10.246  20.982  0.00  0.00    +0.000 C 
ATOM     23  S   UNL     1       0.577  10.672  19.505  0.00  0.00    +0.000 S 
ENDBRANCH  16  23
ENDBRANCH  15  19
ENDBRANCH  14  15
ENDBRANCH   1  14
TORSDOF 7
ENDMDL
MODEL 2
REMARK VINA RESULT:      -7.2      0.495      1.133
REMARK  Name = 
REMARK  8 active torsions:
REMARK  status: ('A' for Active; 'I' for Inactive)
REMARK    1  A    between atoms: C_1  and  S_2
REMARK    2  A    between atoms: S_2  and  C_3
REMARK    3  A    between atoms: C_6  and  S_7
REMARK    4  A    between atoms: S_7  and  C_8
REMARK    5  A    between atoms: C_8  and  C_9
REMARK    6  A    between atoms: C_14  and  C_15
REMARK    7  A    between atoms: N_17  and  C_18
REMARK    8  A    between atoms: C_18  and  C_19
REMARK                            x       y       z     vdW  Elec       q    Type
REMARK                         _______ _______ _______ _____ _____    ______ ____
ROOT
ATOM      1  C   UNL     1       6.130   4.760  18.013  0.00  0.00    +0.000 C 
ATOM      2  C   UNL     1       7.598   5.033  18.414  0.00  0.00    +0.000 C 
ATOM      3  C   UNL     1       7.913   6.509  18.642  0.00  0.00    +0.000 C 
ATOM      4  C   UNL     1       7.471   7.390  17.480  0.00  0.00    +0.000 C 
ATOM      5  C   UNL     1       6.032   7.116  17.044  0.00  0.00    +0.000 C 
ATOM      6  C   UNL     1       5.752   5.622  16.780  0.00  0.00    +0.000 C 
ENDROOT
BRANCH   6   7
ATOM      7  C   UNL     1       6.447   5.155  15.489  0.00  0.00    +0.000 C 
ATOM      8  O   UNL     1       7.546   5.568  15.128  0.00  0.00    +0.000 OA
ATOM      9  N   UNL     1       5.742   4.262  14.714  0.00  0.00    +0.000 N 
ATOM     10  H   UNL     1       4.759   4.098  14.893  0.00  0.00    +0.000 HD
BRANCH   9  11
ATOM     11  C   UNL     1       6.317   3.833  13.446  0.00  0.00    +0.000 C 
BRANCH  11  12
ATOM     12  C   UNL     1       5.308   3.493  12.429  0.00  0.00    +0.000 C 
ATOM     13  N   UNL     1       4.520   3.214  11.628  0.00  0.00    +0.000 NA
ENDBRANCH  11  12
ENDBRANCH   9  11
ENDBRANCH   6   7
BRANCH   1  14
ATOM     14  C   UNL     1       5.110   4.975  19.168  0.00  0.00    +0.000 C 
BRANCH  14  15
ATOM     15  S   UNL     1       3.396   4.732  18.574  0.00  0.00    +0.000 S 
BRANCH  15  19
ATOM     16  C   UNL     1       1.466   8.725  19.797  0.00  0.00    +0.000 A 
ATOM     17  C   UNL     1       1.516   7.632  20.662  0.00  0.00    +0.000 A 
ATOM     18  C   UNL     1       2.064   6.421  20.229  0.00  0.00    +0.000 A 
ATOM     19  C   UNL     1       2.557   6.269  18.924  0.00  0.00    +0.000 A 
ATOM     20  C   UNL     1       2.448   7.349  18.045  0.00  0.00    +0.000 A 
ATOM     21  C   UNL     1       1.899   8.565  18.479  0.00  0.00    +0.000 A 
BRANCH  16  23
ATOM     22  C   UNL     1       0.325   9.795  22.055  0.00  0.00    +0.000 C 
ATOM     23  S   UNL     1       0.876  10.296  20.398  0.00  0.00    +0.000 S 
ENDBRANCH  16  23
ENDBRANCH  15  19
ENDBRANCH  14  15
ENDBRANCH   1  14
TORSDOF 7
ENDMDL
MODEL 3
REMARK VINA RESULT:      -6.6      1.262      1.639
REMARK  Name = 
REMARK  8 active torsions:
REMARK  status: ('A' for Active; 'I' for Inactive)
REMARK    1  A    between atoms: C_1  and  S_2
REMARK    2  A    between atoms: S_2  and  C_3
REMARK    3  A    between atoms: C_6  and  S_7
REMARK    4  A    between atoms: S_7  and  C_8
REMARK    5  A    between atoms: C_8  and  C_9
REMARK    6  A    between atoms: C_14  and  C_15
REMARK    7  A    between atoms: N_17  and  C_18
REMARK    8  A    between atoms: C_18  and  C_19
REMARK                            x       y       z     vdW  Elec       q    Type
REMARK                         _______ _______ _______ _____ _____    ______ ____
ROOT
ATOM      1  C   UNL     1       4.882   5.769  17.197  0.00  0.00    +0.000 C 
ATOM      2  C   UNL     1       5.305   4.787  18.313  0.00  0.00    +0.000 C 
ATOM      3  C   UNL     1       6.393   5.329  19.236  0.00  0.00    +0.000 C 
ATOM      4  C   UNL     1       7.597   5.866  18.472  0.00  0.00    +0.000 C 
ATOM      5  C   UNL     1       7.202   6.816  17.340  0.00  0.00    +0.000 C 
ATOM      6  C   UNL     1       6.131   6.228  16.399  0.00  0.00    +0.000 C 
ENDROOT
BRANCH   6   7
ATOM      7  C   UNL     1       6.726   5.109  15.526  0.00  0.00    +0.000 C 
ATOM      8  O   UNL     1       7.793   4.555  15.775  0.00  0.00    +0.000 OA
ATOM      9  N   UNL     1       6.009   4.780  14.397  0.00  0.00    +0.000 N 
ATOM     10  H   UNL     1       5.260   5.383  14.076  0.00  0.00    +0.000 HD
BRANCH   9  11
ATOM     11  C   UNL     1       6.553   3.776  13.494  0.00  0.00    +0.000 C 
BRANCH  11  12
ATOM     12  C   UNL     1       5.608   3.355  12.446  0.00  0.00    +0.000 C 
ATOM     13  N   UNL     1       4.870   3.032  11.614  0.00  0.00    +0.000 NA
ENDBRANCH  11  12
ENDBRANCH   9  11
ENDBRANCH   6   7
BRANCH   1  14
ATOM     14  C   UNL     1       4.076   6.997  17.709  0.00  0.00    +0.000 C 
BRANCH  14  15
ATOM     15  S   UNL     1       2.805   6.480  18.920  0.00  0.00    +0.000 S 
BRANCH  15  19
ATOM     16  C   UNL     1       0.312  10.263  19.720  0.00  0.00    +0.000 A 
ATOM     17  C   UNL     1       0.915  10.022  18.486  0.00  0.00    +0.000 A 
ATOM     18  C   UNL     1       1.708   8.885  18.304  0.00  0.00    +0.000 A 
ATOM     19  C   UNL     1       1.931   7.977  19.350  0.00  0.00    +0.000 A 
ATOM     20  C   UNL     1       1.373   8.256  20.600  0.00  0.00    +0.000 A 
ATOM     21  C   UNL     1       0.576   9.396  20.783  0.00  0.00    +0.000 A 
BRANCH  16  23
ATOM     22  C   UNL     1      -0.138  12.729  18.596  0.00  0.00    +0.000 C 
ATOM     23  S   UNL     1      -0.793  11.650  19.903  0.00  0.00    +0.000 S 
ENDBRANCH  16  23
ENDBRANCH  15  19
ENDBRANCH  14  15
ENDBRANCH   1  14
TORSDOF 7
ENDMDL
MODEL 4
REMARK VINA RESULT:      -6.6      1.044      1.628
REMARK  Name = 
REMARK  8 active torsions:
REMARK  status: ('A' for Active; 'I' for Inactive)
REMARK    1  A    between atoms: C_1  and  S_2
REMARK    2  A    between atoms: S_2  and  C_3
REMARK    3  A    between atoms: C_6  and  S_7
REMARK    4  A    between atoms: S_7  and  C_8
REMARK    5  A    between atoms: C_8  and  C_9
REMARK    6  A    between atoms: C_14  and  C_15
REMARK    7  A    between atoms: N_17  and  C_18
REMARK    8  A    between atoms: C_18  and  C_19
REMARK                            x       y       z     vdW  Elec       q    Type
REMARK                         _______ _______ _______ _____ _____    ______ ____
ROOT
ATOM      1  C   UNL     1       6.193   4.850  18.427  0.00  0.00    +0.000 C 
ATOM      2  C   UNL     1       7.649   5.215  18.795  0.00  0.00    +0.000 C 
ATOM      3  C   UNL     1       7.935   6.714  18.777  0.00  0.00    +0.000 C 
ATOM      4  C   UNL     1       7.497   7.380  17.479  0.00  0.00    +0.000 C 
ATOM      5  C   UNL     1       6.069   7.008  17.076  0.00  0.00    +0.000 C 
ATOM      6  C   UNL     1       5.819   5.487  17.063  0.00  0.00    +0.000 C 
ENDROOT
BRANCH   6   7
ATOM      7  C   UNL     1       6.543   4.824  15.877  0.00  0.00    +0.000 C 
ATOM      8  O   UNL     1       7.718   4.470  15.917  0.00  0.00    +0.000 OA
ATOM      9  N   UNL     1       5.805   4.684  14.723  0.00  0.00    +0.000 N 
ATOM     10  H   UNL     1       4.924   5.173  14.619  0.00  0.00    +0.000 HD
BRANCH   9  11
ATOM     11  C   UNL     1       6.453   4.126  13.544  0.00  0.00    +0.000 C 
BRANCH  11  12
ATOM     12  C   UNL     1       7.447   5.027  12.938  0.00  0.00    +0.000 C 
ATOM     13  N   UNL     1       8.226   5.732  12.451  0.00  0.00    +0.000 NA
ENDBRANCH  11  12
ENDBRANCH   9  11
ENDBRANCH   6   7
BRANCH   1  14
ATOM     14  C   UNL     1       5.150   5.235  19.516  0.00  0.00    +0.000 C 
BRANCH  14  15
ATOM     15  S   UNL     1       3.451   4.864  18.949  0.00  0.00    +0.000 S 
BRANCH  15  19
ATOM     16  C   UNL     1       1.541   9.046  19.117  0.00  0.00    +0.000 A 
ATOM     17  C   UNL     1       1.585   8.208  20.231  0.00  0.00    +0.000 A 
ATOM     18  C   UNL     1       2.127   6.924  20.120  0.00  0.00    +0.000 A 
ATOM     19  C   UNL     1       2.619   6.443  18.897  0.00  0.00    +0.000 A 
ATOM     20  C   UNL     1       2.518   7.266  17.773  0.00  0.00    +0.000 A 
ATOM     21  C   UNL     1       1.975   8.555  17.884  0.00  0.00    +0.000 A 
BRANCH  16  23
ATOM     22  C   UNL     1      -0.513  10.417  20.321  0.00  0.00    +0.000 C 
ATOM     23  S   UNL     1       0.959  10.721  19.300  0.00  0.00    +0.000 S 
ENDBRANCH  16  23
ENDBRANCH  15  19
ENDBRANCH  14  15
ENDBRANCH   1  14
TORSDOF 7
ENDMDL
MODEL 5
REMARK VINA RESULT:      -6.4      2.659      4.573
REMARK  Name = 
REMARK  8 active torsions:
REMARK  status: ('A' for Active; 'I' for Inactive)
REMARK    1  A    between atoms: C_1  and  S_2
REMARK    2  A    between atoms: S_2  and  C_3
REMARK    3  A    between atoms: C_6  and  S_7
REMARK    4  A    between atoms: S_7  and  C_8
REMARK    5  A    between atoms: C_8  and  C_9
REMARK    6  A    between atoms: C_14  and  C_15
REMARK    7  A    between atoms: N_17  and  C_18
REMARK    8  A    between atoms: C_18  and  C_19
REMARK                            x       y       z     vdW  Elec       q    Type
REMARK                         _______ _______ _______ _____ _____    ______ ____
ROOT
ATOM      1  C   UNL     1       3.034   5.922  19.003  0.00  0.00    +0.000 C 
ATOM      2  C   UNL     1       2.357   5.202  17.814  0.00  0.00    +0.000 C 
ATOM      3  C   UNL     1       1.451   4.045  18.226  0.00  0.00    +0.000 C 
ATOM      4  C   UNL     1       2.142   3.062  19.163  0.00  0.00    +0.000 C 
ATOM      5  C   UNL     1       2.847   3.754  20.330  0.00  0.00    +0.000 C 
ATOM      6  C   UNL     1       3.787   4.891  19.883  0.00  0.00    +0.000 C 
ENDROOT
BRANCH   6   7
ATOM      7  C   UNL     1       5.043   4.324  19.197  0.00  0.00    +0.000 C 
ATOM      8  O   UNL     1       5.370   3.142  19.261  0.00  0.00    +0.000 OA
ATOM      9  N   UNL     1       5.827   5.236  18.526  0.00  0.00    +0.000 N 
ATOM     10  H   UNL     1       5.682   6.229  18.662  0.00  0.00    +0.000 HD
BRANCH   9  11
ATOM     11  C   UNL     1       7.064   4.774  17.912  0.00  0.00    +0.000 C 
BRANCH  11  12
ATOM     12  C   UNL     1       7.186   5.137  16.491  0.00  0.00    +0.000 C 
ATOM     13  N   UNL     1       7.269   5.424  15.372  0.00  0.00    +0.000 NA
ENDBRANCH  11  12
ENDBRANCH   9  11
ENDBRANCH   6   7
BRANCH   1  14
ATOM     14  C   UNL     1       2.056   6.771  19.865  0.00  0.00    +0.000 C 
BRANCH  14  15
ATOM     15  S   UNL     1       1.816   8.430  19.131  0.00  0.00    +0.000 S 
BRANCH  15  19
ATOM     16  C   UNL     1      -0.725  10.877  22.084  0.00  0.00    +0.000 A 
ATOM     17  C   UNL     1      -0.453  11.328  20.793  0.00  0.00    +0.000 A 
ATOM     18  C   UNL     1       0.369  10.577  19.947  0.00  0.00    +0.000 A 
ATOM     19  C   UNL     1       0.948   9.372  20.376  0.00  0.00    +0.000 A 
ATOM     20  C   UNL     1       0.720   8.957  21.689  0.00  0.00    +0.000 A 
ATOM     21  C   UNL     1      -0.106   9.711  22.538  0.00  0.00    +0.000 A 
BRANCH  16  23
ATOM     22  C   UNL     1      -2.836  12.615  21.814  0.00  0.00    +0.000 C 
ATOM     23  S   UNL     1      -1.870  11.782  23.108  0.00  0.00    +0.000 S 
ENDBRANCH  16  23
ENDBRANCH  15  19
ENDBRANCH  14  15
ENDBRANCH   1  14
TORSDOF 7
ENDMDL
MODEL 6
REMARK VINA RESULT:      -6.3      2.608      4.562
REMARK  Name = 
REMARK  8 active torsions:
REMARK  status: ('A' for Active; 'I' for Inactive)
REMARK    1  A    between atoms: C_1  and  S_2
REMARK    2  A    between atoms: S_2  and  C_3
REMARK    3  A    between atoms: C_6  and  S_7
REMARK    4  A    between atoms: S_7  and  C_8
REMARK    5  A    between atoms: C_8  and  C_9
REMARK    6  A    between atoms: C_14  and  C_15
REMARK    7  A    between atoms: N_17  and  C_18
REMARK    8  A    between atoms: C_18  and  C_19
REMARK                            x       y       z     vdW  Elec       q    Type
REMARK                         _______ _______ _______ _____ _____    ______ ____
ROOT
ATOM      1  C   UNL     1       3.166   6.137  18.865  0.00  0.00    +0.000 C 
ATOM      2  C   UNL     1       2.449   5.389  17.718  0.00  0.00    +0.000 C 
ATOM      3  C   UNL     1       1.480   4.311  18.192  0.00  0.00    +0.000 C 
ATOM      4  C   UNL     1       2.114   3.346  19.186  0.00  0.00    +0.000 C 
ATOM      5  C   UNL     1       2.857   4.063  20.313  0.00  0.00    +0.000 C 
ATOM      6  C   UNL     1       3.861   5.118  19.805  0.00  0.00    +0.000 C 
ENDROOT
BRANCH   6   7
ATOM      7  C   UNL     1       5.082   4.442  19.155  0.00  0.00    +0.000 C 
ATOM      8  O   UNL     1       5.422   3.288  19.399  0.00  0.00    +0.000 OA
ATOM      9  N   UNL     1       5.820   5.228  18.299  0.00  0.00    +0.000 N 
ATOM     10  H   UNL     1       5.674   6.230  18.274  0.00  0.00    +0.000 HD
BRANCH   9  11
ATOM     11  C   UNL     1       7.026   4.669  17.704  0.00  0.00    +0.000 C 
BRANCH  11  12
ATOM     12  C   UNL     1       7.201   5.024  16.286  0.00  0.00    +0.000 C 
ATOM     13  N   UNL     1       7.335   5.292  15.168  0.00  0.00    +0.000 NA
ENDBRANCH  11  12
ENDBRANCH   9  11
ENDBRANCH   6   7
BRANCH   1  14
ATOM     14  C   UNL     1       2.238   7.088  19.675  0.00  0.00    +0.000 C 
BRANCH  14  15
ATOM     15  S   UNL     1       1.818   8.575  18.695  0.00  0.00    +0.000 S 
BRANCH  15  19
ATOM     16  C   UNL     1      -0.653  11.110  21.634  0.00  0.00    +0.000 A 
ATOM     17  C   UNL     1       0.052   9.979  22.044  0.00  0.00    +0.000 A 
ATOM     18  C   UNL     1       0.746   9.207  21.107  0.00  0.00    +0.000 A 
ATOM     19  C   UNL     1       0.737   9.536  19.743  0.00  0.00    +0.000 A 
ATOM     20  C   UNL     1      -0.020  10.636  19.331  0.00  0.00    +0.000 A 
ATOM     21  C   UNL     1      -0.715  11.411  20.272  0.00  0.00    +0.000 A 
BRANCH  16  23
ATOM     22  C   UNL     1      -1.458  13.720  21.936  0.00  0.00    +0.000 C 
ATOM     23  S   UNL     1      -1.431  12.151  22.853  0.00  0.00    +0.000 S 
ENDBRANCH  16  23
ENDBRANCH  15  19
ENDBRANCH  14  15
ENDBRANCH   1  14
TORSDOF 7
ENDMDL
MODEL 7
REMARK VINA RESULT:      -6.3      2.511      4.052
REMARK  Name = 
REMARK  8 active torsions:
REMARK  status: ('A' for Active; 'I' for Inactive)
REMARK    1  A    between atoms: C_1  and  S_2
REMARK    2  A    between atoms: S_2  and  C_3
REMARK    3  A    between atoms: C_6  and  S_7
REMARK    4  A    between atoms: S_7  and  C_8
REMARK    5  A    between atoms: C_8  and  C_9
REMARK    6  A    between atoms: C_14  and  C_15
REMARK    7  A    between atoms: N_17  and  C_18
REMARK    8  A    between atoms: C_18  and  C_19
REMARK                            x       y       z     vdW  Elec       q    Type
REMARK                         _______ _______ _______ _____ _____    ______ ____
ROOT
ATOM      1  C   UNL     1       2.886   4.638  18.298  0.00  0.00    +0.000 C 
ATOM      2  C   UNL     1       2.732   3.564  17.197  0.00  0.00    +0.000 C 
ATOM      3  C   UNL     1       2.712   2.133  17.725  0.00  0.00    +0.000 C 
ATOM      4  C   UNL     1       3.886   1.831  18.647  0.00  0.00    +0.000 C 
ATOM      5  C   UNL     1       4.079   2.896  19.727  0.00  0.00    +0.000 C 
ATOM      6  C   UNL     1       4.137   4.330  19.162  0.00  0.00    +0.000 C 
ENDROOT
BRANCH   6   7
ATOM      7  C   UNL     1       5.457   4.567  18.407  0.00  0.00    +0.000 C 
ATOM      8  O   UNL     1       6.516   4.026  18.715  0.00  0.00    +0.000 OA
ATOM      9  N   UNL     1       5.404   5.471  17.370  0.00  0.00    +0.000 N 
ATOM     10  H   UNL     1       4.598   6.076  17.263  0.00  0.00    +0.000 HD
BRANCH   9  11
ATOM     11  C   UNL     1       6.634   5.790  16.659  0.00  0.00    +0.000 C 
BRANCH  11  12
ATOM     12  C   UNL     1       7.244   7.061  17.081  0.00  0.00    +0.000 C 
ATOM     13  N   UNL     1       7.734   8.055  17.417  0.00  0.00    +0.000 NA
ENDBRANCH  11  12
ENDBRANCH   9  11
ENDBRANCH   6   7
BRANCH   1  14
ATOM     14  C   UNL     1       1.626   4.805  19.196  0.00  0.00    +0.000 C 
BRANCH  14  15
ATOM     15  S   UNL     1       2.038   5.717  20.728  0.00  0.00    +0.000 S 
BRANCH  15  19
ATOM     16  C   UNL     1       0.904   9.995  19.469  0.00  0.00    +0.000 A 
ATOM     17  C   UNL     1       1.653   9.156  18.645  0.00  0.00    +0.000 A 
ATOM     18  C   UNL     1       2.021   7.883  19.091  0.00  0.00    +0.000 A 
ATOM     19  C   UNL     1       1.665   7.427  20.370  0.00  0.00    +0.000 A 
ATOM     20  C   UNL     1       0.966   8.295  21.212  0.00  0.00    +0.000 A 
ATOM     21  C   UNL     1       0.597   9.573  20.764  0.00  0.00    +0.000 A 
BRANCH  16  23
ATOM     22  C   UNL     1      -0.623  12.131  20.278  0.00  0.00    +0.000 C 
ATOM     23  S   UNL     1       0.340  11.566  18.844  0.00  0.00    +0.000 S 
ENDBRANCH  16  23
ENDBRANCH  15  19
ENDBRANCH  14  15
ENDBRANCH   1  14
TORSDOF 7
ENDMDL
MODEL 8
REMARK VINA RESULT:      -6.3      1.476      1.746
REMARK  Name = 
REMARK  8 active torsions:
REMARK  status: ('A' for Active; 'I' for Inactive)
REMARK    1  A    between atoms: C_1  and  S_2
REMARK    2  A    between atoms: S_2  and  C_3
REMARK    3  A    between atoms: C_6  and  S_7
REMARK    4  A    between atoms: S_7  and  C_8
REMARK    5  A    between atoms: C_8  and  C_9
REMARK    6  A    between atoms: C_14  and  C_15
REMARK    7  A    between atoms: N_17  and  C_18
REMARK    8  A    between atoms: C_18  and  C_19
REMARK                            x       y       z     vdW  Elec       q    Type
REMARK                         _______ _______ _______ _____ _____    ______ ____
ROOT
ATOM      1  C   UNL     1       5.614   4.708  18.361  0.00  0.00    +0.000 C 
ATOM      2  C   UNL     1       7.120   4.846  18.678  0.00  0.00    +0.000 C 
ATOM      3  C   UNL     1       7.627   6.286  18.663  0.00  0.00    +0.000 C 
ATOM      4  C   UNL     1       7.248   7.029  17.388  0.00  0.00    +0.000 C 
ATOM      5  C   UNL     1       5.767   6.880  17.035  0.00  0.00    +0.000 C 
ATOM      6  C   UNL     1       5.292   5.413  17.017  0.00  0.00    +0.000 C 
ENDROOT
BRANCH   6   7
ATOM      7  C   UNL     1       5.866   4.667  15.800  0.00  0.00    +0.000 C 
ATOM      8  O   UNL     1       6.049   3.453  15.778  0.00  0.00    +0.000 OA
ATOM      9  N   UNL     1       6.216   5.451  14.723  0.00  0.00    +0.000 N 
ATOM     10  H   UNL     1       6.276   6.457  14.824  0.00  0.00    +0.000 HD
BRANCH   9  11
ATOM     11  C   UNL     1       6.828   4.813  13.566  0.00  0.00    +0.000 C 
BRANCH  11  12
ATOM     12  C   UNL     1       8.065   5.472  13.117  0.00  0.00    +0.000 C 
ATOM     13  N   UNL     1       9.045   5.983  12.771  0.00  0.00    +0.000 NA
ENDBRANCH  11  12
ENDBRANCH   9  11
ENDBRANCH   6   7
BRANCH   1  14
ATOM     14  C   UNL     1       4.680   5.228  19.492  0.00  0.00    +0.000 C 
BRANCH  14  15
ATOM     15  S   UNL     1       2.936   5.236  18.941  0.00  0.00    +0.000 S 
BRANCH  15  19
ATOM     16  C   UNL     1       1.060   9.343  19.830  0.00  0.00    +0.000 A 
ATOM     17  C   UNL     1       1.612   9.035  18.586  0.00  0.00    +0.000 A 
ATOM     18  C   UNL     1       2.220   7.793  18.377  0.00  0.00    +0.000 A 
ATOM     19  C   UNL     1       2.305   6.841  19.405  0.00  0.00    +0.000 A 
ATOM     20  C   UNL     1       1.803   7.179  20.664  0.00  0.00    +0.000 A 
ATOM     21  C   UNL     1       1.193   8.425  20.874  0.00  0.00    +0.000 A 
BRANCH  16  23
ATOM     22  C   UNL     1      -0.555  11.039  18.394  0.00  0.00    +0.000 C 
ATOM     23  S   UNL     1       0.184  10.879  20.046  0.00  0.00    +0.000 S 
ENDBRANCH  16  23
ENDBRANCH  15  19
ENDBRANCH  14  15
ENDBRANCH   1  14
TORSDOF 7
ENDMDL
MODEL 9
REMARK VINA RESULT:      -6.3      2.075      3.511
REMARK  Name = 
REMARK  8 active torsions:
REMARK  status: ('A' for Active; 'I' for Inactive)
REMARK    1  A    between atoms: C_1  and  S_2
REMARK    2  A    between atoms: S_2  and  C_3
REMARK    3  A    between atoms: C_6  and  S_7
REMARK    4  A    between atoms: S_7  and  C_8
REMARK    5  A    between atoms: C_8  and  C_9
REMARK    6  A    between atoms: C_14  and  C_15
REMARK    7  A    between atoms: N_17  and  C_18
REMARK    8  A    between atoms: C_18  and  C_19
REMARK                            x       y       z     vdW  Elec       q    Type
REMARK                         _______ _______ _______ _____ _____    ______ ____
ROOT
ATOM      1  C   UNL     1       2.966   4.692  17.996  0.00  0.00    +0.000 C 
ATOM      2  C   UNL     1       2.689   3.457  17.109  0.00  0.00    +0.000 C 
ATOM      3  C   UNL     1       2.653   2.138  17.877  0.00  0.00    +0.000 C 
ATOM      4  C   UNL     1       3.880   1.938  18.757  0.00  0.00    +0.000 C 
ATOM      5  C   UNL     1       4.194   3.160  19.621  0.00  0.00    +0.000 C 
ATOM      6  C   UNL     1       4.265   4.472  18.814  0.00  0.00    +0.000 C 
ENDROOT
BRANCH   6   7
ATOM      7  C   UNL     1       5.533   4.510  17.942  0.00  0.00    +0.000 C 
ATOM      8  O   UNL     1       6.633   4.132  18.336  0.00  0.00    +0.000 OA
ATOM      9  N   UNL     1       5.382   5.043  16.682  0.00  0.00    +0.000 N 
ATOM     10  H   UNL     1       4.541   5.554  16.443  0.00  0.00    +0.000 HD
BRANCH   9  11
ATOM     11  C   UNL     1       6.558   5.169  15.833  0.00  0.00    +0.000 C 
BRANCH  11  12
ATOM     12  C   UNL     1       6.448   4.431  14.564  0.00  0.00    +0.000 C 
ATOM     13  N   UNL     1       6.355   3.842  13.571  0.00  0.00    +0.000 NA
ENDBRANCH  11  12
ENDBRANCH   9  11
ENDBRANCH   6   7
BRANCH   1  14
ATOM     14  C   UNL     1       1.784   5.073  18.933  0.00  0.00    +0.000 C 
BRANCH  14  15
ATOM     15  S   UNL     1       2.332   6.250  20.223  0.00  0.00    +0.000 S 
BRANCH  15  19
ATOM     16  C   UNL     1       1.100  10.535  19.085  0.00  0.00    +0.000 A 
ATOM     17  C   UNL     1       0.753   9.966  20.311  0.00  0.00    +0.000 A 
ATOM     18  C   UNL     1       1.103   8.642  20.592  0.00  0.00    +0.000 A 
ATOM     19  C   UNL     1       1.788   7.854  19.655  0.00  0.00    +0.000 A 
ATOM     20  C   UNL     1       2.079   8.411  18.408  0.00  0.00    +0.000 A 
ATOM     21  C   UNL     1       1.729   9.740  18.125  0.00  0.00    +0.000 A 
BRANCH  16  23
ATOM     22  C   UNL     1      -1.022  12.150  18.424  0.00  0.00    +0.000 C 
ATOM     23  S   UNL     1       0.755  12.258  18.787  0.00  0.00    +0.000 S 
ENDBRANCH  16  23
ENDBRANCH  15  19
ENDBRANCH  14  15
ENDBRANCH   1  14
TORSDOF 7
ENDMDL
