MODEL 1
REMARK VINA RESULT:      -8.2      0.000      0.000
REMARK  Name = 
REMARK  13 active torsions:
REMARK  status: ('A' for Active; 'I' for Inactive)
REMARK    1  A    between atoms: C_1  and  C_2
REMARK    2  A    between atoms: C_2  and  N_3
REMARK    3  A    between atoms: N_3  and  C_4
REMARK    4  A    between atoms: N_3  and  C_6
REMARK    5  A    between atoms: C_4  and  C_5
REMARK    6  A    between atoms: C_6  and  C_7
REMARK    7  A    between atoms: C_7  and  C_8
REMARK    8  A    between atoms: C_8  and  C_9
REMARK    9  A    between atoms: C_9  and  C_10
REMARK   10  A    between atoms: C_9  and  N_11
REMARK   11  A    between atoms: N_11  and  C_12
REMARK   12  A    between atoms: C_15  and  N_16
REMARK   13  A    between atoms: C_17  and  C_19
REMARK                            x       y       z     vdW  Elec       q    Type
REMARK                         _______ _______ _______ _____ _____    ______ ____
ROOT
ATOM      1  C   UNL     1       2.566   5.254  18.602  0.00  0.00    +0.000 A 
ATOM      2  C   UNL     1       2.729   6.614  18.396  0.00  0.00    +0.000 A 
ATOM      3  C   UNL     1       2.300   7.540  19.343  0.00  0.00    +0.000 A 
ATOM      4  C   UNL     1       1.767   7.170  20.546  0.00  0.00    +0.000 A 
ATOM      5  C   UNL     1       1.497   5.824  20.746  0.00  0.00    +0.000 A 
ATOM      6  C   UNL     1       1.884   4.878  19.776  0.00  0.00    +0.000 A 
ATOM      7  F   UNL     1       1.579   3.590  19.983  0.00  0.00    +0.000 F 
ENDROOT
BRANCH   4   8
ATOM      8  N   UNL     1       1.495   8.119  21.513  0.00  0.00    +0.000 N 
ATOM      9  C   UNL     1       1.113   9.419  21.631  0.00  0.00    +0.000 C 
ATOM     10  O   UNL     1       1.165   9.658  22.863  0.00  0.00    +0.000 OA
ATOM     11  H   UNL     1       1.680   7.803  22.459  0.00  0.00    +0.000 HD
BRANCH   9  12
ATOM     12  C   UNL     1       0.635  10.588  20.706  0.00  0.00    +0.000 A 
ATOM     13  C   UNL     1      -0.340  10.017  19.949  0.00  0.00    +0.000 A 
ATOM     14  C   UNL     1      -0.871  10.617  18.730  0.00  0.00    +0.000 A 
ATOM     15  O   UNL     1      -1.194   9.948  17.762  0.00  0.00    +0.000 OA
ATOM     16  N   UNL     1      -1.004  11.973  18.818  0.00  0.00    +0.000 N 
ATOM     17  C   UNL     1       0.206  12.577  19.177  0.00  0.00    +0.000 A 
ATOM     18  C   UNL     1       0.486  13.753  18.460  0.00  0.00    +0.000 A 
ATOM     19  C   UNL     1       1.562  14.508  18.830  0.00  0.00    +0.000 A 
ATOM     20  F   UNL     1       1.885  15.616  18.154  0.00  0.00    +0.000 F 
ATOM     21  C   UNL     1       2.257  14.148  19.969  0.00  0.00    +0.000 A 
ATOM     22  C   UNL     1       1.920  12.975  20.692  0.00  0.00    +0.000 A 
ATOM     23  C   UNL     1       0.988  12.030  20.250  0.00  0.00    +0.000 A 
ATOM     24  H   UNL     1      -1.632  12.126  19.595  0.00  0.00    +0.000 HD
ENDBRANCH   9  12
ENDBRANCH   4   8
BRANCH   1  25
ATOM     25  N   UNL     1       2.935   4.325  17.645  0.00  0.00    +0.000 N 
ATOM     26  H   UNL     1       2.335   4.257  16.828  0.00  0.00    +0.000 HD
BRANCH  25  27
ATOM     27  C   UNL     1       4.083   3.414  17.753  0.00  0.00    +0.000 C 
ATOM     28  C   UNL     1       3.524   1.990  17.863  0.00  0.00    +0.000 C 
BRANCH  27  29
ATOM     29  C   UNL     1       4.967   3.763  18.960  0.00  0.00    +0.000 C 
BRANCH  29  30
ATOM     30  C   UNL     1       6.080   4.798  18.702  0.00  0.00    +0.000 C 
BRANCH  30  31
ATOM     31  C   UNL     1       7.012   4.522  17.504  0.00  0.00    +0.000 C 
BRANCH  31  32
ATOM     32  N   UNL     1       7.206   5.642  16.565  0.00  0.00    +0.000 NA
BRANCH  32  34
ATOM     33  C   UNL     1       6.339   3.880  14.974  0.00  0.00    +0.000 C 
ATOM     34  C   UNL     1       6.588   5.357  15.256  0.00  0.00    +0.000 C 
ENDBRANCH  32  34
BRANCH  32  35
ATOM     35  C   UNL     1       6.753   6.919  17.159  0.00  0.00    +0.000 C 
ATOM     36  C   UNL     1       7.823   7.889  17.659  0.00  0.00    +0.000 C 
ENDBRANCH  32  35
ENDBRANCH  31  32
ENDBRANCH  30  31
ENDBRANCH  29  30
ENDBRANCH  27  29
ENDBRANCH  25  27
ENDBRANCH   1  25
TORSDOF 10
ENDMDL
MODEL 2
REMARK VINA RESULT:      -8.1      3.449      9.385
REMARK  Name = 
REMARK  13 active torsions:
REMARK  status: ('A' for Active; 'I' for Inactive)
REMARK    1  A    between atoms: C_1  and  C_2
REMARK    2  A    between atoms: C_2  and  N_3
REMARK    3  A    between atoms: N_3  and  C_4
REMARK    4  A    between atoms: N_3  and  C_6
REMARK    5  A    between atoms: C_4  and  C_5
REMARK    6  A    between atoms: C_6  and  C_7
REMARK    7  A    between atoms: C_7  and  C_8
REMARK    8  A    between atoms: C_8  and  C_9
REMARK    9  A    between atoms: C_9  and  C_10
REMARK   10  A    between atoms: C_9  and  N_11
REMARK   11  A    between atoms: N_11  and  C_12
REMARK   12  A    between atoms: C_15  and  N_16
REMARK   13  A    between atoms: C_17  and  C_19
REMARK                            x       y       z     vdW  Elec       q    Type
REMARK                         _______ _______ _______ _____ _____    ______ ____
ROOT
ATOM      1  C   UNL     1       1.530   8.759  20.197  0.00  0.00    +0.000 A 
ATOM      2  C   UNL     1       1.200   7.769  21.107  0.00  0.00    +0.000 A 
ATOM      3  C   UNL     1       1.401   6.424  20.810  0.00  0.00    +0.000 A 
ATOM      4  C   UNL     1       1.992   6.007  19.650  0.00  0.00    +0.000 A 
ATOM      5  C   UNL     1       2.243   6.960  18.674  0.00  0.00    +0.000 A 
ATOM      6  C   UNL     1       2.003   8.322  18.944  0.00  0.00    +0.000 A 
ATOM      7  F   UNL     1       2.223   9.215  17.969  0.00  0.00    +0.000 F 
ENDROOT
BRANCH   4   8
ATOM      8  N   UNL     1       2.305   4.674  19.464  0.00  0.00    +0.000 N 
ATOM      9  C   UNL     1       3.260   3.889  18.895  0.00  0.00    +0.000 C 
ATOM     10  O   UNL     1       2.829   2.716  19.025  0.00  0.00    +0.000 OA
ATOM     11  H   UNL     1       1.591   4.036  19.796  0.00  0.00    +0.000 HD
BRANCH   9  12
ATOM     12  C   UNL     1       4.655   4.054  18.204  0.00  0.00    +0.000 A 
ATOM     13  C   UNL     1       5.490   4.337  19.239  0.00  0.00    +0.000 A 
ATOM     14  C   UNL     1       6.833   4.879  19.067  0.00  0.00    +0.000 A 
ATOM     15  O   UNL     1       7.312   5.693  19.840  0.00  0.00    +0.000 OA
ATOM     16  N   UNL     1       7.490   4.346  17.995  0.00  0.00    +0.000 N 
ATOM     17  C   UNL     1       6.745   4.495  16.821  0.00  0.00    +0.000 A 
ATOM     18  C   UNL     1       7.513   4.877  15.707  0.00  0.00    +0.000 A 
ATOM     19  C   UNL     1       6.921   4.906  14.478  0.00  0.00    +0.000 A 
ATOM     20  F   UNL     1       7.605   5.296  13.397  0.00  0.00    +0.000 F 
ATOM     21  C   UNL     1       5.623   4.442  14.362  0.00  0.00    +0.000 A 
ATOM     22  C   UNL     1       4.891   4.026  15.504  0.00  0.00    +0.000 A 
ATOM     23  C   UNL     1       5.342   4.184  16.818  0.00  0.00    +0.000 A 
ATOM     24  H   UNL     1       7.526   3.351  18.176  0.00  0.00    +0.000 HD
ENDBRANCH   9  12
ENDBRANCH   4   8
BRANCH   1  25
ATOM     25  N   UNL     1       1.283  10.096  20.456  0.00  0.00    +0.000 N 
ATOM     26  H   UNL     1       1.847  10.525  21.184  0.00  0.00    +0.000 HD
BRANCH  25  27
ATOM     27  C   UNL     1       0.248  10.906  19.799  0.00  0.00    +0.000 C 
ATOM     28  C   UNL     1      -0.255  11.924  20.831  0.00  0.00    +0.000 C 
BRANCH  27  29
ATOM     29  C   UNL     1      -0.900  10.031  19.271  0.00  0.00    +0.000 C 
BRANCH  29  30
ATOM     30  C   UNL     1      -1.512  10.467  17.925  0.00  0.00    +0.000 C 
BRANCH  30  31
ATOM     31  C   UNL     1      -2.901  11.135  17.983  0.00  0.00    +0.000 C 
BRANCH  31  32
ATOM     32  N   UNL     1      -3.786  10.887  16.830  0.00  0.00    +0.000 NA
BRANCH  32  34
ATOM     33  C   UNL     1      -6.030  11.327  17.902  0.00  0.00    +0.000 C 
ATOM     34  C   UNL     1      -4.984  11.747  16.878  0.00  0.00    +0.000 C 
ENDBRANCH  32  34
BRANCH  32  35
ATOM     35  C   UNL     1      -3.041  10.994  15.556  0.00  0.00    +0.000 C 
ATOM     36  C   UNL     1      -3.445  10.058  14.417  0.00  0.00    +0.000 C 
ENDBRANCH  32  35
ENDBRANCH  31  32
ENDBRANCH  30  31
ENDBRANCH  29  30
ENDBRANCH  27  29
ENDBRANCH  25  27
ENDBRANCH   1  25
TORSDOF 10
ENDMDL
MODEL 3
REMARK VINA RESULT:      -8.1      3.295      4.414
REMARK  Name = 
REMARK  13 active torsions:
REMARK  status: ('A' for Active; 'I' for Inactive)
REMARK    1  A    between atoms: C_1  and  C_2
REMARK    2  A    between atoms: C_2  and  N_3
REMARK    3  A    between atoms: N_3  and  C_4
REMARK    4  A    between atoms: N_3  and  C_6
REMARK    5  A    between atoms: C_4  and  C_5
REMARK    6  A    between atoms: C_6  and  C_7
REMARK    7  A    between atoms: C_7  and  C_8
REMARK    8  A    between atoms: C_8  and  C_9
REMARK    9  A    between atoms: C_9  and  C_10
REMARK   10  A    between atoms: C_9  and  N_11
REMARK   11  A    between atoms: N_11  and  C_12
REMARK   12  A    between atoms: C_15  and  N_16
REMARK   13  A    between atoms: C_17  and  C_19
REMARK                            x       y       z     vdW  Elec       q    Type
REMARK                         _______ _______ _______ _____ _____    ______ ____
ROOT
ATOM      1  C   UNL     1       2.258   7.600  19.175  0.00  0.00    +0.000 A 
ATOM      2  C   UNL     1       2.213   8.321  17.994  0.00  0.00    +0.000 A 
ATOM      3  C   UNL     1       1.524   9.529  17.916  0.00  0.00    +0.000 A 
ATOM      4  C   UNL     1       0.921  10.103  18.999  0.00  0.00    +0.000 A 
ATOM      5  C   UNL     1       0.859   9.365  20.172  0.00  0.00    +0.000 A 
ATOM      6  C   UNL     1       1.514   8.119  20.252  0.00  0.00    +0.000 A 
ATOM      7  F   UNL     1       1.408   7.415  21.387  0.00  0.00    +0.000 F 
ENDROOT
BRANCH   4   8
ATOM      8  N   UNL     1       0.378  11.371  18.908  0.00  0.00    +0.000 N 
ATOM      9  C   UNL     1      -0.776  11.996  18.552  0.00  0.00    +0.000 C 
ATOM     10  O   UNL     1      -0.512  13.222  18.625  0.00  0.00    +0.000 OA
ATOM     11  H   UNL     1       1.039  12.114  19.111  0.00  0.00    +0.000 HD
BRANCH   9  12
ATOM     12  C   UNL     1      -2.237  11.614  18.140  0.00  0.00    +0.000 A 
ATOM     13  C   UNL     1      -2.081  11.026  16.924  0.00  0.00    +0.000 A 
ATOM     14  C   UNL     1      -3.181  10.782  15.998  0.00  0.00    +0.000 A 
ATOM     15  O   UNL     1      -3.050  10.885  14.789  0.00  0.00    +0.000 OA
ATOM     16  N   UNL     1      -4.329  10.390  16.625  0.00  0.00    +0.000 N 
ATOM     17  C   UNL     1      -4.707  11.311  17.608  0.00  0.00    +0.000 A 
ATOM     18  C   UNL     1      -6.087  11.578  17.632  0.00  0.00    +0.000 A 
ATOM     19  C   UNL     1      -6.591  12.343  18.643  0.00  0.00    +0.000 A 
ATOM     20  F   UNL     1      -7.892  12.650  18.687  0.00  0.00    +0.000 F 
ATOM     21  C   UNL     1      -5.743  12.722  19.667  0.00  0.00    +0.000 A 
ATOM     22  C   UNL     1      -4.361  12.400  19.629  0.00  0.00    +0.000 A 
ATOM     23  C   UNL     1      -3.727  11.825  18.523  0.00  0.00    +0.000 A 
ATOM     24  H   UNL     1      -4.083   9.543  17.119  0.00  0.00    +0.000 HD
ENDBRANCH   9  12
ENDBRANCH   4   8
BRANCH   1  25
ATOM     25  N   UNL     1       2.891   6.371  19.253  0.00  0.00    +0.000 N 
ATOM     26  H   UNL     1       3.868   6.384  19.532  0.00  0.00    +0.000 HD
BRANCH  25  27
ATOM     27  C   UNL     1       2.273   5.082  18.915  0.00  0.00    +0.000 C 
ATOM     28  C   UNL     1       2.373   4.190  20.160  0.00  0.00    +0.000 C 
BRANCH  27  29
ATOM     29  C   UNL     1       2.957   4.430  17.704  0.00  0.00    +0.000 C 
BRANCH  29  30
ATOM     30  C   UNL     1       4.486   4.258  17.807  0.00  0.00    +0.000 C 
BRANCH  30  31
ATOM     31  C   UNL     1       5.249   4.056  16.482  0.00  0.00    +0.000 C 
BRANCH  31  32
ATOM     32  N   UNL     1       6.431   4.913  16.280  0.00  0.00    +0.000 NA
BRANCH  32  34
ATOM     33  C   UNL     1       6.101   3.933  13.975  0.00  0.00    +0.000 C 
ATOM     34  C   UNL     1       6.899   4.861  14.882  0.00  0.00    +0.000 C 
ENDBRANCH  32  34
BRANCH  32  35
ATOM     35  C   UNL     1       6.180   6.289  16.761  0.00  0.00    +0.000 C 
ATOM     36  C   UNL     1       7.318   7.008  17.484  0.00  0.00    +0.000 C 
ENDBRANCH  32  35
ENDBRANCH  31  32
ENDBRANCH  30  31
ENDBRANCH  29  30
ENDBRANCH  27  29
ENDBRANCH  25  27
ENDBRANCH   1  25
TORSDOF 10
ENDMDL
MODEL 4
REMARK VINA RESULT:      -8.0      3.288      4.783
REMARK  Name = 
REMARK  13 active torsions:
REMARK  status: ('A' for Active; 'I' for Inactive)
REMARK    1  A    between atoms: C_1  and  C_2
REMARK    2  A    between atoms: C_2  and  N_3
REMARK    3  A    between atoms: N_3  and  C_4
REMARK    4  A    between atoms: N_3  and  C_6
REMARK    5  A    between atoms: C_4  and  C_5
REMARK    6  A    between atoms: C_6  and  C_7
REMARK    7  A    between atoms: C_7  and  C_8
REMARK    8  A    between atoms: C_8  and  C_9
REMARK    9  A    between atoms: C_9  and  C_10
REMARK   10  A    between atoms: C_9  and  N_11
REMARK   11  A    between atoms: N_11  and  C_12
REMARK   12  A    between atoms: C_15  and  N_16
REMARK   13  A    between atoms: C_17  and  C_19
REMARK                            x       y       z     vdW  Elec       q    Type
REMARK                         _______ _______ _______ _____ _____    ______ ____
ROOT
ATOM      1  C   UNL     1       1.945   7.526  19.764  0.00  0.00    +0.000 A 
ATOM      2  C   UNL     1       1.363   8.192  20.829  0.00  0.00    +0.000 A 
ATOM      3  C   UNL     1       0.930   9.510  20.702  0.00  0.00    +0.000 A 
ATOM      4  C   UNL     1       0.983  10.191  19.518  0.00  0.00    +0.000 A 
ATOM      5  C   UNL     1       1.649   9.593  18.458  0.00  0.00    +0.000 A 
ATOM      6  C   UNL     1       2.134   8.276  18.587  0.00  0.00    +0.000 A 
ATOM      7  F   UNL     1       2.802   7.739  17.557  0.00  0.00    +0.000 F 
ENDROOT
BRANCH   4   8
ATOM      8  N   UNL     1       0.406  11.441  19.403  0.00  0.00    +0.000 N 
ATOM      9  C   UNL     1      -0.746  12.031  18.984  0.00  0.00    +0.000 C 
ATOM     10  O   UNL     1      -0.527  13.265  19.079  0.00  0.00    +0.000 OA
ATOM     11  H   UNL     1       1.028  12.203  19.649  0.00  0.00    +0.000 HD
BRANCH   9  12
ATOM     12  C   UNL     1      -2.167  11.605  18.484  0.00  0.00    +0.000 A 
ATOM     13  C   UNL     1      -1.912  10.962  17.313  0.00  0.00    +0.000 A 
ATOM     14  C   UNL     1      -2.937  10.656  16.322  0.00  0.00    +0.000 A 
ATOM     15  O   UNL     1      -2.718  10.703  15.122  0.00  0.00    +0.000 OA
ATOM     16  N   UNL     1      -4.124  10.275  16.881  0.00  0.00    +0.000 N 
ATOM     17  C   UNL     1      -4.586  11.236  17.786  0.00  0.00    +0.000 A 
ATOM     18  C   UNL     1      -5.968  11.480  17.695  0.00  0.00    +0.000 A 
ATOM     19  C   UNL     1      -6.556  12.285  18.628  0.00  0.00    +0.000 A 
ATOM     20  F   UNL     1      -7.860  12.571  18.560  0.00  0.00    +0.000 F 
ATOM     21  C   UNL     1      -5.791  12.726  19.692  0.00  0.00    +0.000 A 
ATOM     22  C   UNL     1      -4.407  12.425  19.772  0.00  0.00    +0.000 A 
ATOM     23  C   UNL     1      -3.684  11.809  18.745  0.00  0.00    +0.000 A 
ATOM     24  H   UNL     1      -3.904   9.456  17.432  0.00  0.00    +0.000 HD
ENDBRANCH   9  12
ENDBRANCH   4   8
BRANCH   1  25
ATOM     25  N   UNL     1       2.433   6.237  19.892  0.00  0.00    +0.000 N 
ATOM     26  H   UNL     1       3.413   6.101  19.663  0.00  0.00    +0.000 HD
BRANCH  25  27
ATOM     27  C   UNL     1       1.632   5.068  20.280  0.00  0.00    +0.000 C 
ATOM     28  C   UNL     1       2.396   4.343  21.396  0.00  0.00    +0.000 C 
BRANCH  27  29
ATOM     29  C   UNL     1       1.376   4.138  19.084  0.00  0.00    +0.000 C 
BRANCH  29  30
ATOM     30  C   UNL     1       2.006   4.576  17.746  0.00  0.00    +0.000 C 
BRANCH  30  31
ATOM     31  C   UNL     1       3.454   4.114  17.482  0.00  0.00    +0.000 C 
BRANCH  31  32
ATOM     32  N   UNL     1       4.511   5.094  17.792  0.00  0.00    +0.000 NA
BRANCH  32  34
ATOM     33  C   UNL     1       6.683   5.428  19.039  0.00  0.00    +0.000 C 
ATOM     34  C   UNL     1       5.441   4.575  18.813  0.00  0.00    +0.000 C 
ENDBRANCH  32  34
BRANCH  32  35
ATOM     35  C   UNL     1       5.192   5.550  16.560  0.00  0.00    +0.000 C 
ATOM     36  C   UNL     1       5.441   4.517  15.462  0.00  0.00    +0.000 C 
ENDBRANCH  32  35
ENDBRANCH  31  32
ENDBRANCH  30  31
ENDBRANCH  29  30
ENDBRANCH  27  29
ENDBRANCH  25  27
ENDBRANCH   1  25
TORSDOF 10
ENDMDL
MODEL 5
REMARK VINA RESULT:      -8.0      3.445      9.435
REMARK  Name = 
REMARK  13 active torsions:
REMARK  status: ('A' for Active; 'I' for Inactive)
REMARK    1  A    between atoms: C_1  and  C_2
REMARK    2  A    between atoms: C_2  and  N_3
REMARK    3  A    between atoms: N_3  and  C_4
REMARK    4  A    between atoms: N_3  and  C_6
REMARK    5  A    between atoms: C_4  and  C_5
REMARK    6  A    between atoms: C_6  and  C_7
REMARK    7  A    between atoms: C_7  and  C_8
REMARK    8  A    between atoms: C_8  and  C_9
REMARK    9  A    between atoms: C_9  and  C_10
REMARK   10  A    between atoms: C_9  and  N_11
REMARK   11  A    between atoms: N_11  and  C_12
REMARK   12  A    between atoms: C_15  and  N_16
REMARK   13  A    between atoms: C_17  and  C_19
REMARK                            x       y       z     vdW  Elec       q    Type
REMARK                         _______ _______ _______ _____ _____    ______ ____
ROOT
ATOM      1  C   UNL     1       1.632   8.984  19.678  0.00  0.00    +0.000 A 
ATOM      2  C   UNL     1       1.377   8.127  20.735  0.00  0.00    +0.000 A 
ATOM      3  C   UNL     1       1.661   6.767  20.642  0.00  0.00    +0.000 A 
ATOM      4  C   UNL     1       2.265   6.215  19.548  0.00  0.00    +0.000 A 
ATOM      5  C   UNL     1       2.443   7.020  18.433  0.00  0.00    +0.000 A 
ATOM      6  C   UNL     1       2.118   8.390  18.497  0.00  0.00    +0.000 A 
ATOM      7  F   UNL     1       2.270   9.134  17.393  0.00  0.00    +0.000 F 
ENDROOT
BRANCH   4   8
ATOM      8  N   UNL     1       2.662   4.891  19.561  0.00  0.00    +0.000 N 
ATOM      9  C   UNL     1       3.626   4.079  19.050  0.00  0.00    +0.000 C 
ATOM     10  O   UNL     1       3.295   2.922  19.412  0.00  0.00    +0.000 OA
ATOM     11  H   UNL     1       2.024   4.278  20.056  0.00  0.00    +0.000 HD
BRANCH   9  12
ATOM     12  C   UNL     1       4.948   4.206  18.222  0.00  0.00    +0.000 A 
ATOM     13  C   UNL     1       5.872   4.570  19.151  0.00  0.00    +0.000 A 
ATOM     14  C   UNL     1       7.184   5.111  18.816  0.00  0.00    +0.000 A 
ATOM     15  O   UNL     1       7.719   5.983  19.481  0.00  0.00    +0.000 OA
ATOM     16  N   UNL     1       7.747   4.507  17.728  0.00  0.00    +0.000 N 
ATOM     17  C   UNL     1       6.894   4.565  16.621  0.00  0.00    +0.000 A 
ATOM     18  C   UNL     1       7.550   4.872  15.416  0.00  0.00    +0.000 A 
ATOM     19  C   UNL     1       6.846   4.806  14.249  0.00  0.00    +0.000 A 
ATOM     20  F   UNL     1       7.421   5.123  13.084  0.00  0.00    +0.000 F 
ATOM     21  C   UNL     1       5.551   4.324  14.288  0.00  0.00    +0.000 A 
ATOM     22  C   UNL     1       4.934   3.985  15.520  0.00  0.00    +0.000 A 
ATOM     23  C   UNL     1       5.503   4.242  16.772  0.00  0.00    +0.000 A 
ATOM     24  H   UNL     1       7.815   3.529  17.976  0.00  0.00    +0.000 HD
ENDBRANCH   9  12
ENDBRANCH   4   8
BRANCH   1  25
ATOM     25  N   UNL     1       1.302  10.327  19.735  0.00  0.00    +0.000 N 
ATOM     26  H   UNL     1       1.814  10.888  20.409  0.00  0.00    +0.000 HD
BRANCH  25  27
ATOM     27  C   UNL     1       0.248  10.971  18.940  0.00  0.00    +0.000 C 
ATOM     28  C   UNL     1       0.719  12.399  18.633  0.00  0.00    +0.000 C 
BRANCH  27  29
ATOM     29  C   UNL     1      -1.096  10.974  19.684  0.00  0.00    +0.000 C 
BRANCH  29  30
ATOM     30  C   UNL     1      -2.142  11.988  19.178  0.00  0.00    +0.000 C 
BRANCH  30  31
ATOM     31  C   UNL     1      -3.416  11.402  18.536  0.00  0.00    +0.000 C 
BRANCH  31  32
ATOM     32  N   UNL     1      -3.504  11.501  17.067  0.00  0.00    +0.000 NA
BRANCH  32  34
ATOM     33  C   UNL     1      -2.950  10.282  14.925  0.00  0.00    +0.000 C 
ATOM     34  C   UNL     1      -2.667  10.480  16.409  0.00  0.00    +0.000 C 
ENDBRANCH  32  34
BRANCH  32  35
ATOM     35  C   UNL     1      -4.913  11.481  16.616  0.00  0.00    +0.000 C 
ATOM     36  C   UNL     1      -5.876  12.484  17.250  0.00  0.00    +0.000 C 
ENDBRANCH  32  35
ENDBRANCH  31  32
ENDBRANCH  30  31
ENDBRANCH  29  30
ENDBRANCH  27  29
ENDBRANCH  25  27
ENDBRANCH   1  25
TORSDOF 10
ENDMDL
MODEL 6
REMARK VINA RESULT:      -8.0      3.340      4.816
REMARK  Name = 
REMARK  13 active torsions:
REMARK  status: ('A' for Active; 'I' for Inactive)
REMARK    1  A    between atoms: C_1  and  C_2
REMARK    2  A    between atoms: C_2  and  N_3
REMARK    3  A    between atoms: N_3  and  C_4
REMARK    4  A    between atoms: N_3  and  C_6
REMARK    5  A    between atoms: C_4  and  C_5
REMARK    6  A    between atoms: C_6  and  C_7
REMARK    7  A    between atoms: C_7  and  C_8
REMARK    8  A    between atoms: C_8  and  C_9
REMARK    9  A    between atoms: C_9  and  C_10
REMARK   10  A    between atoms: C_9  and  N_11
REMARK   11  A    between atoms: N_11  and  C_12
REMARK   12  A    between atoms: C_15  and  N_16
REMARK   13  A    between atoms: C_17  and  C_19
REMARK                            x       y       z     vdW  Elec       q    Type
REMARK                         _______ _______ _______ _____ _____    ______ ____
ROOT
ATOM      1  C   UNL     1       1.982   7.806  19.660  0.00  0.00    +0.000 A 
ATOM      2  C   UNL     1       1.337   8.594  20.599  0.00  0.00    +0.000 A 
ATOM      3  C   UNL     1       0.892   9.874  20.278  0.00  0.00    +0.000 A 
ATOM      4  C   UNL     1       0.996  10.395  19.019  0.00  0.00    +0.000 A 
ATOM      5  C   UNL     1       1.723   9.678  18.081  0.00  0.00    +0.000 A 
ATOM      6  C   UNL     1       2.219   8.400  18.405  0.00  0.00    +0.000 A 
ATOM      7  F   UNL     1       2.947   7.746  17.488  0.00  0.00    +0.000 F 
ENDROOT
BRANCH   4   8
ATOM      8  N   UNL     1       0.407  11.608  18.713  0.00  0.00    +0.000 N 
ATOM      9  C   UNL     1      -0.783  12.123  18.303  0.00  0.00    +0.000 C 
ATOM     10  O   UNL     1      -0.557  13.346  18.123  0.00  0.00    +0.000 OA
ATOM     11  H   UNL     1       1.051  12.391  18.734  0.00  0.00    +0.000 HD
BRANCH   9  12
ATOM     12  C   UNL     1      -2.247  11.633  18.048  0.00  0.00    +0.000 A 
ATOM     13  C   UNL     1      -2.165  10.995  16.850  0.00  0.00    +0.000 A 
ATOM     14  C   UNL     1      -3.328  10.640  16.044  0.00  0.00    +0.000 A 
ATOM     15  O   UNL     1      -3.316  10.690  14.825  0.00  0.00    +0.000 OA
ATOM     16  N   UNL     1      -4.385  10.210  16.794  0.00  0.00    +0.000 N 
ATOM     17  C   UNL     1      -4.731  11.155  17.767  0.00  0.00    +0.000 A 
ATOM     18  C   UNL     1      -6.117  11.338  17.910  0.00  0.00    +0.000 A 
ATOM     19  C   UNL     1      -6.575  12.121  18.930  0.00  0.00    +0.000 A 
ATOM     20  F   UNL     1      -7.884  12.349  19.083  0.00  0.00    +0.000 F 
ATOM     21  C   UNL     1      -5.662  12.601  19.851  0.00  0.00    +0.000 A 
ATOM     22  C   UNL     1      -4.272  12.361  19.697  0.00  0.00    +0.000 A 
ATOM     23  C   UNL     1      -3.706  11.772  18.562  0.00  0.00    +0.000 A 
ATOM     24  H   UNL     1      -4.040   9.405  17.299  0.00  0.00    +0.000 HD
ENDBRANCH   9  12
ENDBRANCH   4   8
BRANCH   1  25
ATOM     25  N   UNL     1       2.480   6.555  19.980  0.00  0.00    +0.000 N 
ATOM     26  H   UNL     1       3.156   6.520  20.737  0.00  0.00    +0.000 HD
BRANCH  25  27
ATOM     27  C   UNL     1       2.143   5.309  19.279  0.00  0.00    +0.000 C 
ATOM     28  C   UNL     1       1.189   4.521  20.187  0.00  0.00    +0.000 C 
BRANCH  27  29
ATOM     29  C   UNL     1       3.401   4.491  18.947  0.00  0.00    +0.000 C 
BRANCH  29  30
ATOM     30  C   UNL     1       3.971   4.683  17.528  0.00  0.00    +0.000 C 
BRANCH  30  31
ATOM     31  C   UNL     1       5.225   5.572  17.403  0.00  0.00    +0.000 C 
BRANCH  31  32
ATOM     32  N   UNL     1       6.345   5.005  16.629  0.00  0.00    +0.000 NA
BRANCH  32  34
ATOM     33  C   UNL     1       7.643   5.568  18.723  0.00  0.00    +0.000 C 
ATOM     34  C   UNL     1       7.485   4.668  17.503  0.00  0.00    +0.000 C 
ENDBRANCH  32  34
BRANCH  32  35
ATOM     35  C   UNL     1       5.895   3.870  15.794  0.00  0.00    +0.000 C 
ATOM     36  C   UNL     1       6.208   3.920  14.299  0.00  0.00    +0.000 C 
ENDBRANCH  32  35
ENDBRANCH  31  32
ENDBRANCH  30  31
ENDBRANCH  29  30
ENDBRANCH  27  29
ENDBRANCH  25  27
ENDBRANCH   1  25
TORSDOF 10
ENDMDL
MODEL 7
REMARK VINA RESULT:      -8.0      2.422      3.185
REMARK  Name = 
REMARK  13 active torsions:
REMARK  status: ('A' for Active; 'I' for Inactive)
REMARK    1  A    between atoms: C_1  and  C_2
REMARK    2  A    between atoms: C_2  and  N_3
REMARK    3  A    between atoms: N_3  and  C_4
REMARK    4  A    between atoms: N_3  and  C_6
REMARK    5  A    between atoms: C_4  and  C_5
REMARK    6  A    between atoms: C_6  and  C_7
REMARK    7  A    between atoms: C_7  and  C_8
REMARK    8  A    between atoms: C_8  and  C_9
REMARK    9  A    between atoms: C_9  and  C_10
REMARK   10  A    between atoms: C_9  and  N_11
REMARK   11  A    between atoms: N_11  and  C_12
REMARK   12  A    between atoms: C_15  and  N_16
REMARK   13  A    between atoms: C_17  and  C_19
REMARK                            x       y       z     vdW  Elec       q    Type
REMARK                         _______ _______ _______ _____ _____    ______ ____
ROOT
ATOM      1  C   UNL     1       2.220   5.260  18.488  0.00  0.00    +0.000 A 
ATOM      2  C   UNL     1       1.774   4.875  19.742  0.00  0.00    +0.000 A 
ATOM      3  C   UNL     1       1.644   5.802  20.773  0.00  0.00    +0.000 A 
ATOM      4  C   UNL     1       1.875   7.137  20.596  0.00  0.00    +0.000 A 
ATOM      5  C   UNL     1       2.418   7.544  19.387  0.00  0.00    +0.000 A 
ATOM      6  C   UNL     1       2.598   6.609  18.347  0.00  0.00    +0.000 A 
ATOM      7  F   UNL     1       3.156   7.027  17.203  0.00  0.00    +0.000 F 
ENDROOT
BRANCH   4   8
ATOM      8  N   UNL     1       1.590   8.037  21.606  0.00  0.00    +0.000 N 
ATOM      9  C   UNL     1       0.945   9.216  21.810  0.00  0.00    +0.000 C 
ATOM     10  O   UNL     1       1.189   9.513  23.006  0.00  0.00    +0.000 OA
ATOM     11  H   UNL     1       2.033   7.812  22.490  0.00  0.00    +0.000 HD
BRANCH   9  12
ATOM     12  C   UNL     1       0.026  10.202  21.014  0.00  0.00    +0.000 A 
ATOM     13  C   UNL     1      -0.454  11.036  21.976  0.00  0.00    +0.000 A 
ATOM     14  C   UNL     1      -1.591  11.927  21.777  0.00  0.00    +0.000 A 
ATOM     15  O   UNL     1      -2.401  12.158  22.661  0.00  0.00    +0.000 OA
ATOM     16  N   UNL     1      -1.615  12.494  20.534  0.00  0.00    +0.000 N 
ATOM     17  C   UNL     1      -1.574  11.517  19.534  0.00  0.00    +0.000 A 
ATOM     18  C   UNL     1      -2.448  11.768  18.461  0.00  0.00    +0.000 A 
ATOM     19  C   UNL     1      -2.385  10.965  17.360  0.00  0.00    +0.000 A 
ATOM     20  F   UNL     1      -3.220  11.147  16.331  0.00  0.00    +0.000 F 
ATOM     21  C   UNL     1      -1.382  10.015  17.295  0.00  0.00    +0.000 A 
ATOM     22  C   UNL     1      -0.491   9.816  18.381  0.00  0.00    +0.000 A 
ATOM     23  C   UNL     1      -0.635  10.433  19.628  0.00  0.00    +0.000 A 
ATOM     24  H   UNL     1      -0.744  13.003  20.461  0.00  0.00    +0.000 HD
ENDBRANCH   9  12
ENDBRANCH   4   8
BRANCH   1  25
ATOM     25  N   UNL     1       2.408   4.341  17.470  0.00  0.00    +0.000 N 
ATOM     26  H   UNL     1       1.615   4.179  16.857  0.00  0.00    +0.000 HD
BRANCH  25  27
ATOM     27  C   UNL     1       3.635   3.563  17.253  0.00  0.00    +0.000 C 
ATOM     28  C   UNL     1       4.274   3.328  18.629  0.00  0.00    +0.000 C 
BRANCH  27  29
ATOM     29  C   UNL     1       4.602   4.288  16.305  0.00  0.00    +0.000 C 
BRANCH  29  30
ATOM     30  C   UNL     1       6.091   4.249  16.704  0.00  0.00    +0.000 C 
BRANCH  30  31
ATOM     31  C   UNL     1       6.940   5.479  16.323  0.00  0.00    +0.000 C 
BRANCH  31  32
ATOM     32  N   UNL     1       7.467   6.275  17.447  0.00  0.00    +0.000 NA
BRANCH  32  34
ATOM     33  C   UNL     1       8.144   8.672  17.868  0.00  0.00    +0.000 C 
ATOM     34  C   UNL     1       7.112   7.700  17.308  0.00  0.00    +0.000 C 
ENDBRANCH  32  34
BRANCH  32  35
ATOM     35  C   UNL     1       7.060   5.696  18.746  0.00  0.00    +0.000 C 
ATOM     36  C   UNL     1       8.134   5.539  19.822  0.00  0.00    +0.000 C 
ENDBRANCH  32  35
ENDBRANCH  31  32
ENDBRANCH  30  31
ENDBRANCH  29  30
ENDBRANCH  27  29
ENDBRANCH  25  27
ENDBRANCH   1  25
TORSDOF 10
ENDMDL
MODEL 8
REMARK VINA RESULT:      -8.0      3.390      9.537
REMARK  Name = 
REMARK  13 active torsions:
REMARK  status: ('A' for Active; 'I' for Inactive)
REMARK    1  A    between atoms: C_1  and  C_2
REMARK    2  A    between atoms: C_2  and  N_3
REMARK    3  A    between atoms: N_3  and  C_4
REMARK    4  A    between atoms: N_3  and  C_6
REMARK    5  A    between atoms: C_4  and  C_5
REMARK    6  A    between atoms: C_6  and  C_7
REMARK    7  A    between atoms: C_7  and  C_8
REMARK    8  A    between atoms: C_8  and  C_9
REMARK    9  A    between atoms: C_9  and  C_10
REMARK   10  A    between atoms: C_9  and  N_11
REMARK   11  A    between atoms: N_11  and  C_12
REMARK   12  A    between atoms: C_15  and  N_16
REMARK   13  A    between atoms: C_17  and  C_19
REMARK                            x       y       z     vdW  Elec       q    Type
REMARK                         _______ _______ _______ _____ _____    ______ ____
ROOT
ATOM      1  C   UNL     1       1.355   9.441  18.625  0.00  0.00    +0.000 A 
ATOM      2  C   UNL     1       2.149   8.683  17.781  0.00  0.00    +0.000 A 
ATOM      3  C   UNL     1       2.720   7.489  18.213  0.00  0.00    +0.000 A 
ATOM      4  C   UNL     1       2.478   6.963  19.451  0.00  0.00    +0.000 A 
ATOM      5  C   UNL     1       1.771   7.741  20.357  0.00  0.00    +0.000 A 
ATOM      6  C   UNL     1       1.225   8.973  19.947  0.00  0.00    +0.000 A 
ATOM      7  F   UNL     1       0.576   9.717  20.854  0.00  0.00    +0.000 F 
ENDROOT
BRANCH   4   8
ATOM      8  N   UNL     1       2.945   5.705  19.781  0.00  0.00    +0.000 N 
ATOM      9  C   UNL     1       3.900   4.809  19.412  0.00  0.00    +0.000 C 
ATOM     10  O   UNL     1       3.668   3.789  20.107  0.00  0.00    +0.000 OA
ATOM     11  H   UNL     1       2.391   5.236  20.489  0.00  0.00    +0.000 HD
BRANCH   9  12
ATOM     12  C   UNL     1       5.130   4.738  18.447  0.00  0.00    +0.000 A 
ATOM     13  C   UNL     1       6.160   5.189  19.211  0.00  0.00    +0.000 A 
ATOM     14  C   UNL     1       7.449   5.601  18.666  0.00  0.00    +0.000 A 
ATOM     15  O   UNL     1       8.084   6.534  19.129  0.00  0.00    +0.000 OA
ATOM     16  N   UNL     1       7.869   4.810  17.635  0.00  0.00    +0.000 N 
ATOM     17  C   UNL     1       6.905   4.744  16.623  0.00  0.00    +0.000 A 
ATOM     18  C   UNL     1       7.440   4.829  15.326  0.00  0.00    +0.000 A 
ATOM     19  C   UNL     1       6.613   4.624  14.260  0.00  0.00    +0.000 A 
ATOM     20  F   UNL     1       7.072   4.729  13.008  0.00  0.00    +0.000 F 
ATOM     21  C   UNL     1       5.313   4.224  14.503  0.00  0.00    +0.000 A 
ATOM     22  C   UNL     1       4.819   4.109  15.828  0.00  0.00    +0.000 A 
ATOM     23  C   UNL     1       5.527   4.523  16.961  0.00  0.00    +0.000 A 
ATOM     24  H   UNL     1       7.927   3.878  18.025  0.00  0.00    +0.000 HD
ENDBRANCH   9  12
ENDBRANCH   4   8
BRANCH   1  25
ATOM     25  N   UNL     1       0.827  10.658  18.227  0.00  0.00    +0.000 N 
ATOM     26  H   UNL     1       1.204  11.054  17.371  0.00  0.00    +0.000 HD
BRANCH  25  27
ATOM     27  C   UNL     1      -0.183  11.422  18.971  0.00  0.00    +0.000 C 
ATOM     28  C   UNL     1      -1.397  11.590  18.048  0.00  0.00    +0.000 C 
BRANCH  27  29
ATOM     29  C   UNL     1       0.364  12.783  19.429  0.00  0.00    +0.000 C 
BRANCH  29  30
ATOM     30  C   UNL     1       0.925  12.833  20.864  0.00  0.00    +0.000 C 
BRANCH  30  31
ATOM     31  C   UNL     1       0.249  13.824  21.834  0.00  0.00    +0.000 C 
BRANCH  31  32
ATOM     32  N   UNL     1      -0.474  13.225  22.970  0.00  0.00    +0.000 NA
BRANCH  32  34
ATOM     33  C   UNL     1      -2.662  14.431  23.343  0.00  0.00    +0.000 C 
ATOM     34  C   UNL     1      -1.203  14.248  23.743  0.00  0.00    +0.000 C 
ENDBRANCH  32  34
BRANCH  32  35
ATOM     35  C   UNL     1      -1.334  12.107  22.524  0.00  0.00    +0.000 C 
ATOM     36  C   UNL     1      -1.141  10.749  23.198  0.00  0.00    +0.000 C 
ENDBRANCH  32  35
ENDBRANCH  31  32
ENDBRANCH  30  31
ENDBRANCH  29  30
ENDBRANCH  27  29
ENDBRANCH  25  27
ENDBRANCH   1  25
TORSDOF 10
ENDMDL
MODEL 9
REMARK VINA RESULT:      -8.0      3.390      4.671
REMARK  Name = 
REMARK  13 active torsions:
REMARK  status: ('A' for Active; 'I' for Inactive)
REMARK    1  A    between atoms: C_1  and  C_2
REMARK    2  A    between atoms: C_2  and  N_3
REMARK    3  A    between atoms: N_3  and  C_4
REMARK    4  A    between atoms: N_3  and  C_6
REMARK    5  A    between atoms: C_4  and  C_5
REMARK    6  A    between atoms: C_6  and  C_7
REMARK    7  A    between atoms: C_7  and  C_8
REMARK    8  A    between atoms: C_8  and  C_9
REMARK    9  A    between atoms: C_9  and  C_10
REMARK   10  A    between atoms: C_9  and  N_11
REMARK   11  A    between atoms: N_11  and  C_12
REMARK   12  A    between atoms: C_15  and  N_16
REMARK   13  A    between atoms: C_17  and  C_19
REMARK                            x       y       z     vdW  Elec       q    Type
REMARK                         _______ _______ _______ _____ _____    ______ ____
ROOT
ATOM      1  C   UNL     1       2.073   7.693  19.558  0.00  0.00    +0.000 A 
ATOM      2  C   UNL     1       2.063   8.213  18.274  0.00  0.00    +0.000 A 
ATOM      3  C   UNL     1       1.419   9.414  17.991  0.00  0.00    +0.000 A 
ATOM      4  C   UNL     1       0.830  10.179  18.958  0.00  0.00    +0.000 A 
ATOM      5  C   UNL     1       0.732   9.645  20.234  0.00  0.00    +0.000 A 
ATOM      6  C   UNL     1       1.341   8.407  20.526  0.00  0.00    +0.000 A 
ATOM      7  F   UNL     1       1.200   7.902  21.759  0.00  0.00    +0.000 F 
ENDROOT
BRANCH   4   8
ATOM      8  N   UNL     1       0.335  11.433  18.654  0.00  0.00    +0.000 N 
ATOM      9  C   UNL     1      -0.809  12.037  18.233  0.00  0.00    +0.000 C 
ATOM     10  O   UNL     1      -0.493  13.242  18.067  0.00  0.00    +0.000 OA
ATOM     11  H   UNL     1       1.033  12.168  18.691  0.00  0.00    +0.000 HD
BRANCH   9  12
ATOM     12  C   UNL     1      -2.302  11.656  17.955  0.00  0.00    +0.000 A 
ATOM     13  C   UNL     1      -2.261  11.096  16.716  0.00  0.00    +0.000 A 
ATOM     14  C   UNL     1      -3.445  10.868  15.895  0.00  0.00    +0.000 A 
ATOM     15  O   UNL     1      -3.432  10.999  14.682  0.00  0.00    +0.000 OA
ATOM     16  N   UNL     1      -4.526  10.455  16.620  0.00  0.00    +0.000 N 
ATOM     17  C   UNL     1      -4.811  11.352  17.656  0.00  0.00    +0.000 A 
ATOM     18  C   UNL     1      -6.183  11.610  17.820  0.00  0.00    +0.000 A 
ATOM     19  C   UNL     1      -6.590  12.349  18.892  0.00  0.00    +0.000 A 
ATOM     20  F   UNL     1      -7.881  12.648  19.068  0.00  0.00    +0.000 F 
ATOM     21  C   UNL     1      -5.647  12.710  19.838  0.00  0.00    +0.000 A 
ATOM     22  C   UNL     1      -4.275  12.396  19.659  0.00  0.00    +0.000 A 
ATOM     23  C   UNL     1      -3.748  11.850  18.485  0.00  0.00    +0.000 A 
ATOM     24  H   UNL     1      -4.230   9.598  17.069  0.00  0.00    +0.000 HD
ENDBRANCH   9  12
ENDBRANCH   4   8
BRANCH   1  25
ATOM     25  N   UNL     1       2.660   6.472  19.843  0.00  0.00    +0.000 N 
ATOM     26  H   UNL     1       3.662   6.481  20.005  0.00  0.00    +0.000 HD
BRANCH  25  27
ATOM     27  C   UNL     1       1.953   5.185  19.875  0.00  0.00    +0.000 C 
ATOM     28  C   UNL     1       2.324   4.496  21.195  0.00  0.00    +0.000 C 
BRANCH  27  29
ATOM     29  C   UNL     1       2.320   4.310  18.666  0.00  0.00    +0.000 C 
BRANCH  29  30
ATOM     30  C   UNL     1       3.749   3.730  18.666  0.00  0.00    +0.000 C 
BRANCH  30  31
ATOM     31  C   UNL     1       4.480   3.699  17.308  0.00  0.00    +0.000 C 
BRANCH  31  32
ATOM     32  N   UNL     1       5.530   4.716  17.116  0.00  0.00    +0.000 NA
BRANCH  32  34
ATOM     33  C   UNL     1       5.123   6.664  15.559  0.00  0.00    +0.000 C 
ATOM     34  C   UNL     1       4.950   6.062  16.948  0.00  0.00    +0.000 C 
ENDBRANCH  32  34
BRANCH  32  35
ATOM     35  C   UNL     1       6.542   4.646  18.193  0.00  0.00    +0.000 C 
ATOM     36  C   UNL     1       7.544   5.795  18.302  0.00  0.00    +0.000 C 
ENDBRANCH  32  35
ENDBRANCH  31  32
ENDBRANCH  30  31
ENDBRANCH  29  30
ENDBRANCH  27  29
ENDBRANCH  25  27
ENDBRANCH   1  25
TORSDOF 10
ENDMDL
