MODEL 1
REMARK VINA RESULT:      -8.2      0.000      0.000
REMARK  Name = 
REMARK  7 active torsions:
REMARK  status: ('A' for Active; 'I' for Inactive)
REMARK    1  A    between atoms: C_1  and  O_2
REMARK    2  A    between atoms: O_2  and  C_3
REMARK    3  A    between atoms: C_7  and  C_8
REMARK    4  A    between atoms: C_8  and  O_9
REMARK    5  A    between atoms: N_12  and  C_13
REMARK    6  A    between atoms: C_13  and  C_14
REMARK    7  A    between atoms: C_19  and  C_20
REMARK                            x       y       z     vdW  Elec       q    Type
REMARK                         _______ _______ _______ _____ _____    ______ ____
ROOT
ATOM      1  C   UNL     1       5.913   4.745  16.098  0.00  0.00    +0.000 C 
ATOM      2  C   UNL     1       5.686   6.216  16.486  0.00  0.00    +0.000 C 
ATOM      3  C   UNL     1       5.079   6.365  17.880  0.00  0.00    +0.000 C 
ATOM      4  N   UNL     1       3.795   5.634  17.932  0.00  0.00    +0.000 NA
ATOM      5  C   UNL     1       4.083   4.198  17.786  0.00  0.00    +0.000 C 
ATOM      6  C   UNL     1       4.641   3.922  16.393  0.00  0.00    +0.000 C 
ENDROOT
BRANCH   1  11
ATOM      7  C   UNL     1       5.954   3.440  12.487  0.00  0.00    +0.000 A 
ATOM      8  C   UNL     1       7.036   4.131  11.942  0.00  0.00    +0.000 A 
ATOM      9  C   UNL     1       7.787   4.999  12.730  0.00  0.00    +0.000 A 
ATOM     10  C   UNL     1       7.452   5.197  14.071  0.00  0.00    +0.000 A 
ATOM     11  C   UNL     1       6.356   4.534  14.645  0.00  0.00    +0.000 A 
ATOM     12  C   UNL     1       5.629   3.637  13.832  0.00  0.00    +0.000 A 
BRANCH   7  14
ATOM     13  C   UNL     1       4.041   3.064  11.134  0.00  0.00    +0.000 C 
ATOM     14  O   UNL     1       5.301   2.612  11.619  0.00  0.00    +0.000 OA
ENDBRANCH   7  14
ENDBRANCH   1  11
BRANCH   1  15
ATOM     15  O   UNL     1       6.969   4.247  16.936  0.00  0.00    +0.000 OA
ATOM     16  H   UNL     1       7.804   4.380  16.453  0.00  0.00    +0.000 HD
ENDBRANCH   1  15
BRANCH   4  17
ATOM     17  C   UNL     1       3.107   5.863  19.223  0.00  0.00    +0.000 C 
BRANCH  17  18
ATOM     18  C   UNL     1       2.398   7.218  19.267  0.00  0.00    +0.000 C 
ATOM     19  O   UNL     1       2.279   7.877  18.240  0.00  0.00    +0.000 OA
ATOM     20  N   UNL     1       2.007   7.592  20.538  0.00  0.00    +0.000 N 
ATOM     21  C   UNL     1       1.206   8.680  20.737  0.00  0.00    +0.000 A 
ATOM     22  N   UNL     1       0.574   9.388  19.839  0.00  0.00    +0.000 NA
ATOM     23  C   UNL     1      -0.120  10.418  20.445  0.00  0.00    +0.000 A 
ATOM     24  C   UNL     1      -0.909  11.331  19.582  0.00  0.00    +0.000 C 
ATOM     25  C   UNL     1       0.027  10.475  21.820  0.00  0.00    +0.000 A 
ATOM     26  S   UNL     1       0.981   9.148  22.359  0.00  0.00    +0.000 S 
ATOM     27  H   UNL     1       2.266   7.019  21.325  0.00  0.00    +0.000 HD
ENDBRANCH  17  18
ENDBRANCH   4  17
TORSDOF 5
ENDMDL
MODEL 2
REMARK VINA RESULT:      -7.5      1.473      1.639
REMARK  Name = 
REMARK  7 active torsions:
REMARK  status: ('A' for Active; 'I' for Inactive)
REMARK    1  A    between atoms: C_1  and  O_2
REMARK    2  A    between atoms: O_2  and  C_3
REMARK    3  A    between atoms: C_7  and  C_8
REMARK    4  A    between atoms: C_8  and  O_9
REMARK    5  A    between atoms: N_12  and  C_13
REMARK    6  A    between atoms: C_13  and  C_14
REMARK    7  A    between atoms: C_19  and  C_20
REMARK                            x       y       z     vdW  Elec       q    Type
REMARK                         _______ _______ _______ _____ _____    ______ ____
ROOT
ATOM      1  C   UNL     1       6.179   4.469  16.333  0.00  0.00    +0.000 C 
ATOM      2  C   UNL     1       5.885   5.863  16.917  0.00  0.00    +0.000 C 
ATOM      3  C   UNL     1       5.383   5.797  18.358  0.00  0.00    +0.000 C 
ATOM      4  N   UNL     1       4.159   4.970  18.408  0.00  0.00    +0.000 NA
ATOM      5  C   UNL     1       4.531   3.587  18.065  0.00  0.00    +0.000 C 
ATOM      6  C   UNL     1       4.994   3.522  16.613  0.00  0.00    +0.000 C 
ENDROOT
BRANCH   1  11
ATOM      7  C   UNL     1       6.000   3.637  12.590  0.00  0.00    +0.000 A 
ATOM      8  C   UNL     1       7.007   4.445  12.064  0.00  0.00    +0.000 A 
ATOM      9  C   UNL     1       7.780   5.244  12.904  0.00  0.00    +0.000 A 
ATOM     10  C   UNL     1       7.540   5.252  14.280  0.00  0.00    +0.000 A 
ATOM     11  C   UNL     1       6.519   4.467  14.838  0.00  0.00    +0.000 A 
ATOM     12  C   UNL     1       5.770   3.645  13.968  0.00  0.00    +0.000 A 
BRANCH   7  14
ATOM     13  C   UNL     1       5.831   1.596  11.389  0.00  0.00    +0.000 C 
ATOM     14  O   UNL     1       5.317   2.894  11.669  0.00  0.00    +0.000 OA
ENDBRANCH   7  14
ENDBRANCH   1  11
BRANCH   1  15
ATOM     15  O   UNL     1       7.330   3.957  17.027  0.00  0.00    +0.000 OA
ATOM     16  H   UNL     1       7.978   3.694  16.349  0.00  0.00    +0.000 HD
ENDBRANCH   1  15
BRANCH   4  17
ATOM     17  C   UNL     1       3.561   4.990  19.764  0.00  0.00    +0.000 C 
BRANCH  17  18
ATOM     18  C   UNL     1       2.512   6.093  19.915  0.00  0.00    +0.000 C 
ATOM     19  O   UNL     1       1.628   5.983  20.757  0.00  0.00    +0.000 OA
ATOM     20  N   UNL     1       2.653   7.114  18.994  0.00  0.00    +0.000 N 
ATOM     21  C   UNL     1       1.919   8.261  19.097  0.00  0.00    +0.000 A 
ATOM     22  N   UNL     1       1.161   8.645  20.089  0.00  0.00    +0.000 NA
ATOM     23  C   UNL     1       0.576   9.862  19.800  0.00  0.00    +0.000 A 
ATOM     24  C   UNL     1      -0.319  10.465  20.818  0.00  0.00    +0.000 C 
ATOM     25  C   UNL     1       0.900  10.371  18.555  0.00  0.00    +0.000 A 
ATOM     26  S   UNL     1       2.036   9.336  17.781  0.00  0.00    +0.000 S 
ATOM     27  H   UNL     1       3.350   7.036  18.270  0.00  0.00    +0.000 HD
ENDBRANCH  17  18
ENDBRANCH   4  17
TORSDOF 5
ENDMDL
MODEL 3
REMARK VINA RESULT:      -7.3      2.804      4.483
REMARK  Name = 
REMARK  7 active torsions:
REMARK  status: ('A' for Active; 'I' for Inactive)
REMARK    1  A    between atoms: C_1  and  O_2
REMARK    2  A    between atoms: O_2  and  C_3
REMARK    3  A    between atoms: C_7  and  C_8
REMARK    4  A    between atoms: C_8  and  O_9
REMARK    5  A    between atoms: N_12  and  C_13
REMARK    6  A    between atoms: C_13  and  C_14
REMARK    7  A    between atoms: C_19  and  C_20
REMARK                            x       y       z     vdW  Elec       q    Type
REMARK                         _______ _______ _______ _____ _____    ______ ____
ROOT
ATOM      1  C   UNL     1       3.187   5.779  18.221  0.00  0.00    +0.000 C 
ATOM      2  C   UNL     1       3.217   5.321  19.690  0.00  0.00    +0.000 C 
ATOM      3  C   UNL     1       2.011   5.824  20.482  0.00  0.00    +0.000 C 
ATOM      4  N   UNL     1       1.971   7.300  20.423  0.00  0.00    +0.000 NA
ATOM      5  C   UNL     1       1.709   7.692  19.028  0.00  0.00    +0.000 C 
ATOM      6  C   UNL     1       2.889   7.291  18.148  0.00  0.00    +0.000 C 
ENDROOT
BRANCH   1  11
ATOM      7  C   UNL     1       6.708   6.130  16.732  0.00  0.00    +0.000 A 
ATOM      8  C   UNL     1       6.866   4.913  16.070  0.00  0.00    +0.000 A 
ATOM      9  C   UNL     1       5.836   3.975  16.065  0.00  0.00    +0.000 A 
ATOM     10  C   UNL     1       4.641   4.242  16.735  0.00  0.00    +0.000 A 
ATOM     11  C   UNL     1       4.458   5.448  17.429  0.00  0.00    +0.000 A 
ATOM     12  C   UNL     1       5.507   6.393  17.395  0.00  0.00    +0.000 A 
BRANCH   7  14
ATOM     13  C   UNL     1       7.819   8.042  17.596  0.00  0.00    +0.000 C 
ATOM     14  O   UNL     1       7.784   6.970  16.660  0.00  0.00    +0.000 OA
ENDBRANCH   7  14
ENDBRANCH   1  11
BRANCH   1  15
ATOM     15  O   UNL     1       2.103   5.081  17.586  0.00  0.00    +0.000 OA
ATOM     16  H   UNL     1       2.449   4.219  17.294  0.00  0.00    +0.000 HD
ENDBRANCH   1  15
BRANCH   4  17
ATOM     17  C   UNL     1       0.896   7.837  21.288  0.00  0.00    +0.000 C 
BRANCH  17  18
ATOM     18  C   UNL     1       1.050   9.339  21.534  0.00  0.00    +0.000 C 
ATOM     19  O   UNL     1       1.748   9.736  22.460  0.00  0.00    +0.000 OA
ATOM     20  N   UNL     1       0.295  10.116  20.677  0.00  0.00    +0.000 N 
ATOM     21  C   UNL     1       0.449  11.472  20.636  0.00  0.00    +0.000 A 
ATOM     22  N   UNL     1       1.375  12.194  21.208  0.00  0.00    +0.000 NA
ATOM     23  C   UNL     1       1.172  13.534  20.936  0.00  0.00    +0.000 A 
ATOM     24  C   UNL     1       2.133  14.513  21.499  0.00  0.00    +0.000 C 
ATOM     25  C   UNL     1       0.056  13.797  20.162  0.00  0.00    +0.000 A 
ATOM     26  S   UNL     1      -0.691  12.318  19.695  0.00  0.00    +0.000 S 
ATOM     27  H   UNL     1      -0.336   9.670  20.029  0.00  0.00    +0.000 HD
ENDBRANCH  17  18
ENDBRANCH   4  17
TORSDOF 5
ENDMDL
MODEL 4
REMARK VINA RESULT:      -7.2      3.310      9.060
REMARK  Name = 
REMARK  7 active torsions:
REMARK  status: ('A' for Active; 'I' for Inactive)
REMARK    1  A    between atoms: C_1  and  O_2
REMARK    2  A    between atoms: O_2  and  C_3
REMARK    3  A    between atoms: C_7  and  C_8
REMARK    4  A    between atoms: C_8  and  O_9
REMARK    5  A    between atoms: N_12  and  C_13
REMARK    6  A    between atoms: C_13  and  C_14
REMARK    7  A    between atoms: C_19  and  C_20
REMARK                            x       y       z     vdW  Elec       q    Type
REMARK                         _______ _______ _______ _____ _____    ______ ____
ROOT
ATOM      1  C   UNL     1       2.899   6.876  18.520  0.00  0.00    +0.000 C 
ATOM      2  C   UNL     1       3.886   7.414  17.469  0.00  0.00    +0.000 C 
ATOM      3  C   UNL     1       4.900   6.360  17.028  0.00  0.00    +0.000 C 
ATOM      4  N   UNL     1       5.646   5.880  18.210  0.00  0.00    +0.000 NA
ATOM      5  C   UNL     1       4.702   5.166  19.085  0.00  0.00    +0.000 C 
ATOM      6  C   UNL     1       3.670   6.144  19.637  0.00  0.00    +0.000 C 
ENDROOT
BRANCH   1  11
ATOM      7  C   UNL     1       0.804   8.799  21.099  0.00  0.00    +0.000 A 
ATOM      8  C   UNL     1       0.341   9.880  20.349  0.00  0.00    +0.000 A 
ATOM      9  C   UNL     1       0.667   9.992  19.000  0.00  0.00    +0.000 A 
ATOM     10  C   UNL     1       1.473   9.028  18.390  0.00  0.00    +0.000 A 
ATOM     11  C   UNL     1       1.973   7.940  19.122  0.00  0.00    +0.000 A 
ATOM     12  C   UNL     1       1.604   7.834  20.481  0.00  0.00    +0.000 A 
BRANCH   7  14
ATOM     13  C   UNL     1      -0.257   9.960  22.877  0.00  0.00    +0.000 C 
ATOM     14  O   UNL     1       0.411   8.794  22.408  0.00  0.00    +0.000 OA
ENDBRANCH   7  14
ENDBRANCH   1  11
BRANCH   1  15
ATOM     15  O   UNL     1       2.060   5.916  17.856  0.00  0.00    +0.000 OA
ATOM     16  H   UNL     1       1.148   6.254  17.901  0.00  0.00    +0.000 HD
ENDBRANCH   1  15
BRANCH   4  17
ATOM     17  C   UNL     1       6.733   4.955  17.811  0.00  0.00    +0.000 C 
BRANCH  17  18
ATOM     18  C   UNL     1       6.454   4.286  16.463  0.00  0.00    +0.000 C 
ATOM     19  O   UNL     1       5.704   3.318  16.407  0.00  0.00    +0.000 OA
ATOM     20  N   UNL     1       7.167   4.841  15.418  0.00  0.00    +0.000 N 
ATOM     21  C   UNL     1       6.907   4.489  14.124  0.00  0.00    +0.000 A 
ATOM     22  N   UNL     1       5.913   3.774  13.668  0.00  0.00    +0.000 NA
ATOM     23  C   UNL     1       6.016   3.630  12.298  0.00  0.00    +0.000 A 
ATOM     24  C   UNL     1       4.967   2.851  11.598  0.00  0.00    +0.000 C 
ATOM     25  C   UNL     1       7.127   4.240  11.741  0.00  0.00    +0.000 A 
ATOM     26  S   UNL     1       7.999   5.085  12.961  0.00  0.00    +0.000 S 
ATOM     27  H   UNL     1       7.846   5.560  15.607  0.00  0.00    +0.000 HD
ENDBRANCH  17  18
ENDBRANCH   4  17
TORSDOF 5
ENDMDL
MODEL 5
REMARK VINA RESULT:      -7.2      3.018      9.056
REMARK  Name = 
REMARK  7 active torsions:
REMARK  status: ('A' for Active; 'I' for Inactive)
REMARK    1  A    between atoms: C_1  and  O_2
REMARK    2  A    between atoms: O_2  and  C_3
REMARK    3  A    between atoms: C_7  and  C_8
REMARK    4  A    between atoms: C_8  and  O_9
REMARK    5  A    between atoms: N_12  and  C_13
REMARK    6  A    between atoms: C_13  and  C_14
REMARK    7  A    between atoms: C_19  and  C_20
REMARK                            x       y       z     vdW  Elec       q    Type
REMARK                         _______ _______ _______ _____ _____    ______ ____
ROOT
ATOM      1  C   UNL     1       0.363   9.875  19.249  0.00  0.00    +0.000 C 
ATOM      2  C   UNL     1       0.246   8.922  20.451  0.00  0.00    +0.000 C 
ATOM      3  C   UNL     1       1.542   8.159  20.719  0.00  0.00    +0.000 C 
ATOM      4  N   UNL     1       1.912   7.391  19.512  0.00  0.00    +0.000 NA
ATOM      5  C   UNL     1       2.242   8.351  18.445  0.00  0.00    +0.000 C 
ATOM      6  C   UNL     1       0.993   9.134  18.051  0.00  0.00    +0.000 C 
ENDROOT
BRANCH   1  11
ATOM      7  C   UNL     1      -2.839  10.604  17.262  0.00  0.00    +0.000 A 
ATOM      8  C   UNL     1      -3.425  11.620  18.017  0.00  0.00    +0.000 A 
ATOM      9  C   UNL     1      -2.787  12.108  19.155  0.00  0.00    +0.000 A 
ATOM     10  C   UNL     1      -1.562  11.572  19.557  0.00  0.00    +0.000 A 
ATOM     11  C   UNL     1      -0.957  10.534  18.831  0.00  0.00    +0.000 A 
ATOM     12  C   UNL     1      -1.610  10.077  17.666  0.00  0.00    +0.000 A 
BRANCH   7  14
ATOM     13  C   UNL     1      -2.861  10.201  14.922  0.00  0.00    +0.000 C 
ATOM     14  O   UNL     1      -3.555  10.215  16.165  0.00  0.00    +0.000 OA
ENDBRANCH   7  14
ENDBRANCH   1  11
BRANCH   1  15
ATOM     15  O   UNL     1       1.257  10.932  19.636  0.00  0.00    +0.000 OA
ATOM     16  H   UNL     1       0.987  11.223  20.526  0.00  0.00    +0.000 HD
ENDBRANCH   1  15
BRANCH   4  17
ATOM     17  C   UNL     1       3.089   6.530  19.771  0.00  0.00    +0.000 C 
BRANCH  17  18
ATOM     18  C   UNL     1       3.541   5.779  18.517  0.00  0.00    +0.000 C 
ATOM     19  O   UNL     1       2.705   5.315  17.749  0.00  0.00    +0.000 OA
ATOM     20  N   UNL     1       4.913   5.650  18.420  0.00  0.00    +0.000 N 
ATOM     21  C   UNL     1       5.496   5.170  17.282  0.00  0.00    +0.000 A 
ATOM     22  N   UNL     1       4.935   4.941  16.125  0.00  0.00    +0.000 NA
ATOM     23  C   UNL     1       5.864   4.441  15.233  0.00  0.00    +0.000 A 
ATOM     24  C   UNL     1       5.411   4.126  13.856  0.00  0.00    +0.000 C 
ATOM     25  C   UNL     1       7.134   4.282  15.759  0.00  0.00    +0.000 A 
ATOM     26  S   UNL     1       7.169   4.862  17.380  0.00  0.00    +0.000 S 
ATOM     27  H   UNL     1       5.496   5.971  19.176  0.00  0.00    +0.000 HD
ENDBRANCH  17  18
ENDBRANCH   4  17
TORSDOF 5
ENDMDL
MODEL 6
REMARK VINA RESULT:      -7.1      2.307      3.976
REMARK  Name = 
REMARK  7 active torsions:
REMARK  status: ('A' for Active; 'I' for Inactive)
REMARK    1  A    between atoms: C_1  and  O_2
REMARK    2  A    between atoms: O_2  and  C_3
REMARK    3  A    between atoms: C_7  and  C_8
REMARK    4  A    between atoms: C_8  and  O_9
REMARK    5  A    between atoms: N_12  and  C_13
REMARK    6  A    between atoms: C_13  and  C_14
REMARK    7  A    between atoms: C_19  and  C_20
REMARK                            x       y       z     vdW  Elec       q    Type
REMARK                         _______ _______ _______ _____ _____    ______ ____
ROOT
ATOM      1  C   UNL     1       3.541   5.726  18.396  0.00  0.00    +0.000 C 
ATOM      2  C   UNL     1       3.343   5.314  19.866  0.00  0.00    +0.000 C 
ATOM      3  C   UNL     1       2.036   5.847  20.450  0.00  0.00    +0.000 C 
ATOM      4  N   UNL     1       2.022   7.321  20.343  0.00  0.00    +0.000 NA
ATOM      5  C   UNL     1       1.978   7.672  18.914  0.00  0.00    +0.000 C 
ATOM      6  C   UNL     1       3.273   7.238  18.236  0.00  0.00    +0.000 C 
ENDROOT
BRANCH   1  11
ATOM      7  C   UNL     1       6.332   5.122  15.830  0.00  0.00    +0.000 A 
ATOM      8  C   UNL     1       7.413   4.796  16.649  0.00  0.00    +0.000 A 
ATOM      9  C   UNL     1       7.256   4.734  18.031  0.00  0.00    +0.000 A 
ATOM     10  C   UNL     1       6.016   5.013  18.610  0.00  0.00    +0.000 A 
ATOM     11  C   UNL     1       4.914   5.365  17.816  0.00  0.00    +0.000 A 
ATOM     12  C   UNL     1       5.092   5.393  16.416  0.00  0.00    +0.000 A 
BRANCH   7  14
ATOM     13  C   UNL     1       6.152   4.029  13.731  0.00  0.00    +0.000 C 
ATOM     14  O   UNL     1       6.607   5.143  14.492  0.00  0.00    +0.000 OA
ENDBRANCH   7  14
ENDBRANCH   1  11
BRANCH   1  15
ATOM     15  O   UNL     1       2.558   5.017  17.624  0.00  0.00    +0.000 OA
ATOM     16  H   UNL     1       2.187   4.325  18.201  0.00  0.00    +0.000 HD
ENDBRANCH   1  15
BRANCH   4  17
ATOM     17  C   UNL     1       0.833   7.890  21.019  0.00  0.00    +0.000 C 
BRANCH  17  18
ATOM     18  C   UNL     1       1.008   9.376  21.338  0.00  0.00    +0.000 C 
ATOM     19  O   UNL     1       1.718   9.719  22.276  0.00  0.00    +0.000 OA
ATOM     20  N   UNL     1       0.255  10.203  20.526  0.00  0.00    +0.000 N 
ATOM     21  C   UNL     1       0.425  11.557  20.550  0.00  0.00    +0.000 A 
ATOM     22  N   UNL     1       1.364  12.240  21.149  0.00  0.00    +0.000 NA
ATOM     23  C   UNL     1       1.175  13.593  20.946  0.00  0.00    +0.000 A 
ATOM     24  C   UNL     1       2.153  14.532  21.547  0.00  0.00    +0.000 C 
ATOM     25  C   UNL     1       0.057  13.908  20.195  0.00  0.00    +0.000 A 
ATOM     26  S   UNL     1      -0.712  12.463  19.662  0.00  0.00    +0.000 S 
ATOM     27  H   UNL     1      -0.386   9.797  19.863  0.00  0.00    +0.000 HD
ENDBRANCH  17  18
ENDBRANCH   4  17
TORSDOF 5
ENDMDL
MODEL 7
REMARK VINA RESULT:      -7.1      5.418     10.776
REMARK  Name = 
REMARK  7 active torsions:
REMARK  status: ('A' for Active; 'I' for Inactive)
REMARK    1  A    between atoms: C_1  and  O_2
REMARK    2  A    between atoms: O_2  and  C_3
REMARK    3  A    between atoms: C_7  and  C_8
REMARK    4  A    between atoms: C_8  and  O_9
REMARK    5  A    between atoms: N_12  and  C_13
REMARK    6  A    between atoms: C_13  and  C_14
REMARK    7  A    between atoms: C_19  and  C_20
REMARK                            x       y       z     vdW  Elec       q    Type
REMARK                         _______ _______ _______ _____ _____    ______ ____
ROOT
ATOM      1  C   UNL     1      -2.341  11.485  18.165  0.00  0.00    +0.000 C 
ATOM      2  C   UNL     1      -1.494  11.941  19.366  0.00  0.00    +0.000 C 
ATOM      3  C   UNL     1      -0.029  11.526  19.238  0.00  0.00    +0.000 C 
ATOM      4  N   UNL     1       0.050  10.056  19.105  0.00  0.00    +0.000 NA
ATOM      5  C   UNL     1      -0.572   9.682  17.823  0.00  0.00    +0.000 C 
ATOM      6  C   UNL     1      -2.064   9.997  17.862  0.00  0.00    +0.000 C 
ENDROOT
BRANCH   1  11
ATOM      7  C   UNL     1      -5.692  12.473  19.756  0.00  0.00    +0.000 A 
ATOM      8  C   UNL     1      -6.584  12.268  18.704  0.00  0.00    +0.000 A 
ATOM      9  C   UNL     1      -6.131  11.780  17.480  0.00  0.00    +0.000 A 
ATOM     10  C   UNL     1      -4.775  11.507  17.294  0.00  0.00    +0.000 A 
ATOM     11  C   UNL     1      -3.847  11.723  18.325  0.00  0.00    +0.000 A 
ATOM     12  C   UNL     1      -4.337  12.190  19.564  0.00  0.00    +0.000 A 
BRANCH   7  14
ATOM     13  C   UNL     1      -7.295  12.158  21.478  0.00  0.00    +0.000 C 
ATOM     14  O   UNL     1      -6.256  12.946  20.907  0.00  0.00    +0.000 OA
ENDBRANCH   7  14
ENDBRANCH   1  11
BRANCH   1  15
ATOM     15  O   UNL     1      -1.911  12.256  17.030  0.00  0.00    +0.000 OA
ATOM     16  H   UNL     1      -2.345  13.126  17.096  0.00  0.00    +0.000 HD
ENDBRANCH   1  15
BRANCH   4  17
ATOM     17  C   UNL     1       1.459   9.598  19.113  0.00  0.00    +0.000 C 
BRANCH  17  18
ATOM     18  C   UNL     1       1.621   8.246  19.810  0.00  0.00    +0.000 C 
ATOM     19  O   UNL     1       1.082   8.050  20.893  0.00  0.00    +0.000 OA
ATOM     20  N   UNL     1       2.452   7.375  19.130  0.00  0.00    +0.000 N 
ATOM     21  C   UNL     1       2.564   6.069  19.512  0.00  0.00    +0.000 A 
ATOM     22  N   UNL     1       1.842   5.420  20.386  0.00  0.00    +0.000 NA
ATOM     23  C   UNL     1       2.285   4.117  20.499  0.00  0.00    +0.000 A 
ATOM     24  C   UNL     1       1.577   3.219  21.444  0.00  0.00    +0.000 C 
ATOM     25  C   UNL     1       3.373   3.811  19.701  0.00  0.00    +0.000 A 
ATOM     26  S   UNL     1       3.779   5.170  18.726  0.00  0.00    +0.000 S 
ATOM     27  H   UNL     1       2.934   7.693  18.305  0.00  0.00    +0.000 HD
ENDBRANCH  17  18
ENDBRANCH   4  17
TORSDOF 5
ENDMDL
MODEL 8
REMARK VINA RESULT:      -7.1      3.317      8.906
REMARK  Name = 
REMARK  7 active torsions:
REMARK  status: ('A' for Active; 'I' for Inactive)
REMARK    1  A    between atoms: C_1  and  O_2
REMARK    2  A    between atoms: O_2  and  C_3
REMARK    3  A    between atoms: C_7  and  C_8
REMARK    4  A    between atoms: C_8  and  O_9
REMARK    5  A    between atoms: N_12  and  C_13
REMARK    6  A    between atoms: C_13  and  C_14
REMARK    7  A    between atoms: C_19  and  C_20
REMARK                            x       y       z     vdW  Elec       q    Type
REMARK                         _______ _______ _______ _____ _____    ______ ____
ROOT
ATOM      1  C   UNL     1       2.954   6.708  18.667  0.00  0.00    +0.000 C 
ATOM      2  C   UNL     1       3.914   7.323  17.633  0.00  0.00    +0.000 C 
ATOM      3  C   UNL     1       4.936   6.314  17.114  0.00  0.00    +0.000 C 
ATOM      4  N   UNL     1       5.712   5.778  18.253  0.00  0.00    +0.000 NA
ATOM      5  C   UNL     1       4.794   4.998  19.100  0.00  0.00    +0.000 C 
ATOM      6  C   UNL     1       3.757   5.925  19.727  0.00  0.00    +0.000 C 
ENDROOT
BRANCH   1  11
ATOM      7  C   UNL     1       0.721   9.790  19.170  0.00  0.00    +0.000 A 
ATOM      8  C   UNL     1       0.250   9.598  20.469  0.00  0.00    +0.000 A 
ATOM      9  C   UNL     1       0.665   8.496  21.213  0.00  0.00    +0.000 A 
ATOM     10  C   UNL     1       1.546   7.566  20.658  0.00  0.00    +0.000 A 
ATOM     11  C   UNL     1       2.022   7.718  19.346  0.00  0.00    +0.000 A 
ATOM     12  C   UNL     1       1.609   8.859  18.624  0.00  0.00    +0.000 A 
BRANCH   7  14
ATOM     13  C   UNL     1      -0.315  11.915  19.379  0.00  0.00    +0.000 C 
ATOM     14  O   UNL     1       0.249  10.909  18.545  0.00  0.00    +0.000 OA
ENDBRANCH   7  14
ENDBRANCH   1  11
BRANCH   1  15
ATOM     15  O   UNL     1       2.119   5.773  17.963  0.00  0.00    +0.000 OA
ATOM     16  H   UNL     1       1.268   6.218  17.799  0.00  0.00    +0.000 HD
ENDBRANCH   1  15
BRANCH   4  17
ATOM     17  C   UNL     1       6.805   4.897  17.782  0.00  0.00    +0.000 C 
BRANCH  17  18
ATOM     18  C   UNL     1       6.487   4.256  16.429  0.00  0.00    +0.000 C 
ATOM     19  O   UNL     1       5.713   3.307  16.372  0.00  0.00    +0.000 OA
ATOM     20  N   UNL     1       7.194   4.811  15.380  0.00  0.00    +0.000 N 
ATOM     21  C   UNL     1       6.903   4.485  14.086  0.00  0.00    +0.000 A 
ATOM     22  N   UNL     1       5.885   3.801  13.637  0.00  0.00    +0.000 NA
ATOM     23  C   UNL     1       5.960   3.677  12.264  0.00  0.00    +0.000 A 
ATOM     24  C   UNL     1       4.880   2.933  11.570  0.00  0.00    +0.000 C 
ATOM     25  C   UNL     1       7.075   4.269  11.696  0.00  0.00    +0.000 A 
ATOM     26  S   UNL     1       7.989   5.074  12.913  0.00  0.00    +0.000 S 
ATOM     27  H   UNL     1       7.894   5.511  15.568  0.00  0.00    +0.000 HD
ENDBRANCH  17  18
ENDBRANCH   4  17
TORSDOF 5
ENDMDL
MODEL 9
REMARK VINA RESULT:      -7.1      5.052     10.565
REMARK  Name = 
REMARK  7 active torsions:
REMARK  status: ('A' for Active; 'I' for Inactive)
REMARK    1  A    between atoms: C_1  and  O_2
REMARK    2  A    between atoms: O_2  and  C_3
REMARK    3  A    between atoms: C_7  and  C_8
REMARK    4  A    between atoms: C_8  and  O_9
REMARK    5  A    between atoms: N_12  and  C_13
REMARK    6  A    between atoms: C_13  and  C_14
REMARK    7  A    between atoms: C_19  and  C_20
REMARK                            x       y       z     vdW  Elec       q    Type
REMARK                         _______ _______ _______ _____ _____    ______ ____
ROOT
ATOM      1  C   UNL     1      -1.487  11.759  18.668  0.00  0.00    +0.000 C 
ATOM      2  C   UNL     1      -0.205  11.887  19.510  0.00  0.00    +0.000 C 
ATOM      3  C   UNL     1       0.991  11.194  18.860  0.00  0.00    +0.000 C 
ATOM      4  N   UNL     1       0.673   9.765  18.655  0.00  0.00    +0.000 NA
ATOM      5  C   UNL     1      -0.411   9.679  17.662  0.00  0.00    +0.000 C 
ATOM      6  C   UNL     1      -1.686  10.292  18.234  0.00  0.00    +0.000 C 
ENDROOT
BRANCH   1  11
ATOM      7  C   UNL     1      -5.202  12.301  19.472  0.00  0.00    +0.000 A 
ATOM      8  C   UNL     1      -5.138  13.131  20.591  0.00  0.00    +0.000 A 
ATOM      9  C   UNL     1      -3.906  13.555  21.084  0.00  0.00    +0.000 A 
ATOM     10  C   UNL     1      -2.724  13.139  20.470  0.00  0.00    +0.000 A 
ATOM     11  C   UNL     1      -2.752  12.286  19.356  0.00  0.00    +0.000 A 
ATOM     12  C   UNL     1      -4.014  11.894  18.858  0.00  0.00    +0.000 A 
BRANCH   7  14
ATOM     13  C   UNL     1      -7.182  11.078  19.934  0.00  0.00    +0.000 C 
ATOM     14  O   UNL     1      -6.465  11.960  19.078  0.00  0.00    +0.000 OA
ENDBRANCH   7  14
ENDBRANCH   1  11
BRANCH   1  15
ATOM     15  O   UNL     1      -1.292  12.549  17.483  0.00  0.00    +0.000 OA
ATOM     16  H   UNL     1      -0.353  12.471  17.238  0.00  0.00    +0.000 HD
ENDBRANCH   1  15
BRANCH   4  17
ATOM     17  C   UNL     1       1.853   9.026  18.151  0.00  0.00    +0.000 C 
BRANCH  17  18
ATOM     18  C   UNL     1       2.153   7.780  18.987  0.00  0.00    +0.000 C 
ATOM     19  O   UNL     1       1.981   7.804  20.201  0.00  0.00    +0.000 OA
ATOM     20  N   UNL     1       2.669   6.734  18.246  0.00  0.00    +0.000 N 
ATOM     21  C   UNL     1       2.823   5.493  18.795  0.00  0.00    +0.000 A 
ATOM     22  N   UNL     1       2.384   5.061  19.948  0.00  0.00    +0.000 NA
ATOM     23  C   UNL     1       2.764   3.748  20.142  0.00  0.00    +0.000 A 
ATOM     24  C   UNL     1       2.348   3.080  21.400  0.00  0.00    +0.000 C 
ATOM     25  C   UNL     1       3.518   3.211  19.113  0.00  0.00    +0.000 A 
ATOM     26  S   UNL     1       3.666   4.361  17.841  0.00  0.00    +0.000 S 
ATOM     27  H   UNL     1       2.877   6.872  17.271  0.00  0.00    +0.000 HD
ENDBRANCH  17  18
ENDBRANCH   4  17
TORSDOF 5
ENDMDL
