MODEL 1
REMARK VINA RESULT:      -7.2      0.000      0.000
REMARK  Name = 
REMARK  4 active torsions:
REMARK  status: ('A' for Active; 'I' for Inactive)
REMARK    1  A    between atoms: C_1  and  O_2
REMARK    2  A    between atoms: O_2  and  C_3
REMARK    3  A    between atoms: C_9  and  N_10
REMARK    4  A    between atoms: C_21  and  C_22
REMARK                            x       y       z     vdW  Elec       q    Type
REMARK                         _______ _______ _______ _____ _____    ______ ____
ROOT
ATOM      1  C   UNL     1      -0.107  10.229  21.014  0.00  0.00    +0.000 A 
ATOM      2  C   UNL     1       0.190  10.825  19.784  0.00  0.00    +0.000 A 
ATOM      3  C   UNL     1       1.009  10.173  18.854  0.00  0.00    +0.000 A 
ATOM      4  C   UNL     1       1.533   8.916  19.162  0.00  0.00    +0.000 A 
ATOM      5  C   UNL     1       2.407   8.191  18.226  0.00  0.00    +0.000 A 
ATOM      6  O   UNL     1       2.620   8.622  17.097  0.00  0.00    +0.000 OA
ATOM      7  C   UNL     1       2.945   6.877  18.698  0.00  0.00    +0.000 A 
ATOM      8  C   UNL     1       2.532   6.400  19.887  0.00  0.00    +0.000 A 
ATOM      9  C   UNL     1       3.009   5.124  20.524  0.00  0.00    +0.000 C 
ATOM     10  O   UNL     1       1.663   7.072  20.730  0.00  0.00    +0.000 OA
ATOM     11  C   UNL     1       1.220   8.314  20.372  0.00  0.00    +0.000 A 
ATOM     12  C   UNL     1       0.407   8.964  21.298  0.00  0.00    +0.000 A 
ENDROOT
BRANCH   7  13
ATOM     13  N   UNL     1       3.802   6.217  17.846  0.00  0.00    +0.000 N 
ATOM     14  C   UNL     1       3.517   5.030  17.219  0.00  0.00    +0.000 C 
ATOM     15  O   UNL     1       2.527   4.323  17.290  0.00  0.00    +0.000 OA
ATOM     16  C   UNL     1       4.665   4.719  16.372  0.00  0.00    +0.000 A 
ATOM     17  C   UNL     1       4.884   3.649  15.527  0.00  0.00    +0.000 A 
ATOM     18  C   UNL     1       6.112   3.604  14.860  0.00  0.00    +0.000 A 
ATOM     19  C   UNL     1       7.079   4.610  15.059  0.00  0.00    +0.000 A 
ATOM     20  C   UNL     1       6.829   5.687  15.916  0.00  0.00    +0.000 A 
ATOM     21  C   UNL     1       5.602   5.720  16.549  0.00  0.00    +0.000 A 
ATOM     22  C   UNL     1       5.047   6.687  17.497  0.00  0.00    +0.000 C 
ATOM     23  O   UNL     1       5.675   7.638  17.925  0.00  0.00    +0.000 OA
ENDBRANCH   7  13
BRANCH   1  25
ATOM     24  C   UNL     1      -1.041  10.474  23.182  0.00  0.00    +0.000 C 
ATOM     25  O   UNL     1      -0.903  10.963  21.850  0.00  0.00    +0.000 OA
ENDBRANCH   1  25
TORSDOF 2
ENDMDL
MODEL 2
REMARK VINA RESULT:      -7.1      0.297      1.779
REMARK  Name = 
REMARK  4 active torsions:
REMARK  status: ('A' for Active; 'I' for Inactive)
REMARK    1  A    between atoms: C_1  and  O_2
REMARK    2  A    between atoms: O_2  and  C_3
REMARK    3  A    between atoms: C_9  and  N_10
REMARK    4  A    between atoms: C_21  and  C_22
REMARK                            x       y       z     vdW  Elec       q    Type
REMARK                         _______ _______ _______ _____ _____    ______ ____
ROOT
ATOM      1  C   UNL     1      -0.340  10.434  20.933  0.00  0.00    +0.000 A 
ATOM      2  C   UNL     1      -0.023  10.995  19.690  0.00  0.00    +0.000 A 
ATOM      3  C   UNL     1       0.814  10.319  18.794  0.00  0.00    +0.000 A 
ATOM      4  C   UNL     1       1.337   9.073  19.149  0.00  0.00    +0.000 A 
ATOM      5  C   UNL     1       2.229   8.324  18.250  0.00  0.00    +0.000 A 
ATOM      6  O   UNL     1       2.460   8.723  17.113  0.00  0.00    +0.000 OA
ATOM      7  C   UNL     1       2.764   7.027  18.770  0.00  0.00    +0.000 A 
ATOM      8  C   UNL     1       2.330   6.583  19.966  0.00  0.00    +0.000 A 
ATOM      9  C   UNL     1       2.800   5.329  20.649  0.00  0.00    +0.000 C 
ATOM     10  O   UNL     1       1.445   7.277  20.773  0.00  0.00    +0.000 OA
ATOM     11  C   UNL     1       1.004   8.506  20.371  0.00  0.00    +0.000 A 
ATOM     12  C   UNL     1       0.172   9.180  21.263  0.00  0.00    +0.000 A 
ENDROOT
BRANCH   7  13
ATOM     13  N   UNL     1       3.637   6.345  17.953  0.00  0.00    +0.000 N 
ATOM     14  C   UNL     1       4.892   6.787  17.613  0.00  0.00    +0.000 C 
ATOM     15  O   UNL     1       5.468   7.820  17.908  0.00  0.00    +0.000 OA
ATOM     16  C   UNL     1       5.492   5.742  16.788  0.00  0.00    +0.000 A 
ATOM     17  C   UNL     1       6.740   5.680  16.199  0.00  0.00    +0.000 A 
ATOM     18  C   UNL     1       7.025   4.549  15.428  0.00  0.00    +0.000 A 
ATOM     19  C   UNL     1       6.067   3.528  15.260  0.00  0.00    +0.000 A 
ATOM     20  C   UNL     1       4.812   3.613  15.874  0.00  0.00    +0.000 A 
ATOM     21  C   UNL     1       4.560   4.731  16.646  0.00  0.00    +0.000 A 
ATOM     22  C   UNL     1       3.366   5.116  17.398  0.00  0.00    +0.000 C 
ATOM     23  O   UNL     1       2.334   4.470  17.390  0.00  0.00    +0.000 OA
ENDBRANCH   7  13
BRANCH   1  25
ATOM     24  C   UNL     1      -1.140  10.876  23.123  0.00  0.00    +0.000 C 
ATOM     25  O   UNL     1      -1.154  11.189  21.732  0.00  0.00    +0.000 OA
ENDBRANCH   1  25
TORSDOF 2
ENDMDL
MODEL 3
REMARK VINA RESULT:      -7.0      2.845      5.244
REMARK  Name = 
REMARK  4 active torsions:
REMARK  status: ('A' for Active; 'I' for Inactive)
REMARK    1  A    between atoms: C_1  and  O_2
REMARK    2  A    between atoms: O_2  and  C_3
REMARK    3  A    between atoms: C_9  and  N_10
REMARK    4  A    between atoms: C_21  and  C_22
REMARK                            x       y       z     vdW  Elec       q    Type
REMARK                         _______ _______ _______ _____ _____    ______ ____
ROOT
ATOM      1  C   UNL     1      -2.469  14.559  21.762  0.00  0.00    +0.000 A 
ATOM      2  C   UNL     1      -1.285  14.476  22.504  0.00  0.00    +0.000 A 
ATOM      3  C   UNL     1      -0.334  13.488  22.222  0.00  0.00    +0.000 A 
ATOM      4  C   UNL     1      -0.574  12.577  21.191  0.00  0.00    +0.000 A 
ATOM      5  C   UNL     1       0.387  11.513  20.859  0.00  0.00    +0.000 A 
ATOM      6  O   UNL     1       1.481  11.456  21.411  0.00  0.00    +0.000 OA
ATOM      7  C   UNL     1      -0.013  10.571  19.768  0.00  0.00    +0.000 A 
ATOM      8  C   UNL     1      -1.160  10.803  19.102  0.00  0.00    +0.000 A 
ATOM      9  C   UNL     1      -1.726   9.931  18.016  0.00  0.00    +0.000 C 
ATOM     10  O   UNL     1      -2.025  11.845  19.392  0.00  0.00    +0.000 OA
ATOM     11  C   UNL     1      -1.736  12.674  20.439  0.00  0.00    +0.000 A 
ATOM     12  C   UNL     1      -2.684  13.656  20.722  0.00  0.00    +0.000 A 
ENDROOT
BRANCH   7  13
ATOM     13  N   UNL     1       0.860   9.544  19.486  0.00  0.00    +0.000 N 
ATOM     14  C   UNL     1       1.032   8.429  20.269  0.00  0.00    +0.000 C 
ATOM     15  O   UNL     1       0.513   8.127  21.329  0.00  0.00    +0.000 OA
ATOM     16  C   UNL     1       1.997   7.580  19.578  0.00  0.00    +0.000 A 
ATOM     17  C   UNL     1       2.508   6.345  19.929  0.00  0.00    +0.000 A 
ATOM     18  C   UNL     1       3.457   5.781  19.072  0.00  0.00    +0.000 A 
ATOM     19  C   UNL     1       3.873   6.459  17.908  0.00  0.00    +0.000 A 
ATOM     20  C   UNL     1       3.336   7.707  17.572  0.00  0.00    +0.000 A 
ATOM     21  C   UNL     1       2.386   8.235  18.425  0.00  0.00    +0.000 A 
ATOM     22  C   UNL     1       1.652   9.499  18.362  0.00  0.00    +0.000 C 
ATOM     23  O   UNL     1       1.846  10.343  17.506  0.00  0.00    +0.000 OA
ENDBRANCH   7  13
BRANCH   1  25
ATOM     24  C   UNL     1      -4.606  15.135  22.618  0.00  0.00    +0.000 C 
ATOM     25  O   UNL     1      -3.331  15.553  22.134  0.00  0.00    +0.000 OA
ENDBRANCH   1  25
TORSDOF 2
ENDMDL
MODEL 4
REMARK VINA RESULT:      -7.0      3.626      9.947
REMARK  Name = 
REMARK  4 active torsions:
REMARK  status: ('A' for Active; 'I' for Inactive)
REMARK    1  A    between atoms: C_1  and  O_2
REMARK    2  A    between atoms: O_2  and  C_3
REMARK    3  A    between atoms: C_9  and  N_10
REMARK    4  A    between atoms: C_21  and  C_22
REMARK                            x       y       z     vdW  Elec       q    Type
REMARK                         _______ _______ _______ _____ _____    ______ ____
ROOT
ATOM      1  C   UNL     1       1.886   8.120  19.086  0.00  0.00    +0.000 A 
ATOM      2  C   UNL     1       1.822   7.782  20.442  0.00  0.00    +0.000 A 
ATOM      3  C   UNL     1       1.222   8.647  21.366  0.00  0.00    +0.000 A 
ATOM      4  C   UNL     1       0.686   9.859  20.925  0.00  0.00    +0.000 A 
ATOM      5  C   UNL     1       0.053  10.809  21.854  0.00  0.00    +0.000 A 
ATOM      6  O   UNL     1      -0.117  10.520  23.034  0.00  0.00    +0.000 OA
ATOM      7  C   UNL     1      -0.434  12.094  21.263  0.00  0.00    +0.000 A 
ATOM      8  C   UNL     1      -0.355  12.262  19.929  0.00  0.00    +0.000 A 
ATOM      9  C   UNL     1      -0.757  13.506  19.186  0.00  0.00    +0.000 C 
ATOM     10  O   UNL     1       0.192  11.331  19.063  0.00  0.00    +0.000 OA
ATOM     11  C   UNL     1       0.728  10.184  19.577  0.00  0.00    +0.000 A 
ATOM     12  C   UNL     1       1.327   9.323  18.658  0.00  0.00    +0.000 A 
ENDROOT
BRANCH   7  13
ATOM     13  N   UNL     1      -0.983  13.007  22.135  0.00  0.00    +0.000 N 
ATOM     14  C   UNL     1      -2.285  12.986  22.569  0.00  0.00    +0.000 C 
ATOM     15  O   UNL     1      -3.196  12.230  22.281  0.00  0.00    +0.000 OA
ATOM     16  C   UNL     1      -2.426  14.087  23.518  0.00  0.00    +0.000 A 
ATOM     17  C   UNL     1      -3.525  14.498  24.248  0.00  0.00    +0.000 A 
ATOM     18  C   UNL     1      -3.364  15.622  25.062  0.00  0.00    +0.000 A 
ATOM     19  C   UNL     1      -2.131  16.304  25.119  0.00  0.00    +0.000 A 
ATOM     20  C   UNL     1      -1.032  15.863  24.373  0.00  0.00    +0.000 A 
ATOM     21  C   UNL     1      -1.210  14.739  23.591  0.00  0.00    +0.000 A 
ATOM     22  C   UNL     1      -0.277  14.043  22.703  0.00  0.00    +0.000 C 
ATOM     23  O   UNL     1       0.853  14.436  22.480  0.00  0.00    +0.000 OA
ENDBRANCH   7  13
BRANCH   1  25
ATOM     24  C   UNL     1       2.872   5.971  18.886  0.00  0.00    +0.000 C 
ATOM     25  O   UNL     1       2.507   7.207  18.278  0.00  0.00    +0.000 OA
ENDBRANCH   1  25
TORSDOF 2
ENDMDL
MODEL 5
REMARK VINA RESULT:      -7.0      3.570     10.065
REMARK  Name = 
REMARK  4 active torsions:
REMARK  status: ('A' for Active; 'I' for Inactive)
REMARK    1  A    between atoms: C_1  and  O_2
REMARK    2  A    between atoms: O_2  and  C_3
REMARK    3  A    between atoms: C_9  and  N_10
REMARK    4  A    between atoms: C_21  and  C_22
REMARK                            x       y       z     vdW  Elec       q    Type
REMARK                         _______ _______ _______ _____ _____    ______ ____
ROOT
ATOM      1  C   UNL     1       1.831   8.000  19.087  0.00  0.00    +0.000 A 
ATOM      2  C   UNL     1       1.835   7.674  20.448  0.00  0.00    +0.000 A 
ATOM      3  C   UNL     1       1.251   8.530  21.390  0.00  0.00    +0.000 A 
ATOM      4  C   UNL     1       0.662   9.723  20.962  0.00  0.00    +0.000 A 
ATOM      5  C   UNL     1       0.044  10.664  21.910  0.00  0.00    +0.000 A 
ATOM      6  O   UNL     1      -0.067  10.382  23.098  0.00  0.00    +0.000 OA
ATOM      7  C   UNL     1      -0.504  11.929  21.329  0.00  0.00    +0.000 A 
ATOM      8  C   UNL     1      -0.487  12.087  19.992  0.00  0.00    +0.000 A 
ATOM      9  C   UNL     1      -0.954  13.312  19.257  0.00  0.00    +0.000 C 
ATOM     10  O   UNL     1       0.049  11.163  19.111  0.00  0.00    +0.000 OA
ATOM     11  C   UNL     1       0.638  10.036  19.611  0.00  0.00    +0.000 A 
ATOM     12  C   UNL     1       1.220   9.184  18.674  0.00  0.00    +0.000 A 
ENDROOT
BRANCH   7  13
ATOM     13  N   UNL     1      -1.040  12.836  22.217  0.00  0.00    +0.000 N 
ATOM     14  C   UNL     1      -0.379  13.937  22.700  0.00  0.00    +0.000 C 
ATOM     15  O   UNL     1       0.759  14.323  22.496  0.00  0.00    +0.000 OA
ATOM     16  C   UNL     1      -1.324  14.648  23.557  0.00  0.00    +0.000 A 
ATOM     17  C   UNL     1      -1.170  15.818  24.274  0.00  0.00    +0.000 A 
ATOM     18  C   UNL     1      -2.258  16.244  25.041  0.00  0.00    +0.000 A 
ATOM     19  C   UNL     1      -3.453  15.496  25.079  0.00  0.00    +0.000 A 
ATOM     20  C   UNL     1      -3.585  14.316  24.338  0.00  0.00    +0.000 A 
ATOM     21  C   UNL     1      -2.503  13.926  23.573  0.00  0.00    +0.000 A 
ATOM     22  C   UNL     1      -2.323  12.759  22.708  0.00  0.00    +0.000 C 
ATOM     23  O   UNL     1      -3.157  11.881  22.589  0.00  0.00    +0.000 OA
ENDBRANCH   7  13
BRANCH   1  25
ATOM     24  C   UNL     1       2.747   5.827  18.830  0.00  0.00    +0.000 C 
ATOM     25  O   UNL     1       2.442   7.098  18.261  0.00  0.00    +0.000 OA
ENDBRANCH   1  25
TORSDOF 2
ENDMDL
MODEL 6
REMARK VINA RESULT:      -6.9      2.608      8.005
REMARK  Name = 
REMARK  4 active torsions:
REMARK  status: ('A' for Active; 'I' for Inactive)
REMARK    1  A    between atoms: C_1  and  O_2
REMARK    2  A    between atoms: O_2  and  C_3
REMARK    3  A    between atoms: C_9  and  N_10
REMARK    4  A    between atoms: C_21  and  C_22
REMARK                            x       y       z     vdW  Elec       q    Type
REMARK                         _______ _______ _______ _____ _____    ______ ____
ROOT
ATOM      1  C   UNL     1       3.578   5.671  18.448  0.00  0.00    +0.000 A 
ATOM      2  C   UNL     1       3.695   6.638  17.444  0.00  0.00    +0.000 A 
ATOM      3  C   UNL     1       3.041   7.871  17.560  0.00  0.00    +0.000 A 
ATOM      4  C   UNL     1       2.264   8.132  18.691  0.00  0.00    +0.000 A 
ATOM      5  C   UNL     1       1.547   9.406  18.860  0.00  0.00    +0.000 A 
ATOM      6  O   UNL     1       1.693  10.324  18.060  0.00  0.00    +0.000 OA
ATOM      7  C   UNL     1       0.707   9.540  20.091  0.00  0.00    +0.000 A 
ATOM      8  C   UNL     1       0.731   8.547  21.000  0.00  0.00    +0.000 A 
ATOM      9  C   UNL     1      -0.086   8.505  22.262  0.00  0.00    +0.000 C 
ATOM     10  O   UNL     1       1.458   7.378  20.849  0.00  0.00    +0.000 OA
ATOM     11  C   UNL     1       2.167   7.182  19.698  0.00  0.00    +0.000 A 
ATOM     12  C   UNL     1       2.816   5.955  19.580  0.00  0.00    +0.000 A 
ENDROOT
BRANCH   7  13
ATOM     13  N   UNL     1      -0.004  10.711  20.231  0.00  0.00    +0.000 N 
ATOM     14  C   UNL     1      -1.255  10.930  19.710  0.00  0.00    +0.000 C 
ATOM     15  O   UNL     1      -1.960  10.205  19.030  0.00  0.00    +0.000 OA
ATOM     16  C   UNL     1      -1.658  12.266  20.140  0.00  0.00    +0.000 A 
ATOM     17  C   UNL     1      -2.825  12.964  19.900  0.00  0.00    +0.000 A 
ATOM     18  C   UNL     1      -2.913  14.257  20.423  0.00  0.00    +0.000 A 
ATOM     19  C   UNL     1      -1.844  14.816  21.153  0.00  0.00    +0.000 A 
ATOM     20  C   UNL     1      -0.674  14.085  21.386  0.00  0.00    +0.000 A 
ATOM     21  C   UNL     1      -0.618  12.802  20.877  0.00  0.00    +0.000 A 
ATOM     22  C   UNL     1       0.447  11.801  20.938  0.00  0.00    +0.000 C 
ATOM     23  O   UNL     1       1.535  12.013  21.443  0.00  0.00    +0.000 OA
ENDBRANCH   7  13
BRANCH   1  25
ATOM     24  C   UNL     1       5.534   4.381  18.823  0.00  0.00    +0.000 C 
ATOM     25  O   UNL     1       4.247   4.499  18.221  0.00  0.00    +0.000 OA
ENDBRANCH   1  25
TORSDOF 2
ENDMDL
MODEL 7
REMARK VINA RESULT:      -6.9      2.678      8.102
REMARK  Name = 
REMARK  4 active torsions:
REMARK  status: ('A' for Active; 'I' for Inactive)
REMARK    1  A    between atoms: C_1  and  O_2
REMARK    2  A    between atoms: O_2  and  C_3
REMARK    3  A    between atoms: C_9  and  N_10
REMARK    4  A    between atoms: C_21  and  C_22
REMARK                            x       y       z     vdW  Elec       q    Type
REMARK                         _______ _______ _______ _____ _____    ______ ____
ROOT
ATOM      1  C   UNL     1       3.544   4.454  19.217  0.00  0.00    +0.000 A 
ATOM      2  C   UNL     1       2.709   4.251  20.322  0.00  0.00    +0.000 A 
ATOM      3  C   UNL     1       1.850   5.265  20.764  0.00  0.00    +0.000 A 
ATOM      4  C   UNL     1       1.831   6.490  20.093  0.00  0.00    +0.000 A 
ATOM      5  C   UNL     1       0.956   7.593  20.520  0.00  0.00    +0.000 A 
ATOM      6  O   UNL     1       0.135   7.436  21.419  0.00  0.00    +0.000 OA
ATOM      7  C   UNL     1       1.069   8.871  19.750  0.00  0.00    +0.000 A 
ATOM      8  C   UNL     1       1.878   8.906  18.674  0.00  0.00    +0.000 A 
ATOM      9  C   UNL     1       2.139  10.119  17.824  0.00  0.00    +0.000 C 
ATOM     10  O   UNL     1       2.653   7.838  18.254  0.00  0.00    +0.000 OA
ATOM     11  C   UNL     1       2.642   6.684  18.984  0.00  0.00    +0.000 A 
ATOM     12  C   UNL     1       3.498   5.675  18.546  0.00  0.00    +0.000 A 
ENDROOT
BRANCH   7  13
ATOM     13  N   UNL     1       0.288   9.921  20.176  0.00  0.00    +0.000 N 
ATOM     14  C   UNL     1       0.487  10.619  21.342  0.00  0.00    +0.000 C 
ATOM     15  O   UNL     1       1.320  10.462  22.218  0.00  0.00    +0.000 OA
ATOM     16  C   UNL     1      -0.521  11.675  21.373  0.00  0.00    +0.000 A 
ATOM     17  C   UNL     1      -0.752  12.657  22.316  0.00  0.00    +0.000 A 
ATOM     18  C   UNL     1      -1.827  13.521  22.087  0.00  0.00    +0.000 A 
ATOM     19  C   UNL     1      -2.639  13.377  20.942  0.00  0.00    +0.000 A 
ATOM     20  C   UNL     1      -2.379  12.376  20.000  0.00  0.00    +0.000 A 
ATOM     21  C   UNL     1      -1.300  11.547  20.238  0.00  0.00    +0.000 A 
ATOM     22  C   UNL     1      -0.779  10.420  19.465  0.00  0.00    +0.000 C 
ATOM     23  O   UNL     1      -1.312  10.000  18.454  0.00  0.00    +0.000 OA
ENDBRANCH   7  13
BRANCH   1  25
ATOM     24  C   UNL     1       4.447   2.351  19.845  0.00  0.00    +0.000 C 
ATOM     25  O   UNL     1       4.351   3.401  18.885  0.00  0.00    +0.000 OA
ENDBRANCH   1  25
TORSDOF 2
ENDMDL
MODEL 8
REMARK VINA RESULT:      -6.9      2.709      7.998
REMARK  Name = 
REMARK  4 active torsions:
REMARK  status: ('A' for Active; 'I' for Inactive)
REMARK    1  A    between atoms: C_1  and  O_2
REMARK    2  A    between atoms: O_2  and  C_3
REMARK    3  A    between atoms: C_9  and  N_10
REMARK    4  A    between atoms: C_21  and  C_22
REMARK                            x       y       z     vdW  Elec       q    Type
REMARK                         _______ _______ _______ _____ _____    ______ ____
ROOT
ATOM      1  C   UNL     1       3.577   4.619  19.297  0.00  0.00    +0.000 A 
ATOM      2  C   UNL     1       2.758   4.456  20.420  0.00  0.00    +0.000 A 
ATOM      3  C   UNL     1       1.899   5.482  20.833  0.00  0.00    +0.000 A 
ATOM      4  C   UNL     1       1.864   6.680  20.114  0.00  0.00    +0.000 A 
ATOM      5  C   UNL     1       0.988   7.794  20.509  0.00  0.00    +0.000 A 
ATOM      6  O   UNL     1       0.181   7.669  21.424  0.00  0.00    +0.000 OA
ATOM      7  C   UNL     1       1.084   9.041  19.686  0.00  0.00    +0.000 A 
ATOM      8  C   UNL     1       1.878   9.037  18.599  0.00  0.00    +0.000 A 
ATOM      9  C   UNL     1       2.120  10.215  17.697  0.00  0.00    +0.000 C 
ATOM     10  O   UNL     1       2.653   7.957  18.210  0.00  0.00    +0.000 OA
ATOM     11  C   UNL     1       2.658   6.833  18.986  0.00  0.00    +0.000 A 
ATOM     12  C   UNL     1       3.515   5.811  18.578  0.00  0.00    +0.000 A 
ENDROOT
BRANCH   7  13
ATOM     13  N   UNL     1       0.303  10.103  20.081  0.00  0.00    +0.000 N 
ATOM     14  C   UNL     1      -0.851  10.499  19.450  0.00  0.00    +0.000 C 
ATOM     15  O   UNL     1      -1.392  10.055  18.453  0.00  0.00    +0.000 OA
ATOM     16  C   UNL     1      -1.386  11.616  20.223  0.00  0.00    +0.000 A 
ATOM     17  C   UNL     1      -2.528  12.368  20.027  0.00  0.00    +0.000 A 
ATOM     18  C   UNL     1      -2.768  13.410  20.927  0.00  0.00    +0.000 A 
ATOM     19  C   UNL     1      -1.868  13.678  21.979  0.00  0.00    +0.000 A 
ATOM     20  C   UNL     1      -0.720  12.897  22.158  0.00  0.00    +0.000 A 
ATOM     21  C   UNL     1      -0.515  11.861  21.268  0.00  0.00    +0.000 A 
ATOM     22  C   UNL     1       0.572  10.886  21.180  0.00  0.00    +0.000 C 
ATOM     23  O   UNL     1       1.546  10.903  21.910  0.00  0.00    +0.000 OA
ENDBRANCH   7  13
BRANCH   1  25
ATOM     24  C   UNL     1       4.176   2.369  19.756  0.00  0.00    +0.000 C 
ATOM     25  O   UNL     1       4.385   3.557  18.996  0.00  0.00    +0.000 OA
ENDBRANCH   1  25
TORSDOF 2
ENDMDL
MODEL 9
REMARK VINA RESULT:      -6.9      3.559      9.098
REMARK  Name = 
REMARK  4 active torsions:
REMARK  status: ('A' for Active; 'I' for Inactive)
REMARK    1  A    between atoms: C_1  and  O_2
REMARK    2  A    between atoms: O_2  and  C_3
REMARK    3  A    between atoms: C_9  and  N_10
REMARK    4  A    between atoms: C_21  and  C_22
REMARK                            x       y       z     vdW  Elec       q    Type
REMARK                         _______ _______ _______ _____ _____    ______ ____
ROOT
ATOM      1  C   UNL     1       2.457   7.379  18.854  0.00  0.00    +0.000 A 
ATOM      2  C   UNL     1       2.438   8.339  17.836  0.00  0.00    +0.000 A 
ATOM      3  C   UNL     1       1.784   9.564  18.023  0.00  0.00    +0.000 A 
ATOM      4  C   UNL     1       1.145   9.823  19.238  0.00  0.00    +0.000 A 
ATOM      5  C   UNL     1       0.435  11.089  19.483  0.00  0.00    +0.000 A 
ATOM      6  O   UNL     1       0.470  12.002  18.665  0.00  0.00    +0.000 OA
ATOM      7  C   UNL     1      -0.253  11.221  20.805  0.00  0.00    +0.000 A 
ATOM      8  C   UNL     1      -0.105  10.236  21.712  0.00  0.00    +0.000 A 
ATOM      9  C   UNL     1      -0.763  10.193  23.063  0.00  0.00    +0.000 C 
ATOM     10  O   UNL     1       0.616   9.076  21.482  0.00  0.00    +0.000 OA
ATOM     11  C   UNL     1       1.184   8.881  20.255  0.00  0.00    +0.000 A 
ATOM     12  C   UNL     1       1.833   7.662  20.068  0.00  0.00    +0.000 A 
ENDROOT
BRANCH   7  13
ATOM     13  N   UNL     1      -0.960  12.383  21.022  0.00  0.00    +0.000 N 
ATOM     14  C   UNL     1      -2.233  12.617  20.565  0.00  0.00    +0.000 C 
ATOM     15  O   UNL     1      -2.965  11.917  19.888  0.00  0.00    +0.000 OA
ATOM     16  C   UNL     1      -2.619  13.934  21.065  0.00  0.00    +0.000 A 
ATOM     17  C   UNL     1      -3.797  14.637  20.903  0.00  0.00    +0.000 A 
ATOM     18  C   UNL     1      -3.864  15.908  21.480  0.00  0.00    +0.000 A 
ATOM     19  C   UNL     1      -2.765  16.442  22.185  0.00  0.00    +0.000 A 
ATOM     20  C   UNL     1      -1.585  15.706  22.338  0.00  0.00    +0.000 A 
ATOM     21  C   UNL     1      -1.549  14.445  21.776  0.00  0.00    +0.000 A 
ATOM     22  C   UNL     1      -0.480  13.446  21.752  0.00  0.00    +0.000 C 
ATOM     23  O   UNL     1       0.628  13.642  22.217  0.00  0.00    +0.000 OA
ENDBRANCH   7  13
BRANCH   1  25
ATOM     24  C   UNL     1       3.392   5.349  19.653  0.00  0.00    +0.000 C 
ATOM     25  O   UNL     1       3.112   6.215  18.556  0.00  0.00    +0.000 OA
ENDBRANCH   1  25
TORSDOF 2
ENDMDL
