MODEL 1
REMARK VINA RESULT:      -8.5      0.000      0.000
REMARK  Name = 
REMARK  1 active torsions:
REMARK  status: ('A' for Active; 'I' for Inactive)
REMARK    1  A    between atoms: O_1  and  C_2
REMARK                            x       y       z     vdW  Elec       q    Type
REMARK                         _______ _______ _______ _____ _____    ______ ____
ROOT
ATOM      1  C   UNL     1       5.716   4.600  19.055  0.00  0.00    +0.000 C 
ATOM      2  C   UNL     1       6.075   4.520  17.565  0.00  0.00    +0.000 A 
ATOM      3  C   UNL     1       7.237   5.023  16.974  0.00  0.00    +0.000 A 
ATOM      4  C   UNL     1       7.343   5.077  15.577  0.00  0.00    +0.000 A 
ATOM      5  C   UNL     1       6.329   4.575  14.757  0.00  0.00    +0.000 A 
ATOM      6  C   UNL     1       5.164   4.079  15.320  0.00  0.00    +0.000 A 
ATOM      7  C   UNL     1       5.010   4.111  16.716  0.00  0.00    +0.000 A 
ATOM      8  C   UNL     1       3.552   4.047  17.275  0.00  0.00    +0.000 C 
ATOM      9  N   UNL     1       3.681   5.444  17.821  0.00  0.00    +0.000 NA
ATOM     10  C   UNL     1       4.261   5.234  19.194  0.00  0.00    +0.000 C 
ATOM     11  C   UNL     1       3.189   4.294  19.673  0.00  0.00    +0.000 A 
ATOM     12  C   UNL     1       2.339   4.421  20.760  0.00  0.00    +0.000 A 
ATOM     13  C   UNL     1       1.090   3.786  20.704  0.00  0.00    +0.000 A 
ATOM     14  C   UNL     1       0.724   3.003  19.597  0.00  0.00    +0.000 A 
ATOM     15  C   UNL     1       1.581   2.879  18.504  0.00  0.00    +0.000 A 
ATOM     16  C   UNL     1       2.788   3.569  18.539  0.00  0.00    +0.000 A 
ATOM     17  H   UNL     1       2.753   5.852  17.911  0.00  0.00    +0.000 HD
ENDROOT
BRANCH   1  18
ATOM     18  O   UNL     1       6.694   5.319  19.793  0.00  0.00    +0.000 OA
ATOM     19  H   UNL     1       6.250   5.636  20.600  0.00  0.00    +0.000 HD
ENDBRANCH   1  18
TORSDOF 1
ENDMDL
MODEL 2
REMARK VINA RESULT:      -8.0      1.435      5.119
REMARK  Name = 
REMARK  1 active torsions:
REMARK  status: ('A' for Active; 'I' for Inactive)
REMARK    1  A    between atoms: O_1  and  C_2
REMARK                            x       y       z     vdW  Elec       q    Type
REMARK                         _______ _______ _______ _____ _____    ______ ____
ROOT
ATOM      1  C   UNL     1       3.098   5.815  19.195  0.00  0.00    +0.000 C 
ATOM      2  C   UNL     1       2.186   4.583  19.158  0.00  0.00    +0.000 A 
ATOM      3  C   UNL     1       1.183   4.277  20.084  0.00  0.00    +0.000 A 
ATOM      4  C   UNL     1       0.570   3.016  20.059  0.00  0.00    +0.000 A 
ATOM      5  C   UNL     1       0.899   2.074  19.079  0.00  0.00    +0.000 A 
ATOM      6  C   UNL     1       1.895   2.352  18.157  0.00  0.00    +0.000 A 
ATOM      7  C   UNL     1       2.581   3.574  18.237  0.00  0.00    +0.000 A 
ATOM      8  C   UNL     1       3.989   3.648  17.563  0.00  0.00    +0.000 C 
ATOM      9  N   UNL     1       4.641   3.839  18.906  0.00  0.00    +0.000 NA
ATOM     10  C   UNL     1       4.613   5.330  19.105  0.00  0.00    +0.000 C 
ATOM     11  C   UNL     1       5.325   5.671  17.825  0.00  0.00    +0.000 A 
ATOM     12  C   UNL     1       6.508   6.370  17.643  0.00  0.00    +0.000 A 
ATOM     13  C   UNL     1       7.278   6.088  16.506  0.00  0.00    +0.000 A 
ATOM     14  C   UNL     1       6.845   5.156  15.550  0.00  0.00    +0.000 A 
ATOM     15  C   UNL     1       5.655   4.452  15.736  0.00  0.00    +0.000 A 
ATOM     16  C   UNL     1       4.933   4.688  16.901  0.00  0.00    +0.000 A 
ATOM     17  H   UNL     1       5.610   3.530  18.852  0.00  0.00    +0.000 HD
ENDROOT
BRANCH   1  18
ATOM     18  O   UNL     1       2.853   6.617  20.343  0.00  0.00    +0.000 OA
ATOM     19  H   UNL     1       2.202   7.289  20.073  0.00  0.00    +0.000 HD
ENDBRANCH   1  18
TORSDOF 1
ENDMDL
MODEL 3
REMARK VINA RESULT:      -7.7      1.818      2.021
REMARK  Name = 
REMARK  1 active torsions:
REMARK  status: ('A' for Active; 'I' for Inactive)
REMARK    1  A    between atoms: O_1  and  C_2
REMARK                            x       y       z     vdW  Elec       q    Type
REMARK                         _______ _______ _______ _____ _____    ______ ____
ROOT
ATOM      1  C   UNL     1       3.785   6.301  17.948  0.00  0.00    +0.000 C 
ATOM      2  C   UNL     1       4.725   5.674  16.910  0.00  0.00    +0.000 A 
ATOM      3  C   UNL     1       5.171   6.285  15.734  0.00  0.00    +0.000 A 
ATOM      4  C   UNL     1       5.850   5.528  14.768  0.00  0.00    +0.000 A 
ATOM      5  C   UNL     1       6.147   4.180  14.987  0.00  0.00    +0.000 A 
ATOM      6  C   UNL     1       5.708   3.552  16.141  0.00  0.00    +0.000 A 
ATOM      7  C   UNL     1       4.943   4.278  17.069  0.00  0.00    +0.000 A 
ATOM      8  C   UNL     1       4.048   3.460  18.054  0.00  0.00    +0.000 C 
ATOM      9  N   UNL     1       2.805   4.033  17.429  0.00  0.00    +0.000 NA
ATOM     10  C   UNL     1       2.571   5.301  18.205  0.00  0.00    +0.000 C 
ATOM     11  C   UNL     1       2.546   4.650  19.561  0.00  0.00    +0.000 A 
ATOM     12  C   UNL     1       1.537   4.650  20.510  0.00  0.00    +0.000 A 
ATOM     13  C   UNL     1       1.459   3.566  21.396  0.00  0.00    +0.000 A 
ATOM     14  C   UNL     1       2.404   2.528  21.356  0.00  0.00    +0.000 A 
ATOM     15  C   UNL     1       3.417   2.530  20.398  0.00  0.00    +0.000 A 
ATOM     16  C   UNL     1       3.444   3.574  19.480  0.00  0.00    +0.000 A 
ATOM     17  H   UNL     1       2.027   3.396  17.591  0.00  0.00    +0.000 HD
ENDROOT
BRANCH   1  18
ATOM     18  O   UNL     1       3.348   7.593  17.549  0.00  0.00    +0.000 OA
ATOM     19  H   UNL     1       4.095   8.196  17.708  0.00  0.00    +0.000 HD
ENDBRANCH   1  18
TORSDOF 1
ENDMDL
MODEL 4
REMARK VINA RESULT:      -7.7      1.678      5.273
REMARK  Name = 
REMARK  1 active torsions:
REMARK  status: ('A' for Active; 'I' for Inactive)
REMARK    1  A    between atoms: O_1  and  C_2
REMARK                            x       y       z     vdW  Elec       q    Type
REMARK                         _______ _______ _______ _____ _____    ______ ____
ROOT
ATOM      1  C   UNL     1       4.654   2.941  19.247  0.00  0.00    +0.000 C 
ATOM      2  C   UNL     1       3.360   3.388  19.937  0.00  0.00    +0.000 A 
ATOM      3  C   UNL     1       2.663   2.672  20.915  0.00  0.00    +0.000 A 
ATOM      4  C   UNL     1       1.383   3.088  21.307  0.00  0.00    +0.000 A 
ATOM      5  C   UNL     1       0.811   4.251  20.782  0.00  0.00    +0.000 A 
ATOM      6  C   UNL     1       1.479   4.972  19.806  0.00  0.00    +0.000 A 
ATOM      7  C   UNL     1       2.718   4.507  19.338  0.00  0.00    +0.000 A 
ATOM      8  C   UNL     1       3.185   5.008  17.933  0.00  0.00    +0.000 C 
ATOM      9  N   UNL     1       3.088   3.610  17.383  0.00  0.00    +0.000 NA
ATOM     10  C   UNL     1       4.444   3.023  17.669  0.00  0.00    +0.000 C 
ATOM     11  C   UNL     1       5.229   4.096  16.967  0.00  0.00    +0.000 A 
ATOM     12  C   UNL     1       6.119   3.977  15.911  0.00  0.00    +0.000 A 
ATOM     13  C   UNL     1       6.283   5.074  15.054  0.00  0.00    +0.000 A 
ATOM     14  C   UNL     1       5.600   6.281  15.282  0.00  0.00    +0.000 A 
ATOM     15  C   UNL     1       4.704   6.396  16.345  0.00  0.00    +0.000 A 
ATOM     16  C   UNL     1       4.496   5.280  17.147  0.00  0.00    +0.000 A 
ATOM     17  H   UNL     1       2.954   3.658  16.375  0.00  0.00    +0.000 HD
ENDROOT
BRANCH   1  18
ATOM     18  O   UNL     1       5.059   1.648  19.674  0.00  0.00    +0.000 OA
ATOM     19  H   UNL     1       5.856   1.426  19.160  0.00  0.00    +0.000 HD
ENDBRANCH   1  18
TORSDOF 1
ENDMDL
MODEL 5
REMARK VINA RESULT:      -7.5      1.678      5.476
REMARK  Name = 
REMARK  1 active torsions:
REMARK  status: ('A' for Active; 'I' for Inactive)
REMARK    1  A    between atoms: O_1  and  C_2
REMARK                            x       y       z     vdW  Elec       q    Type
REMARK                         _______ _______ _______ _____ _____    ______ ____
ROOT
ATOM      1  C   UNL     1       4.042   2.455  18.405  0.00  0.00    +0.000 C 
ATOM      2  C   UNL     1       3.005   3.063  19.358  0.00  0.00    +0.000 A 
ATOM      3  C   UNL     1       1.886   2.406  19.879  0.00  0.00    +0.000 A 
ATOM      4  C   UNL     1       0.903   3.135  20.563  0.00  0.00    +0.000 A 
ATOM      5  C   UNL     1       1.051   4.506  20.792  0.00  0.00    +0.000 A 
ATOM      6  C   UNL     1       2.148   5.180  20.278  0.00  0.00    +0.000 A 
ATOM      7  C   UNL     1       3.087   4.474  19.509  0.00  0.00    +0.000 A 
ATOM      8  C   UNL     1       3.986   5.307  18.538  0.00  0.00    +0.000 C 
ATOM      9  N   UNL     1       3.349   4.641  17.349  0.00  0.00    +0.000 NA
ATOM     10  C   UNL     1       4.191   3.411  17.139  0.00  0.00    +0.000 C 
ATOM     11  C   UNL     1       5.503   4.139  17.030  0.00  0.00    +0.000 A 
ATOM     12  C   UNL     1       6.412   4.148  15.983  0.00  0.00    +0.000 A 
ATOM     13  C   UNL     1       7.227   5.276  15.821  0.00  0.00    +0.000 A 
ATOM     14  C   UNL     1       7.160   6.354  16.720  0.00  0.00    +0.000 A 
ATOM     15  C   UNL     1       6.243   6.342  17.771  0.00  0.00    +0.000 A 
ATOM     16  C   UNL     1       5.392   5.249  17.882  0.00  0.00    +0.000 A 
ATOM     17  H   UNL     1       3.443   5.249  16.537  0.00  0.00    +0.000 HD
ENDROOT
BRANCH   1  18
ATOM     18  O   UNL     1       3.706   1.123  18.042  0.00  0.00    +0.000 OA
ATOM     19  H   UNL     1       4.132   0.958  17.182  0.00  0.00    +0.000 HD
ENDBRANCH   1  18
TORSDOF 1
ENDMDL
MODEL 6
REMARK VINA RESULT:      -7.5      1.955      5.549
REMARK  Name = 
REMARK  1 active torsions:
REMARK  status: ('A' for Active; 'I' for Inactive)
REMARK    1  A    between atoms: O_1  and  C_2
REMARK                            x       y       z     vdW  Elec       q    Type
REMARK                         _______ _______ _______ _____ _____    ______ ____
ROOT
ATOM      1  C   UNL     1       2.230   4.021  17.633  0.00  0.00    +0.000 C 
ATOM      2  C   UNL     1       2.112   3.405  19.032  0.00  0.00    +0.000 A 
ATOM      3  C   UNL     1       0.919   3.136  19.712  0.00  0.00    +0.000 A 
ATOM      4  C   UNL     1       0.952   2.775  21.066  0.00  0.00    +0.000 A 
ATOM      5  C   UNL     1       2.167   2.615  21.739  0.00  0.00    +0.000 A 
ATOM      6  C   UNL     1       3.360   2.884  21.089  0.00  0.00    +0.000 A 
ATOM      7  C   UNL     1       3.330   3.340  19.762  0.00  0.00    +0.000 A 
ATOM      8  C   UNL     1       4.587   4.111  19.243  0.00  0.00    +0.000 C 
ATOM      9  N   UNL     1       3.777   5.372  19.101  0.00  0.00    +0.000 NA
ATOM     10  C   UNL     1       3.212   5.274  17.710  0.00  0.00    +0.000 C 
ATOM     11  C   UNL     1       4.535   5.103  17.016  0.00  0.00    +0.000 A 
ATOM     12  C   UNL     1       5.110   5.886  16.027  0.00  0.00    +0.000 A 
ATOM     13  C   UNL     1       6.508   5.918  15.937  0.00  0.00    +0.000 A 
ATOM     14  C   UNL     1       7.309   5.144  16.792  0.00  0.00    +0.000 A 
ATOM     15  C   UNL     1       6.727   4.359  17.787  0.00  0.00    +0.000 A 
ATOM     16  C   UNL     1       5.342   4.387  17.914  0.00  0.00    +0.000 A 
ATOM     17  H   UNL     1       4.401   6.175  19.150  0.00  0.00    +0.000 HD
ENDROOT
BRANCH   1  18
ATOM     18  O   UNL     1       0.958   4.361  17.098  0.00  0.00    +0.000 OA
ATOM     19  H   UNL     1       0.633   5.114  17.623  0.00  0.00    +0.000 HD
ENDBRANCH   1  18
TORSDOF 1
ENDMDL
MODEL 7
REMARK VINA RESULT:      -7.5      1.888      5.528
REMARK  Name = 
REMARK  1 active torsions:
REMARK  status: ('A' for Active; 'I' for Inactive)
REMARK    1  A    between atoms: O_1  and  C_2
REMARK                            x       y       z     vdW  Elec       q    Type
REMARK                         _______ _______ _______ _____ _____    ______ ____
ROOT
ATOM      1  C   UNL     1       3.213   3.658  17.413  0.00  0.00    +0.000 C 
ATOM      2  C   UNL     1       2.523   3.355  18.749  0.00  0.00    +0.000 A 
ATOM      3  C   UNL     1       1.235   2.834  18.907  0.00  0.00    +0.000 A 
ATOM      4  C   UNL     1       0.643   2.808  20.178  0.00  0.00    +0.000 A 
ATOM      5  C   UNL     1       1.344   3.236  21.309  0.00  0.00    +0.000 A 
ATOM      6  C   UNL     1       2.619   3.763  21.176  0.00  0.00    +0.000 A 
ATOM      7  C   UNL     1       3.180   3.883  19.894  0.00  0.00    +0.000 A 
ATOM      8  C   UNL     1       4.338   4.917  19.716  0.00  0.00    +0.000 C 
ATOM      9  N   UNL     1       3.478   5.749  18.802  0.00  0.00    +0.000 NA
ATOM     10  C   UNL     1       3.738   5.162  17.441  0.00  0.00    +0.000 C 
ATOM     11  C   UNL     1       5.232   5.325  17.485  0.00  0.00    +0.000 A 
ATOM     12  C   UNL     1       6.059   6.029  16.624  0.00  0.00    +0.000 A 
ATOM     13  C   UNL     1       7.266   6.533  17.127  0.00  0.00    +0.000 A 
ATOM     14  C   UNL     1       7.654   6.295  18.456  0.00  0.00    +0.000 A 
ATOM     15  C   UNL     1       6.819   5.588  19.320  0.00  0.00    +0.000 A 
ATOM     16  C   UNL     1       5.592   5.152  18.831  0.00  0.00    +0.000 A 
ATOM     17  H   UNL     1       3.811   6.712  18.818  0.00  0.00    +0.000 HD
ENDROOT
BRANCH   1  18
ATOM     18  O   UNL     1       2.356   3.403  16.309  0.00  0.00    +0.000 OA
ATOM     19  H   UNL     1       1.554   2.989  16.674  0.00  0.00    +0.000 HD
ENDBRANCH   1  18
TORSDOF 1
ENDMDL
MODEL 8
REMARK VINA RESULT:      -7.3      1.883      5.592
REMARK  Name = 
REMARK  1 active torsions:
REMARK  status: ('A' for Active; 'I' for Inactive)
REMARK    1  A    between atoms: O_1  and  C_2
REMARK                            x       y       z     vdW  Elec       q    Type
REMARK                         _______ _______ _______ _____ _____    ______ ____
ROOT
ATOM      1  C   UNL     1       5.965   6.350  16.456  0.00  0.00    +0.000 C 
ATOM      2  C   UNL     1       4.957   5.661  17.384  0.00  0.00    +0.000 A 
ATOM      3  C   UNL     1       4.718   5.988  18.722  0.00  0.00    +0.000 A 
ATOM      4  C   UNL     1       3.931   5.145  19.518  0.00  0.00    +0.000 A 
ATOM      5  C   UNL     1       3.322   4.007  18.980  0.00  0.00    +0.000 A 
ATOM      6  C   UNL     1       3.551   3.658  17.659  0.00  0.00    +0.000 A 
ATOM      7  C   UNL     1       4.417   4.445  16.882  0.00  0.00    +0.000 A 
ATOM      8  C   UNL     1       5.053   3.775  15.622  0.00  0.00    +0.000 C 
ATOM      9  N   UNL     1       6.423   3.877  16.237  0.00  0.00    +0.000 NA
ATOM     10  C   UNL     1       6.904   5.237  15.808  0.00  0.00    +0.000 C 
ATOM     11  C   UNL     1       6.715   5.010  14.334  0.00  0.00    +0.000 A 
ATOM     12  C   UNL     1       7.652   5.073  13.314  0.00  0.00    +0.000 A 
ATOM     13  C   UNL     1       7.437   4.296  12.167  0.00  0.00    +0.000 A 
ATOM     14  C   UNL     1       6.283   3.507  12.030  0.00  0.00    +0.000 A 
ATOM     15  C   UNL     1       5.343   3.445  13.060  0.00  0.00    +0.000 A 
ATOM     16  C   UNL     1       5.599   4.165  14.221  0.00  0.00    +0.000 A 
ATOM     17  H   UNL     1       7.026   3.167  15.826  0.00  0.00    +0.000 HD
ENDROOT
BRANCH   1  18
ATOM     18  O   UNL     1       6.704   7.355  17.135  0.00  0.00    +0.000 OA
ATOM     19  H   UNL     1       6.458   7.288  18.075  0.00  0.00    +0.000 HD
ENDBRANCH   1  18
TORSDOF 1
ENDMDL
MODEL 9
REMARK VINA RESULT:      -7.1      2.114      2.885
REMARK  Name = 
REMARK  1 active torsions:
REMARK  status: ('A' for Active; 'I' for Inactive)
REMARK    1  A    between atoms: O_1  and  C_2
REMARK                            x       y       z     vdW  Elec       q    Type
REMARK                         _______ _______ _______ _____ _____    ______ ____
ROOT
ATOM      1  C   UNL     1       4.036   6.361  17.537  0.00  0.00    +0.000 C 
ATOM      2  C   UNL     1       5.477   6.440  18.055  0.00  0.00    +0.000 A 
ATOM      3  C   UNL     1       6.511   7.194  17.491  0.00  0.00    +0.000 A 
ATOM      4  C   UNL     1       7.830   7.011  17.930  0.00  0.00    +0.000 A 
ATOM      5  C   UNL     1       8.126   6.128  18.973  0.00  0.00    +0.000 A 
ATOM      6  C   UNL     1       7.120   5.364  19.541  0.00  0.00    +0.000 A 
ATOM      7  C   UNL     1       5.812   5.471  19.041  0.00  0.00    +0.000 A 
ATOM      8  C   UNL     1       4.842   4.277  19.315  0.00  0.00    +0.000 C 
ATOM      9  N   UNL     1       4.778   3.967  17.843  0.00  0.00    +0.000 NA
ATOM     10  C   UNL     1       3.646   4.827  17.350  0.00  0.00    +0.000 C 
ATOM     11  C   UNL     1       2.619   4.299  18.314  0.00  0.00    +0.000 A 
ATOM     12  C   UNL     1       1.407   3.682  18.047  0.00  0.00    +0.000 A 
ATOM     13  C   UNL     1       0.900   2.779  18.992  0.00  0.00    +0.000 A 
ATOM     14  C   UNL     1       1.575   2.537  20.200  0.00  0.00    +0.000 A 
ATOM     15  C   UNL     1       2.796   3.159  20.464  0.00  0.00    +0.000 A 
ATOM     16  C   UNL     1       3.325   3.999  19.490  0.00  0.00    +0.000 A 
ATOM     17  H   UNL     1       4.529   2.988  17.720  0.00  0.00    +0.000 HD
ENDROOT
BRANCH   1  18
ATOM     18  O   UNL     1       3.864   7.113  16.344  0.00  0.00    +0.000 OA
ATOM     19  H   UNL     1       3.028   7.602  16.447  0.00  0.00    +0.000 HD
ENDBRANCH   1  18
TORSDOF 1
ENDMDL
