MODEL 1
REMARK VINA RESULT:      -8.1      0.000      0.000
REMARK  Name = 
REMARK  4 active torsions:
REMARK  status: ('A' for Active; 'I' for Inactive)
REMARK    1  A    between atoms: C_1  and  O_2
REMARK    2  A    between atoms: O_2  and  C_3
REMARK    3  A    between atoms: C_6  and  N_7
REMARK    4  A    between atoms: C_11  and  C_12
REMARK                            x       y       z     vdW  Elec       q    Type
REMARK                         _______ _______ _______ _____ _____    ______ ____
ROOT
ATOM      1  N   UNL     1       8.992   8.460  18.945  0.00  0.00    +0.000 N 
ATOM      2  C   UNL     1       8.043   7.573  18.395  0.00  0.00    +0.000 A 
ATOM      3  C   UNL     1       7.961   6.282  18.921  0.00  0.00    +0.000 A 
ATOM      4  C   UNL     1       6.951   5.420  18.486  0.00  0.00    +0.000 A 
ATOM      5  C   UNL     1       6.045   5.851  17.519  0.00  0.00    +0.000 A 
ATOM      6  C   UNL     1       6.265   7.097  16.969  0.00  0.00    +0.000 A 
ATOM      7  N   UNL     1       7.215   7.960  17.404  0.00  0.00    +0.000 NA
ATOM      8  H   UNL     1       9.532   8.052  19.694  0.00  0.00    +0.000 HD
ENDROOT
BRANCH   5   9
ATOM      9  C   UNL     1       4.970   4.944  17.066  0.00  0.00    +0.000 C 
ATOM     10  O   UNL     1       5.023   4.592  15.887  0.00  0.00    +0.000 OA
ATOM     11  N   UNL     1       3.967   4.509  17.936  0.00  0.00    +0.000 N 
ATOM     12  C   UNL     1       2.929   3.627  17.400  0.00  0.00    +0.000 C 
ATOM     13  C   UNL     1       1.538   4.076  17.848  0.00  0.00    +0.000 C 
ATOM     14  C   UNL     1       1.462   4.290  19.360  0.00  0.00    +0.000 C 
ATOM     15  C   UNL     1       2.600   5.187  19.847  0.00  0.00    +0.000 C 
ATOM     16  C   UNL     1       3.946   4.625  19.397  0.00  0.00    +0.000 C 
ENDBRANCH   5   9
BRANCH   1  20
ATOM     17  C   UNL     1       9.092  12.701  19.040  0.00  0.00    +0.000 A 
ATOM     18  C   UNL     1       9.376  11.943  20.174  0.00  0.00    +0.000 A 
ATOM     19  C   UNL     1       9.366  10.543  20.116  0.00  0.00    +0.000 A 
ATOM     20  C   UNL     1       9.035   9.867  18.932  0.00  0.00    +0.000 A 
ATOM     21  C   UNL     1       8.778  10.648  17.799  0.00  0.00    +0.000 A 
ATOM     22  C   UNL     1       8.793  12.049  17.850  0.00  0.00    +0.000 A 
BRANCH  17  24
ATOM     23  C   UNL     1       8.536  14.823  18.165  0.00  0.00    +0.000 C 
ATOM     24  O   UNL     1       9.105  14.056  19.221  0.00  0.00    +0.000 OA
ENDBRANCH  17  24
ENDBRANCH   1  20
TORSDOF 3
ENDMDL
MODEL 2
REMARK VINA RESULT:      -8.0      0.441      1.091
REMARK  Name = 
REMARK  4 active torsions:
REMARK  status: ('A' for Active; 'I' for Inactive)
REMARK    1  A    between atoms: C_1  and  O_2
REMARK    2  A    between atoms: O_2  and  C_3
REMARK    3  A    between atoms: C_6  and  N_7
REMARK    4  A    between atoms: C_11  and  C_12
REMARK                            x       y       z     vdW  Elec       q    Type
REMARK                         _______ _______ _______ _____ _____    ______ ____
ROOT
ATOM      1  N   UNL     1       9.001   8.417  18.970  0.00  0.00    +0.000 N 
ATOM      2  C   UNL     1       8.043   7.547  18.410  0.00  0.00    +0.000 A 
ATOM      3  C   UNL     1       7.981   6.236  18.886  0.00  0.00    +0.000 A 
ATOM      4  C   UNL     1       6.964   5.386  18.442  0.00  0.00    +0.000 A 
ATOM      5  C   UNL     1       6.033   5.849  17.515  0.00  0.00    +0.000 A 
ATOM      6  C   UNL     1       6.233   7.117  17.010  0.00  0.00    +0.000 A 
ATOM      7  N   UNL     1       7.188   7.968  17.456  0.00  0.00    +0.000 NA
ATOM      8  H   UNL     1       9.562   7.983  19.689  0.00  0.00    +0.000 HD
ENDROOT
BRANCH   5   9
ATOM      9  C   UNL     1       4.952   4.954  17.053  0.00  0.00    +0.000 C 
ATOM     10  O   UNL     1       4.993   4.627  15.867  0.00  0.00    +0.000 OA
ATOM     11  N   UNL     1       3.955   4.504  17.923  0.00  0.00    +0.000 N 
ATOM     12  C   UNL     1       2.910   3.635  17.378  0.00  0.00    +0.000 C 
ATOM     13  C   UNL     1       1.524   4.079  17.847  0.00  0.00    +0.000 C 
ATOM     14  C   UNL     1       1.461   4.262  19.364  0.00  0.00    +0.000 C 
ATOM     15  C   UNL     1       2.607   5.146  19.859  0.00  0.00    +0.000 C 
ATOM     16  C   UNL     1       3.947   4.590  19.386  0.00  0.00    +0.000 C 
ENDBRANCH   5   9
BRANCH   1  20
ATOM     17  C   UNL     1       9.133  12.658  18.963  0.00  0.00    +0.000 A 
ATOM     18  C   UNL     1       8.789  11.941  17.819  0.00  0.00    +0.000 A 
ATOM     19  C   UNL     1       8.723  10.542  17.848  0.00  0.00    +0.000 A 
ATOM     20  C   UNL     1       9.036   9.825  19.012  0.00  0.00    +0.000 A 
ATOM     21  C   UNL     1       9.355  10.566  20.156  0.00  0.00    +0.000 A 
ATOM     22  C   UNL     1       9.415  11.966  20.134  0.00  0.00    +0.000 A 
BRANCH  17  24
ATOM     23  C   UNL     1      10.499  14.569  18.712  0.00  0.00    +0.000 C 
ATOM     24  O   UNL     1       9.191  14.016  18.810  0.00  0.00    +0.000 OA
ENDBRANCH  17  24
ENDBRANCH   1  20
TORSDOF 3
ENDMDL
MODEL 3
REMARK VINA RESULT:      -7.9      5.202      7.793
REMARK  Name = 
REMARK  4 active torsions:
REMARK  status: ('A' for Active; 'I' for Inactive)
REMARK    1  A    between atoms: C_1  and  O_2
REMARK    2  A    between atoms: O_2  and  C_3
REMARK    3  A    between atoms: C_6  and  N_7
REMARK    4  A    between atoms: C_11  and  C_12
REMARK                            x       y       z     vdW  Elec       q    Type
REMARK                         _______ _______ _______ _____ _____    ______ ____
ROOT
ATOM      1  N   UNL     1       3.453   6.189  18.812  0.00  0.00    +0.000 N 
ATOM      2  C   UNL     1       2.571   7.290  18.861  0.00  0.00    +0.000 A 
ATOM      3  C   UNL     1       1.953   7.590  20.077  0.00  0.00    +0.000 A 
ATOM      4  C   UNL     1       1.174   8.744  20.191  0.00  0.00    +0.000 A 
ATOM      5  C   UNL     1       1.006   9.576  19.087  0.00  0.00    +0.000 A 
ATOM      6  C   UNL     1       1.555   9.149  17.895  0.00  0.00    +0.000 A 
ATOM      7  N   UNL     1       2.345   8.055  17.774  0.00  0.00    +0.000 NA
ATOM      8  H   UNL     1       3.550   5.717  19.699  0.00  0.00    +0.000 HD
ENDROOT
BRANCH   5   9
ATOM      9  C   UNL     1       0.191  10.802  19.209  0.00  0.00    +0.000 C 
ATOM     10  O   UNL     1       0.642  11.678  19.947  0.00  0.00    +0.000 OA
ATOM     11  N   UNL     1      -1.012  10.951  18.514  0.00  0.00    +0.000 N 
ATOM     12  C   UNL     1      -1.767  12.190  18.706  0.00  0.00    +0.000 C 
ATOM     13  C   UNL     1      -3.253  11.901  18.928  0.00  0.00    +0.000 C 
ATOM     14  C   UNL     1      -3.825  10.977  17.852  0.00  0.00    +0.000 C 
ATOM     15  C   UNL     1      -2.960   9.728  17.683  0.00  0.00    +0.000 C 
ATOM     16  C   UNL     1      -1.510  10.122  17.412  0.00  0.00    +0.000 C 
ENDBRANCH   5   9
BRANCH   1  20
ATOM     17  C   UNL     1       6.548   5.187  16.089  0.00  0.00    +0.000 A 
ATOM     18  C   UNL     1       5.338   4.497  16.098  0.00  0.00    +0.000 A 
ATOM     19  C   UNL     1       4.317   4.860  16.985  0.00  0.00    +0.000 A 
ATOM     20  C   UNL     1       4.495   5.899  17.911  0.00  0.00    +0.000 A 
ATOM     21  C   UNL     1       5.709   6.595  17.867  0.00  0.00    +0.000 A 
ATOM     22  C   UNL     1       6.731   6.240  16.976  0.00  0.00    +0.000 A 
BRANCH  17  24
ATOM     23  C   UNL     1       7.051   4.650  13.844  0.00  0.00    +0.000 C 
ATOM     24  O   UNL     1       7.480   4.727  15.200  0.00  0.00    +0.000 OA
ENDBRANCH  17  24
ENDBRANCH   1  20
TORSDOF 3
ENDMDL
MODEL 4
REMARK VINA RESULT:      -7.9      5.165      7.698
REMARK  Name = 
REMARK  4 active torsions:
REMARK  status: ('A' for Active; 'I' for Inactive)
REMARK    1  A    between atoms: C_1  and  O_2
REMARK    2  A    between atoms: O_2  and  C_3
REMARK    3  A    between atoms: C_6  and  N_7
REMARK    4  A    between atoms: C_11  and  C_12
REMARK                            x       y       z     vdW  Elec       q    Type
REMARK                         _______ _______ _______ _____ _____    ______ ____
ROOT
ATOM      1  N   UNL     1       3.474   6.095  18.741  0.00  0.00    +0.000 N 
ATOM      2  C   UNL     1       2.607   7.205  18.809  0.00  0.00    +0.000 A 
ATOM      3  C   UNL     1       2.033   7.523  20.042  0.00  0.00    +0.000 A 
ATOM      4  C   UNL     1       1.271   8.687  20.172  0.00  0.00    +0.000 A 
ATOM      5  C   UNL     1       1.076   9.511  19.066  0.00  0.00    +0.000 A 
ATOM      6  C   UNL     1       1.579   9.067  17.860  0.00  0.00    +0.000 A 
ATOM      7  N   UNL     1       2.352   7.962  17.723  0.00  0.00    +0.000 NA
ATOM      8  H   UNL     1       3.596   5.629  19.629  0.00  0.00    +0.000 HD
ENDROOT
BRANCH   5   9
ATOM      9  C   UNL     1       0.278  10.747  19.204  0.00  0.00    +0.000 C 
ATOM     10  O   UNL     1       0.746  11.610  19.946  0.00  0.00    +0.000 OA
ATOM     11  N   UNL     1      -0.927  10.919  18.517  0.00  0.00    +0.000 N 
ATOM     12  C   UNL     1      -1.663  12.166  18.725  0.00  0.00    +0.000 C 
ATOM     13  C   UNL     1      -3.151  11.897  18.954  0.00  0.00    +0.000 C 
ATOM     14  C   UNL     1      -3.744  10.990  17.875  0.00  0.00    +0.000 C 
ATOM     15  C   UNL     1      -2.897   9.731  17.689  0.00  0.00    +0.000 C 
ATOM     16  C   UNL     1      -1.444  10.106  17.413  0.00  0.00    +0.000 C 
ENDBRANCH   5   9
BRANCH   1  20
ATOM     17  C   UNL     1       6.558   5.288  15.941  0.00  0.00    +0.000 A 
ATOM     18  C   UNL     1       6.708   6.263  16.925  0.00  0.00    +0.000 A 
ATOM     19  C   UNL     1       5.690   6.496  17.858  0.00  0.00    +0.000 A 
ATOM     20  C   UNL     1       4.481   5.784  17.808  0.00  0.00    +0.000 A 
ATOM     21  C   UNL     1       4.362   4.792  16.828  0.00  0.00    +0.000 A 
ATOM     22  C   UNL     1       5.381   4.550  15.896  0.00  0.00    +0.000 A 
BRANCH  17  24
ATOM     23  C   UNL     1       7.252   4.873  13.722  0.00  0.00    +0.000 C 
ATOM     24  O   UNL     1       7.604   5.166  15.069  0.00  0.00    +0.000 OA
ENDBRANCH  17  24
ENDBRANCH   1  20
TORSDOF 3
ENDMDL
MODEL 5
REMARK VINA RESULT:      -7.5      4.689      7.417
REMARK  Name = 
REMARK  4 active torsions:
REMARK  status: ('A' for Active; 'I' for Inactive)
REMARK    1  A    between atoms: C_1  and  O_2
REMARK    2  A    between atoms: O_2  and  C_3
REMARK    3  A    between atoms: C_6  and  N_7
REMARK    4  A    between atoms: C_11  and  C_12
REMARK                            x       y       z     vdW  Elec       q    Type
REMARK                         _______ _______ _______ _____ _____    ______ ____
ROOT
ATOM      1  N   UNL     1       3.833   5.650  18.379  0.00  0.00    +0.000 N 
ATOM      2  C   UNL     1       2.971   6.744  18.601  0.00  0.00    +0.000 A 
ATOM      3  C   UNL     1       2.414   6.901  19.872  0.00  0.00    +0.000 A 
ATOM      4  C   UNL     1       1.658   8.040  20.160  0.00  0.00    +0.000 A 
ATOM      5  C   UNL     1       1.452   9.001  19.172  0.00  0.00    +0.000 A 
ATOM      6  C   UNL     1       1.939   8.714  17.913  0.00  0.00    +0.000 A 
ATOM      7  N   UNL     1       2.706   7.635  17.625  0.00  0.00    +0.000 NA
ATOM      8  H   UNL     1       3.964   5.073  19.198  0.00  0.00    +0.000 HD
ENDROOT
BRANCH   5   9
ATOM      9  C   UNL     1       0.661  10.210  19.478  0.00  0.00    +0.000 C 
ATOM     10  O   UNL     1       0.778  11.146  18.686  0.00  0.00    +0.000 OA
ATOM     11  N   UNL     1      -0.176  10.271  20.596  0.00  0.00    +0.000 N 
ATOM     12  C   UNL     1      -0.910  11.515  20.836  0.00  0.00    +0.000 C 
ATOM     13  C   UNL     1      -0.818  11.935  22.304  0.00  0.00    +0.000 C 
ATOM     14  C   UNL     1      -1.188  10.793  23.252  0.00  0.00    +0.000 C 
ATOM     15  C   UNL     1      -0.411   9.521  22.911  0.00  0.00    +0.000 C 
ATOM     16  C   UNL     1      -0.611   9.157  21.442  0.00  0.00    +0.000 C 
ENDBRANCH   5   9
BRANCH   1  20
ATOM     17  C   UNL     1       6.882   5.203  15.462  0.00  0.00    +0.000 A 
ATOM     18  C   UNL     1       7.057   6.024  16.574  0.00  0.00    +0.000 A 
ATOM     19  C   UNL     1       6.050   6.136  17.541  0.00  0.00    +0.000 A 
ATOM     20  C   UNL     1       4.828   5.460  17.401  0.00  0.00    +0.000 A 
ATOM     21  C   UNL     1       4.684   4.622  16.289  0.00  0.00    +0.000 A 
ATOM     22  C   UNL     1       5.691   4.500  15.322  0.00  0.00    +0.000 A 
BRANCH  17  24
ATOM     23  C   UNL     1       7.563   4.959  13.213  0.00  0.00    +0.000 C 
ATOM     24  O   UNL     1       7.920   5.192  14.572  0.00  0.00    +0.000 OA
ENDBRANCH  17  24
ENDBRANCH   1  20
TORSDOF 3
ENDMDL
MODEL 6
REMARK VINA RESULT:      -7.5      5.591      6.772
REMARK  Name = 
REMARK  4 active torsions:
REMARK  status: ('A' for Active; 'I' for Inactive)
REMARK    1  A    between atoms: C_1  and  O_2
REMARK    2  A    between atoms: O_2  and  C_3
REMARK    3  A    between atoms: C_6  and  N_7
REMARK    4  A    between atoms: C_11  and  C_12
REMARK                            x       y       z     vdW  Elec       q    Type
REMARK                         _______ _______ _______ _____ _____    ______ ____
ROOT
ATOM      1  N   UNL     1       0.880  10.422  18.701  0.00  0.00    +0.000 N 
ATOM      2  C   UNL     1       1.460   9.149  18.881  0.00  0.00    +0.000 A 
ATOM      3  C   UNL     1       2.141   8.573  17.807  0.00  0.00    +0.000 A 
ATOM      4  C   UNL     1       2.832   7.372  17.989  0.00  0.00    +0.000 A 
ATOM      5  C   UNL     1       2.820   6.751  19.235  0.00  0.00    +0.000 A 
ATOM      6  C   UNL     1       2.031   7.325  20.211  0.00  0.00    +0.000 A 
ATOM      7  N   UNL     1       1.386   8.507  20.065  0.00  0.00    +0.000 NA
ATOM      8  H   UNL     1       1.027  10.800  17.776  0.00  0.00    +0.000 HD
ENDROOT
BRANCH   5   9
ATOM      9  C   UNL     1       3.559   5.487  19.431  0.00  0.00    +0.000 C 
ATOM     10  O   UNL     1       4.782   5.587  19.534  0.00  0.00    +0.000 OA
ATOM     11  N   UNL     1       2.896   4.259  19.507  0.00  0.00    +0.000 N 
ATOM     12  C   UNL     1       3.706   3.052  19.684  0.00  0.00    +0.000 C 
ATOM     13  C   UNL     1       3.255   1.942  18.733  0.00  0.00    +0.000 C 
ATOM     14  C   UNL     1       1.746   1.702  18.803  0.00  0.00    +0.000 C 
ATOM     15  C   UNL     1       0.974   3.013  18.652  0.00  0.00    +0.000 C 
ATOM     16  C   UNL     1       1.458   4.034  19.677  0.00  0.00    +0.000 C 
ENDBRANCH   5   9
BRANCH   1  20
ATOM     17  C   UNL     1      -0.077  13.377  21.591  0.00  0.00    +0.000 A 
ATOM     18  C   UNL     1       1.170  13.345  20.973  0.00  0.00    +0.000 A 
ATOM     19  C   UNL     1       1.458  12.379  20.001  0.00  0.00    +0.000 A 
ATOM     20  C   UNL     1       0.518  11.399  19.649  0.00  0.00    +0.000 A 
ATOM     21  C   UNL     1      -0.737  11.465  20.265  0.00  0.00    +0.000 A 
ATOM     22  C   UNL     1      -1.033  12.434  21.233  0.00  0.00    +0.000 A 
BRANCH  17  24
ATOM     23  C   UNL     1      -1.216  14.075  23.540  0.00  0.00    +0.000 C 
ATOM     24  O   UNL     1      -0.237  14.346  22.543  0.00  0.00    +0.000 OA
ENDBRANCH  17  24
ENDBRANCH   1  20
TORSDOF 3
ENDMDL
MODEL 7
REMARK VINA RESULT:      -7.4      5.089      8.035
REMARK  Name = 
REMARK  4 active torsions:
REMARK  status: ('A' for Active; 'I' for Inactive)
REMARK    1  A    between atoms: C_1  and  O_2
REMARK    2  A    between atoms: O_2  and  C_3
REMARK    3  A    between atoms: C_6  and  N_7
REMARK    4  A    between atoms: C_11  and  C_12
REMARK                            x       y       z     vdW  Elec       q    Type
REMARK                         _______ _______ _______ _____ _____    ______ ____
ROOT
ATOM      1  N   UNL     1       3.393   6.302  18.907  0.00  0.00    +0.000 N 
ATOM      2  C   UNL     1       2.478   7.375  18.947  0.00  0.00    +0.000 A 
ATOM      3  C   UNL     1       1.880   7.690  20.169  0.00  0.00    +0.000 A 
ATOM      4  C   UNL     1       1.067   8.822  20.270  0.00  0.00    +0.000 A 
ATOM      5  C   UNL     1       0.846   9.616  19.147  0.00  0.00    +0.000 A 
ATOM      6  C   UNL     1       1.380   9.172  17.955  0.00  0.00    +0.000 A 
ATOM      7  N   UNL     1       2.202   8.100  17.845  0.00  0.00    +0.000 NA
ATOM      8  H   UNL     1       3.527   5.858  19.805  0.00  0.00    +0.000 HD
ENDROOT
BRANCH   5   9
ATOM      9  C   UNL     1      -0.005  10.818  19.255  0.00  0.00    +0.000 C 
ATOM     10  O   UNL     1      -1.220  10.623  19.230  0.00  0.00    +0.000 OA
ATOM     11  N   UNL     1       0.548  12.094  19.391  0.00  0.00    +0.000 N 
ATOM     12  C   UNL     1      -0.367  13.234  19.473  0.00  0.00    +0.000 C 
ATOM     13  C   UNL     1       0.093  14.377  18.566  0.00  0.00    +0.000 C 
ATOM     14  C   UNL     1       1.562  14.734  18.792  0.00  0.00    +0.000 C 
ATOM     15  C   UNL     1       2.446  13.488  18.732  0.00  0.00    +0.000 C 
ATOM     16  C   UNL     1       1.939  12.431  19.709  0.00  0.00    +0.000 C 
ENDBRANCH   5   9
BRANCH   1  20
ATOM     17  C   UNL     1       6.461   5.317  16.147  0.00  0.00    +0.000 A 
ATOM     18  C   UNL     1       5.320   4.528  16.275  0.00  0.00    +0.000 A 
ATOM     19  C   UNL     1       4.305   4.885  17.172  0.00  0.00    +0.000 A 
ATOM     20  C   UNL     1       4.423   6.019  17.989  0.00  0.00    +0.000 A 
ATOM     21  C   UNL     1       5.565   6.810  17.825  0.00  0.00    +0.000 A 
ATOM     22  C   UNL     1       6.581   6.462  16.925  0.00  0.00    +0.000 A 
BRANCH  17  24
ATOM     23  C   UNL     1       6.966   4.758  13.908  0.00  0.00    +0.000 C 
ATOM     24  O   UNL     1       7.396   4.858  15.261  0.00  0.00    +0.000 OA
ENDBRANCH  17  24
ENDBRANCH   1  20
TORSDOF 3
ENDMDL
MODEL 8
REMARK VINA RESULT:      -7.4      5.587      6.783
REMARK  Name = 
REMARK  4 active torsions:
REMARK  status: ('A' for Active; 'I' for Inactive)
REMARK    1  A    between atoms: C_1  and  O_2
REMARK    2  A    between atoms: O_2  and  C_3
REMARK    3  A    between atoms: C_6  and  N_7
REMARK    4  A    between atoms: C_11  and  C_12
REMARK                            x       y       z     vdW  Elec       q    Type
REMARK                         _______ _______ _______ _____ _____    ______ ____
ROOT
ATOM      1  N   UNL     1       0.925  10.409  18.718  0.00  0.00    +0.000 N 
ATOM      2  C   UNL     1       1.489   9.128  18.897  0.00  0.00    +0.000 A 
ATOM      3  C   UNL     1       2.107   8.518  17.803  0.00  0.00    +0.000 A 
ATOM      4  C   UNL     1       2.783   7.308  17.977  0.00  0.00    +0.000 A 
ATOM      5  C   UNL     1       2.821   6.712  19.235  0.00  0.00    +0.000 A 
ATOM      6  C   UNL     1       2.090   7.320  20.235  0.00  0.00    +0.000 A 
ATOM      7  N   UNL     1       1.461   8.512  20.096  0.00  0.00    +0.000 NA
ATOM      8  H   UNL     1       1.035  10.765  17.780  0.00  0.00    +0.000 HD
ENDROOT
BRANCH   5   9
ATOM      9  C   UNL     1       3.544   5.437  19.422  0.00  0.00    +0.000 C 
ATOM     10  O   UNL     1       4.769   5.521  19.518  0.00  0.00    +0.000 OA
ATOM     11  N   UNL     1       2.866   4.218  19.497  0.00  0.00    +0.000 N 
ATOM     12  C   UNL     1       3.661   3.000  19.664  0.00  0.00    +0.000 C 
ATOM     13  C   UNL     1       3.191   1.899  18.712  0.00  0.00    +0.000 C 
ATOM     14  C   UNL     1       1.680   1.679  18.789  0.00  0.00    +0.000 C 
ATOM     15  C   UNL     1       0.924   3.000  18.647  0.00  0.00    +0.000 C 
ATOM     16  C   UNL     1       1.426   4.010  19.674  0.00  0.00    +0.000 C 
ENDBRANCH   5   9
BRANCH   1  20
ATOM     17  C   UNL     1      -0.103  13.413  21.532  0.00  0.00    +0.000 A 
ATOM     18  C   UNL     1      -1.000  12.404  21.188  0.00  0.00    +0.000 A 
ATOM     19  C   UNL     1      -0.632  11.404  20.279  0.00  0.00    +0.000 A 
ATOM     20  C   UNL     1       0.628  11.411  19.662  0.00  0.00    +0.000 A 
ATOM     21  C   UNL     1       1.521  12.419  20.041  0.00  0.00    +0.000 A 
ATOM     22  C   UNL     1       1.162  13.418  20.956  0.00  0.00    +0.000 A 
BRANCH  17  24
ATOM     23  C   UNL     1      -1.346  13.841  23.495  0.00  0.00    +0.000 C 
ATOM     24  O   UNL     1      -0.579  14.349  22.408  0.00  0.00    +0.000 OA
ENDBRANCH  17  24
ENDBRANCH   1  20
TORSDOF 3
ENDMDL
MODEL 9
REMARK VINA RESULT:      -7.4      5.181      8.264
REMARK  Name = 
REMARK  4 active torsions:
REMARK  status: ('A' for Active; 'I' for Inactive)
REMARK    1  A    between atoms: C_1  and  O_2
REMARK    2  A    between atoms: O_2  and  C_3
REMARK    3  A    between atoms: C_6  and  N_7
REMARK    4  A    between atoms: C_11  and  C_12
REMARK                            x       y       z     vdW  Elec       q    Type
REMARK                         _______ _______ _______ _____ _____    ______ ____
ROOT
ATOM      1  N   UNL     1       3.089   6.382  18.886  0.00  0.00    +0.000 N 
ATOM      2  C   UNL     1       2.234   7.499  18.997  0.00  0.00    +0.000 A 
ATOM      3  C   UNL     1       1.794   7.873  20.269  0.00  0.00    +0.000 A 
ATOM      4  C   UNL     1       1.050   9.045  20.427  0.00  0.00    +0.000 A 
ATOM      5  C   UNL     1       0.739   9.821  19.313  0.00  0.00    +0.000 A 
ATOM      6  C   UNL     1       1.112   9.322  18.082  0.00  0.00    +0.000 A 
ATOM      7  N   UNL     1       1.866   8.209  17.912  0.00  0.00    +0.000 NA
ATOM      8  H   UNL     1       3.304   5.955  19.776  0.00  0.00    +0.000 HD
ENDROOT
BRANCH   5   9
ATOM      9  C   UNL     1      -0.039  11.065  19.480  0.00  0.00    +0.000 C 
ATOM     10  O   UNL     1      -1.256  10.927  19.606  0.00  0.00    +0.000 OA
ATOM     11  N   UNL     1       0.582  12.316  19.505  0.00  0.00    +0.000 N 
ATOM     12  C   UNL     1      -0.266  13.500  19.656  0.00  0.00    +0.000 C 
ATOM     13  C   UNL     1       0.132  14.594  18.664  0.00  0.00    +0.000 C 
ATOM     14  C   UNL     1       1.632  14.886  18.701  0.00  0.00    +0.000 C 
ATOM     15  C   UNL     1       2.447  13.598  18.578  0.00  0.00    +0.000 C 
ATOM     16  C   UNL     1       2.014  12.595  19.645  0.00  0.00    +0.000 C 
ENDBRANCH   5   9
BRANCH   1  20
ATOM     17  C   UNL     1       5.822   5.444  15.779  0.00  0.00    +0.000 A 
ATOM     18  C   UNL     1       5.841   6.685  16.412  0.00  0.00    +0.000 A 
ATOM     19  C   UNL     1       4.949   6.966  17.455  0.00  0.00    +0.000 A 
ATOM     20  C   UNL     1       3.992   6.027  17.866  0.00  0.00    +0.000 A 
ATOM     21  C   UNL     1       4.008   4.778  17.234  0.00  0.00    +0.000 A 
ATOM     22  C   UNL     1       4.902   4.488  16.195  0.00  0.00    +0.000 A 
BRANCH  17  24
ATOM     23  C   UNL     1       6.482   4.187  13.891  0.00  0.00    +0.000 C 
ATOM     24  O   UNL     1       6.719   5.291  14.759  0.00  0.00    +0.000 OA
ENDBRANCH  17  24
ENDBRANCH   1  20
TORSDOF 3
ENDMDL
