MODEL 1
REMARK VINA RESULT:      -7.6      0.000      0.000
REMARK  Name = 
REMARK  9 active torsions:
REMARK  status: ('A' for Active; 'I' for Inactive)
REMARK    1  A    between atoms: C_1  and  C_2
REMARK    2  A    between atoms: C_2  and  C_3
REMARK    3  A    between atoms: C_2  and  C_4
REMARK    4  A    between atoms: C_2  and  N_5
REMARK    5  A    between atoms: C_6  and  C_8
REMARK    6  A    between atoms: C_8  and  S_9
REMARK    7  A    between atoms: S_9  and  C_10
REMARK    8  A    between atoms: C_12  and  O_13
REMARK    9  A    between atoms: N_17  and  C_18
REMARK                            x       y       z     vdW  Elec       q    Type
REMARK                         _______ _______ _______ _____ _____    ______ ____
ROOT
ATOM      1  C   UNL     1       2.808   4.934  18.609  0.00  0.00    +0.000 A 
ATOM      2  N   UNL     1       1.738   4.729  19.314  0.00  0.00    +0.000 NA
ATOM      3  C   UNL     1       1.391   3.440  19.558  0.00  0.00    +0.000 A 
ATOM      4  C   UNL     1       2.066   2.377  19.137  0.00  0.00    +0.000 A 
ATOM      5  C   UNL     1       3.291   2.593  18.356  0.00  0.00    +0.000 A 
ATOM      6  O   UNL     1       3.952   1.608  18.033  0.00  0.00    +0.000 OA
ATOM      7  N   UNL     1       3.613   3.918  18.090  0.00  0.00    +0.000 N 
ENDROOT
BRANCH   7   8
ATOM      8  C   UNL     1       4.817   4.159  17.361  0.00  0.00    +0.000 A 
ATOM      9  C   UNL     1       4.831   4.033  15.963  0.00  0.00    +0.000 A 
ATOM     10  C   UNL     1       6.015   4.237  15.247  0.00  0.00    +0.000 A 
ATOM     11  C   UNL     1       7.195   4.561  15.917  0.00  0.00    +0.000 A 
ATOM     12  C   UNL     1       7.192   4.685  17.305  0.00  0.00    +0.000 A 
ATOM     13  C   UNL     1       6.014   4.476  18.018  0.00  0.00    +0.000 A 
ATOM     14  F   UNL     1       6.054   4.538  19.356  0.00  0.00    +0.000 F 
ENDBRANCH   7   8
BRANCH   3  15
ATOM     15  O   UNL     1       0.246   3.263  20.290  0.00  0.00    +0.000 OA
ATOM     16  H   UNL     1       0.427   3.762  21.106  0.00  0.00    +0.000 HD
ENDBRANCH   3  15
BRANCH   1  17
ATOM     17  S   UNL     1       3.158   6.597  18.159  0.00  0.00    +0.000 S 
BRANCH  17  18
ATOM     18  C   UNL     1       2.260   7.510  19.450  0.00  0.00    +0.000 C 
BRANCH  18  20
ATOM     19  N   UNL     1       0.761   9.451  19.729  0.00  0.00    +0.000 N 
ATOM     20  C   UNL     1       1.603   8.768  18.880  0.00  0.00    +0.000 C 
ATOM     21  O   UNL     1       1.782   9.071  17.703  0.00  0.00    +0.000 OA
ATOM     22  H   UNL     1       0.722   9.129  20.692  0.00  0.00    +0.000 HD
BRANCH  19  24
ATOM     23  C   UNL     1      -0.953  10.443  18.258  0.00  0.00    +0.000 C 
ATOM     24  C   UNL     1       0.062  10.700  19.380  0.00  0.00    +0.000 C 
ATOM     25  C   UNL     1       1.057  11.786  18.941  0.00  0.00    +0.000 C 
ATOM     26  C   UNL     1      -0.717  11.216  20.610  0.00  0.00    +0.000 C 
ENDBRANCH  19  24
ENDBRANCH  18  20
ENDBRANCH  17  18
ENDBRANCH   1  17
TORSDOF 6
ENDMDL
MODEL 2
REMARK VINA RESULT:      -7.6      1.223      1.633
REMARK  Name = 
REMARK  9 active torsions:
REMARK  status: ('A' for Active; 'I' for Inactive)
REMARK    1  A    between atoms: C_1  and  C_2
REMARK    2  A    between atoms: C_2  and  C_3
REMARK    3  A    between atoms: C_2  and  C_4
REMARK    4  A    between atoms: C_2  and  N_5
REMARK    5  A    between atoms: C_6  and  C_8
REMARK    6  A    between atoms: C_8  and  S_9
REMARK    7  A    between atoms: S_9  and  C_10
REMARK    8  A    between atoms: C_12  and  O_13
REMARK    9  A    between atoms: N_17  and  C_18
REMARK                            x       y       z     vdW  Elec       q    Type
REMARK                         _______ _______ _______ _____ _____    ______ ____
ROOT
ATOM      1  C   UNL     1       2.818   4.839  19.261  0.00  0.00    +0.000 A 
ATOM      2  N   UNL     1       1.742   4.466  19.881  0.00  0.00    +0.000 NA
ATOM      3  C   UNL     1       1.779   3.276  20.533  0.00  0.00    +0.000 A 
ATOM      4  C   UNL     1       2.836   2.472  20.590  0.00  0.00    +0.000 A 
ATOM      5  C   UNL     1       4.069   2.891  19.910  0.00  0.00    +0.000 A 
ATOM      6  O   UNL     1       5.063   2.180  20.029  0.00  0.00    +0.000 OA
ATOM      7  N   UNL     1       4.000   4.096  19.222  0.00  0.00    +0.000 N 
ENDROOT
BRANCH   7   8
ATOM      8  C   UNL     1       5.194   4.544  18.580  0.00  0.00    +0.000 A 
ATOM      9  C   UNL     1       6.119   5.331  19.283  0.00  0.00    +0.000 A 
ATOM     10  C   UNL     1       7.276   5.798  18.651  0.00  0.00    +0.000 A 
ATOM     11  C   UNL     1       7.516   5.492  17.310  0.00  0.00    +0.000 A 
ATOM     12  C   UNL     1       6.602   4.714  16.602  0.00  0.00    +0.000 A 
ATOM     13  C   UNL     1       5.448   4.254  17.232  0.00  0.00    +0.000 A 
ATOM     14  F   UNL     1       4.556   3.563  16.510  0.00  0.00    +0.000 F 
ENDBRANCH   7   8
BRANCH   3  15
ATOM     15  O   UNL     1       0.620   2.906  21.161  0.00  0.00    +0.000 OA
ATOM     16  H   UNL     1       0.382   2.075  20.713  0.00  0.00    +0.000 HD
ENDBRANCH   3  15
BRANCH   1  17
ATOM     17  S   UNL     1       2.709   6.297  18.284  0.00  0.00    +0.000 S 
BRANCH  17  18
ATOM     18  C   UNL     1       2.266   7.533  19.541  0.00  0.00    +0.000 C 
BRANCH  18  20
ATOM     19  N   UNL     1       0.762   9.482  19.711  0.00  0.00    +0.000 N 
ATOM     20  C   UNL     1       1.611   8.759  18.904  0.00  0.00    +0.000 C 
ATOM     21  O   UNL     1       1.799   9.002  17.714  0.00  0.00    +0.000 OA
ATOM     22  H   UNL     1       0.716   9.209  20.689  0.00  0.00    +0.000 HD
BRANCH  19  24
ATOM     23  C   UNL     1      -0.935  10.397  18.170  0.00  0.00    +0.000 C 
ATOM     24  C   UNL     1       0.063  10.710  19.293  0.00  0.00    +0.000 C 
ATOM     25  C   UNL     1       1.060  11.779  18.818  0.00  0.00    +0.000 C 
ATOM     26  C   UNL     1      -0.736  11.280  20.487  0.00  0.00    +0.000 C 
ENDBRANCH  19  24
ENDBRANCH  18  20
ENDBRANCH  17  18
ENDBRANCH   1  17
TORSDOF 6
ENDMDL
MODEL 3
REMARK VINA RESULT:      -7.5      2.133      4.148
REMARK  Name = 
REMARK  9 active torsions:
REMARK  status: ('A' for Active; 'I' for Inactive)
REMARK    1  A    between atoms: C_1  and  C_2
REMARK    2  A    between atoms: C_2  and  C_3
REMARK    3  A    between atoms: C_2  and  C_4
REMARK    4  A    between atoms: C_2  and  N_5
REMARK    5  A    between atoms: C_6  and  C_8
REMARK    6  A    between atoms: C_8  and  S_9
REMARK    7  A    between atoms: S_9  and  C_10
REMARK    8  A    between atoms: C_12  and  O_13
REMARK    9  A    between atoms: N_17  and  C_18
REMARK                            x       y       z     vdW  Elec       q    Type
REMARK                         _______ _______ _______ _____ _____    ______ ____
ROOT
ATOM      1  C   UNL     1       3.678   5.915  17.800  0.00  0.00    +0.000 A 
ATOM      2  N   UNL     1       4.401   6.427  16.853  0.00  0.00    +0.000 NA
ATOM      3  C   UNL     1       5.139   5.572  16.101  0.00  0.00    +0.000 A 
ATOM      4  C   UNL     1       5.169   4.252  16.258  0.00  0.00    +0.000 A 
ATOM      5  C   UNL     1       4.339   3.656  17.312  0.00  0.00    +0.000 A 
ATOM      6  O   UNL     1       4.313   2.431  17.404  0.00  0.00    +0.000 OA
ATOM      7  N   UNL     1       3.616   4.551  18.092  0.00  0.00    +0.000 N 
ENDROOT
BRANCH   7   8
ATOM      8  C   UNL     1       2.774   3.996  19.103  0.00  0.00    +0.000 A 
ATOM      9  C   UNL     1       3.302   3.679  20.364  0.00  0.00    +0.000 A 
ATOM     10  C   UNL     1       2.490   3.107  21.348  0.00  0.00    +0.000 A 
ATOM     11  C   UNL     1       1.146   2.840  21.081  0.00  0.00    +0.000 A 
ATOM     12  C   UNL     1       0.613   3.148  19.831  0.00  0.00    +0.000 A 
ATOM     13  C   UNL     1       1.425   3.713  18.850  0.00  0.00    +0.000 A 
ATOM     14  F   UNL     1       0.902   3.939  17.638  0.00  0.00    +0.000 F 
ENDBRANCH   7   8
BRANCH   3  15
ATOM     15  O   UNL     1       5.904   6.149  15.123  0.00  0.00    +0.000 OA
ATOM     16  H   UNL     1       5.659   5.647  14.326  0.00  0.00    +0.000 HD
ENDBRANCH   3  15
BRANCH   1  17
ATOM     17  S   UNL     1       2.857   7.042  18.872  0.00  0.00    +0.000 S 
BRANCH  17  18
ATOM     18  C   UNL     1       2.569   8.447  17.755  0.00  0.00    +0.000 C 
BRANCH  18  20
ATOM     19  N   UNL     1       1.058   9.158  19.573  0.00  0.00    +0.000 N 
ATOM     20  C   UNL     1       1.744   9.537  18.441  0.00  0.00    +0.000 C 
ATOM     21  O   UNL     1       1.663  10.652  17.931  0.00  0.00    +0.000 OA
ATOM     22  H   UNL     1       1.233   8.220  19.922  0.00  0.00    +0.000 HD
BRANCH  19  24
ATOM     23  C   UNL     1      -0.998  10.522  19.601  0.00  0.00    +0.000 C 
ATOM     24  C   UNL     1       0.237  10.067  20.391  0.00  0.00    +0.000 C 
ATOM     25  C   UNL     1       1.048  11.293  20.838  0.00  0.00    +0.000 C 
ATOM     26  C   UNL     1      -0.259   9.322  21.650  0.00  0.00    +0.000 C 
ENDBRANCH  19  24
ENDBRANCH  18  20
ENDBRANCH  17  18
ENDBRANCH   1  17
TORSDOF 6
ENDMDL
MODEL 4
REMARK VINA RESULT:      -7.5      2.224      4.361
REMARK  Name = 
REMARK  9 active torsions:
REMARK  status: ('A' for Active; 'I' for Inactive)
REMARK    1  A    between atoms: C_1  and  C_2
REMARK    2  A    between atoms: C_2  and  C_3
REMARK    3  A    between atoms: C_2  and  C_4
REMARK    4  A    between atoms: C_2  and  N_5
REMARK    5  A    between atoms: C_6  and  C_8
REMARK    6  A    between atoms: C_8  and  S_9
REMARK    7  A    between atoms: S_9  and  C_10
REMARK    8  A    between atoms: C_12  and  O_13
REMARK    9  A    between atoms: N_17  and  C_18
REMARK                            x       y       z     vdW  Elec       q    Type
REMARK                         _______ _______ _______ _____ _____    ______ ____
ROOT
ATOM      1  C   UNL     1       3.414   6.283  17.955  0.00  0.00    +0.000 A 
ATOM      2  N   UNL     1       4.105   6.876  17.031  0.00  0.00    +0.000 NA
ATOM      3  C   UNL     1       4.932   6.104  16.281  0.00  0.00    +0.000 A 
ATOM      4  C   UNL     1       5.078   4.791  16.416  0.00  0.00    +0.000 A 
ATOM      5  C   UNL     1       4.286   4.103  17.443  0.00  0.00    +0.000 A 
ATOM      6  O   UNL     1       4.370   2.879  17.514  0.00  0.00    +0.000 OA
ATOM      7  N   UNL     1       3.470   4.914  18.223  0.00  0.00    +0.000 N 
ENDROOT
BRANCH   7   8
ATOM      8  C   UNL     1       2.663   4.267  19.207  0.00  0.00    +0.000 A 
ATOM      9  C   UNL     1       3.155   4.079  20.508  0.00  0.00    +0.000 A 
ATOM     10  C   UNL     1       2.381   3.419  21.468  0.00  0.00    +0.000 A 
ATOM     11  C   UNL     1       1.115   2.934  21.138  0.00  0.00    +0.000 A 
ATOM     12  C   UNL     1       0.619   3.113  19.847  0.00  0.00    +0.000 A 
ATOM     13  C   UNL     1       1.393   3.766  18.891  0.00  0.00    +0.000 A 
ATOM     14  F   UNL     1       0.918   3.867  17.642  0.00  0.00    +0.000 F 
ENDBRANCH   7   8
BRANCH   3  15
ATOM     15  O   UNL     1       5.659   6.767  15.328  0.00  0.00    +0.000 OA
ATOM     16  H   UNL     1       5.374   7.692  15.436  0.00  0.00    +0.000 HD
ENDBRANCH   3  15
BRANCH   1  17
ATOM     17  S   UNL     1       2.473   7.312  19.028  0.00  0.00    +0.000 S 
BRANCH  17  18
ATOM     18  C   UNL     1       1.910   8.602  17.878  0.00  0.00    +0.000 C 
BRANCH  18  20
ATOM     19  N   UNL     1       1.742  11.037  18.242  0.00  0.00    +0.000 N 
ATOM     20  C   UNL     1       1.310   9.789  18.632  0.00  0.00    +0.000 C 
ATOM     21  O   UNL     1       0.550   9.591  19.577  0.00  0.00    +0.000 OA
ATOM     22  H   UNL     1       2.341  11.079  17.423  0.00  0.00    +0.000 HD
BRANCH  19  24
ATOM     23  C   UNL     1       1.513  12.325  20.335  0.00  0.00    +0.000 C 
ATOM     24  C   UNL     1       1.259  12.303  18.821  0.00  0.00    +0.000 C 
ATOM     25  C   UNL     1      -0.240  12.502  18.543  0.00  0.00    +0.000 C 
ATOM     26  C   UNL     1       2.035  13.484  18.197  0.00  0.00    +0.000 C 
ENDBRANCH  19  24
ENDBRANCH  18  20
ENDBRANCH  17  18
ENDBRANCH   1  17
TORSDOF 6
ENDMDL
MODEL 5
REMARK VINA RESULT:      -7.5      0.957      1.305
REMARK  Name = 
REMARK  9 active torsions:
REMARK  status: ('A' for Active; 'I' for Inactive)
REMARK    1  A    between atoms: C_1  and  C_2
REMARK    2  A    between atoms: C_2  and  C_3
REMARK    3  A    between atoms: C_2  and  C_4
REMARK    4  A    between atoms: C_2  and  N_5
REMARK    5  A    between atoms: C_6  and  C_8
REMARK    6  A    between atoms: C_8  and  S_9
REMARK    7  A    between atoms: S_9  and  C_10
REMARK    8  A    between atoms: C_12  and  O_13
REMARK    9  A    between atoms: N_17  and  C_18
REMARK                            x       y       z     vdW  Elec       q    Type
REMARK                         _______ _______ _______ _____ _____    ______ ____
ROOT
ATOM      1  C   UNL     1       2.737   4.596  19.095  0.00  0.00    +0.000 A 
ATOM      2  N   UNL     1       1.774   4.318  19.920  0.00  0.00    +0.000 NA
ATOM      3  C   UNL     1       1.913   3.208  20.687  0.00  0.00    +0.000 A 
ATOM      4  C   UNL     1       2.962   2.392  20.663  0.00  0.00    +0.000 A 
ATOM      5  C   UNL     1       4.069   2.705  19.750  0.00  0.00    +0.000 A 
ATOM      6  O   UNL     1       5.067   1.989  19.785  0.00  0.00    +0.000 OA
ATOM      7  N   UNL     1       3.894   3.828  18.949  0.00  0.00    +0.000 N 
ENDROOT
BRANCH   7   8
ATOM      8  C   UNL     1       4.969   4.175  18.077  0.00  0.00    +0.000 A 
ATOM      9  C   UNL     1       4.982   3.707  16.754  0.00  0.00    +0.000 A 
ATOM     10  C   UNL     1       6.047   4.018  15.903  0.00  0.00    +0.000 A 
ATOM     11  C   UNL     1       7.112   4.793  16.366  0.00  0.00    +0.000 A 
ATOM     12  C   UNL     1       7.110   5.260  17.679  0.00  0.00    +0.000 A 
ATOM     13  C   UNL     1       6.051   4.944  18.527  0.00  0.00    +0.000 A 
ATOM     14  F   UNL     1       6.106   5.353  19.801  0.00  0.00    +0.000 F 
ENDBRANCH   7   8
BRANCH   3  15
ATOM     15  O   UNL     1       0.870   2.936  21.532  0.00  0.00    +0.000 OA
ATOM     16  H   UNL     1       0.088   3.107  20.978  0.00  0.00    +0.000 HD
ENDBRANCH   3  15
BRANCH   1  17
ATOM     17  S   UNL     1       2.475   5.939  17.991  0.00  0.00    +0.000 S 
BRANCH  17  18
ATOM     18  C   UNL     1       2.688   7.360  19.104  0.00  0.00    +0.000 C 
BRANCH  18  20
ATOM     19  N   UNL     1       1.105   9.217  19.482  0.00  0.00    +0.000 N 
ATOM     20  C   UNL     1       1.937   8.587  18.583  0.00  0.00    +0.000 C 
ATOM     21  O   UNL     1       2.040   8.909  17.402  0.00  0.00    +0.000 OA
ATOM     22  H   UNL     1       1.132   8.884  20.442  0.00  0.00    +0.000 HD
BRANCH  19  24
ATOM     23  C   UNL     1       1.255  11.557  18.715  0.00  0.00    +0.000 C 
ATOM     24  C   UNL     1       0.325  10.430  19.183  0.00  0.00    +0.000 C 
ATOM     25  C   UNL     1      -0.472  10.891  20.414  0.00  0.00    +0.000 C 
ATOM     26  C   UNL     1      -0.670  10.133  18.038  0.00  0.00    +0.000 C 
ENDBRANCH  19  24
ENDBRANCH  18  20
ENDBRANCH  17  18
ENDBRANCH   1  17
TORSDOF 6
ENDMDL
MODEL 6
REMARK VINA RESULT:      -7.4      2.249      4.311
REMARK  Name = 
REMARK  9 active torsions:
REMARK  status: ('A' for Active; 'I' for Inactive)
REMARK    1  A    between atoms: C_1  and  C_2
REMARK    2  A    between atoms: C_2  and  C_3
REMARK    3  A    between atoms: C_2  and  C_4
REMARK    4  A    between atoms: C_2  and  N_5
REMARK    5  A    between atoms: C_6  and  C_8
REMARK    6  A    between atoms: C_8  and  S_9
REMARK    7  A    between atoms: S_9  and  C_10
REMARK    8  A    between atoms: C_12  and  O_13
REMARK    9  A    between atoms: N_17  and  C_18
REMARK                            x       y       z     vdW  Elec       q    Type
REMARK                         _______ _______ _______ _____ _____    ______ ____
ROOT
ATOM      1  C   UNL     1       3.774   6.412  17.845  0.00  0.00    +0.000 A 
ATOM      2  N   UNL     1       4.705   7.114  17.276  0.00  0.00    +0.000 NA
ATOM      3  C   UNL     1       5.985   6.693  17.435  0.00  0.00    +0.000 A 
ATOM      4  C   UNL     1       6.353   5.615  18.120  0.00  0.00    +0.000 A 
ATOM      5  C   UNL     1       5.308   4.799  18.751  0.00  0.00    +0.000 A 
ATOM      6  O   UNL     1       5.648   3.764  19.320  0.00  0.00    +0.000 OA
ATOM      7  N   UNL     1       4.007   5.264  18.605  0.00  0.00    +0.000 N 
ENDROOT
BRANCH   7   8
ATOM      8  C   UNL     1       2.967   4.472  19.180  0.00  0.00    +0.000 A 
ATOM      9  C   UNL     1       2.629   4.629  20.533  0.00  0.00    +0.000 A 
ATOM     10  C   UNL     1       1.633   3.835  21.110  0.00  0.00    +0.000 A 
ATOM     11  C   UNL     1       0.971   2.873  20.346  0.00  0.00    +0.000 A 
ATOM     12  C   UNL     1       1.301   2.708  19.002  0.00  0.00    +0.000 A 
ATOM     13  C   UNL     1       2.298   3.496  18.430  0.00  0.00    +0.000 A 
ATOM     14  F   UNL     1       2.639   3.271  17.154  0.00  0.00    +0.000 F 
ENDBRANCH   7   8
BRANCH   3  15
ATOM     15  O   UNL     1       6.943   7.468  16.836  0.00  0.00    +0.000 OA
ATOM     16  H   UNL     1       7.634   7.531  17.520  0.00  0.00    +0.000 HD
ENDBRANCH   3  15
BRANCH   1  17
ATOM     17  S   UNL     1       2.138   7.055  17.774  0.00  0.00    +0.000 S 
BRANCH  17  18
ATOM     18  C   UNL     1       2.456   8.843  17.855  0.00  0.00    +0.000 C 
BRANCH  18  20
ATOM     19  N   UNL     1       0.991  10.772  18.330  0.00  0.00    +0.000 N 
ATOM     20  C   UNL     1       1.442   9.544  18.760  0.00  0.00    +0.000 C 
ATOM     21  O   UNL     1       1.134   9.040  19.838  0.00  0.00    +0.000 OA
ATOM     22  H   UNL     1       1.285  11.069  17.403  0.00  0.00    +0.000 HD
BRANCH  19  24
ATOM     23  C   UNL     1       0.464  11.876  20.473  0.00  0.00    +0.000 C 
ATOM     24  C   UNL     1      -0.009  11.586  19.042  0.00  0.00    +0.000 C 
ATOM     25  C   UNL     1      -1.373  10.879  19.079  0.00  0.00    +0.000 C 
ATOM     26  C   UNL     1      -0.179  12.942  18.319  0.00  0.00    +0.000 C 
ENDBRANCH  19  24
ENDBRANCH  18  20
ENDBRANCH  17  18
ENDBRANCH   1  17
TORSDOF 6
ENDMDL
MODEL 7
REMARK VINA RESULT:      -7.4      2.168      4.212
REMARK  Name = 
REMARK  9 active torsions:
REMARK  status: ('A' for Active; 'I' for Inactive)
REMARK    1  A    between atoms: C_1  and  C_2
REMARK    2  A    between atoms: C_2  and  C_3
REMARK    3  A    between atoms: C_2  and  C_4
REMARK    4  A    between atoms: C_2  and  N_5
REMARK    5  A    between atoms: C_6  and  C_8
REMARK    6  A    between atoms: C_8  and  S_9
REMARK    7  A    between atoms: S_9  and  C_10
REMARK    8  A    between atoms: C_12  and  O_13
REMARK    9  A    between atoms: N_17  and  C_18
REMARK                            x       y       z     vdW  Elec       q    Type
REMARK                         _______ _______ _______ _____ _____    ______ ____
ROOT
ATOM      1  C   UNL     1       3.363   6.323  17.986  0.00  0.00    +0.000 A 
ATOM      2  N   UNL     1       4.043   6.930  17.063  0.00  0.00    +0.000 NA
ATOM      3  C   UNL     1       4.877   6.173  16.306  0.00  0.00    +0.000 A 
ATOM      4  C   UNL     1       5.042   4.861  16.435  0.00  0.00    +0.000 A 
ATOM      5  C   UNL     1       4.263   4.157  17.461  0.00  0.00    +0.000 A 
ATOM      6  O   UNL     1       4.364   2.934  17.526  0.00  0.00    +0.000 OA
ATOM      7  N   UNL     1       3.438   4.954  18.247  0.00  0.00    +0.000 N 
ENDROOT
BRANCH   7   8
ATOM      8  C   UNL     1       2.644   4.291  19.231  0.00  0.00    +0.000 A 
ATOM      9  C   UNL     1       3.136   4.117  20.534  0.00  0.00    +0.000 A 
ATOM     10  C   UNL     1       2.376   3.442  21.493  0.00  0.00    +0.000 A 
ATOM     11  C   UNL     1       1.121   2.929  21.161  0.00  0.00    +0.000 A 
ATOM     12  C   UNL     1       0.624   3.094  19.869  0.00  0.00    +0.000 A 
ATOM     13  C   UNL     1       1.386   3.761  18.913  0.00  0.00    +0.000 A 
ATOM     14  F   UNL     1       0.912   3.849  17.663  0.00  0.00    +0.000 F 
ENDBRANCH   7   8
BRANCH   3  15
ATOM     15  O   UNL     1       5.593   6.849  15.354  0.00  0.00    +0.000 OA
ATOM     16  H   UNL     1       6.264   6.199  15.079  0.00  0.00    +0.000 HD
ENDBRANCH   3  15
BRANCH   1  17
ATOM     17  S   UNL     1       2.412   7.333  19.067  0.00  0.00    +0.000 S 
BRANCH  17  18
ATOM     18  C   UNL     1       1.901   8.669  17.945  0.00  0.00    +0.000 C 
BRANCH  18  20
ATOM     19  N   UNL     1       0.135  10.394  17.923  0.00  0.00    +0.000 N 
ATOM     20  C   UNL     1       1.066   9.719  18.680  0.00  0.00    +0.000 C 
ATOM     21  O   UNL     1       1.300   9.968  19.861  0.00  0.00    +0.000 OA
ATOM     22  H   UNL     1       0.003  10.074  16.967  0.00  0.00    +0.000 HD
BRANCH  19  24
ATOM     23  C   UNL     1      -2.022  11.533  17.550  0.00  0.00    +0.000 C 
ATOM     24  C   UNL     1      -0.786  11.414  18.452  0.00  0.00    +0.000 C 
ATOM     25  C   UNL     1      -0.091  12.781  18.563  0.00  0.00    +0.000 C 
ATOM     26  C   UNL     1      -1.268  10.993  19.859  0.00  0.00    +0.000 C 
ENDBRANCH  19  24
ENDBRANCH  18  20
ENDBRANCH  17  18
ENDBRANCH   1  17
TORSDOF 6
ENDMDL
MODEL 8
REMARK VINA RESULT:      -7.4      2.240      4.291
REMARK  Name = 
REMARK  9 active torsions:
REMARK  status: ('A' for Active; 'I' for Inactive)
REMARK    1  A    between atoms: C_1  and  C_2
REMARK    2  A    between atoms: C_2  and  C_3
REMARK    3  A    between atoms: C_2  and  C_4
REMARK    4  A    between atoms: C_2  and  N_5
REMARK    5  A    between atoms: C_6  and  C_8
REMARK    6  A    between atoms: C_8  and  S_9
REMARK    7  A    between atoms: S_9  and  C_10
REMARK    8  A    between atoms: C_12  and  O_13
REMARK    9  A    between atoms: N_17  and  C_18
REMARK                            x       y       z     vdW  Elec       q    Type
REMARK                         _______ _______ _______ _____ _____    ______ ____
ROOT
ATOM      1  C   UNL     1       3.916   6.344  17.916  0.00  0.00    +0.000 A 
ATOM      2  N   UNL     1       4.882   7.007  17.358  0.00  0.00    +0.000 NA
ATOM      3  C   UNL     1       6.138   6.513  17.497  0.00  0.00    +0.000 A 
ATOM      4  C   UNL     1       6.450   5.400  18.152  0.00  0.00    +0.000 A 
ATOM      5  C   UNL     1       5.365   4.627  18.771  0.00  0.00    +0.000 A 
ATOM      6  O   UNL     1       5.650   3.561  19.311  0.00  0.00    +0.000 OA
ATOM      7  N   UNL     1       4.090   5.167  18.645  0.00  0.00    +0.000 N 
ENDROOT
BRANCH   7   8
ATOM      8  C   UNL     1       3.012   4.419  19.208  0.00  0.00    +0.000 A 
ATOM      9  C   UNL     1       2.690   4.561  20.567  0.00  0.00    +0.000 A 
ATOM     10  C   UNL     1       1.655   3.808  21.131  0.00  0.00    +0.000 A 
ATOM     11  C   UNL     1       0.937   2.904  20.348  0.00  0.00    +0.000 A 
ATOM     12  C   UNL     1       1.250   2.753  18.998  0.00  0.00    +0.000 A 
ATOM     13  C   UNL     1       2.285   3.499  18.439  0.00  0.00    +0.000 A 
ATOM     14  F   UNL     1       2.607   3.288  17.156  0.00  0.00    +0.000 F 
ENDBRANCH   7   8
BRANCH   3  15
ATOM     15  O   UNL     1       7.133   7.248  16.911  0.00  0.00    +0.000 OA
ATOM     16  H   UNL     1       6.651   7.797  16.266  0.00  0.00    +0.000 HD
ENDBRANCH   3  15
BRANCH   1  17
ATOM     17  S   UNL     1       2.318   7.078  17.872  0.00  0.00    +0.000 S 
BRANCH  17  18
ATOM     18  C   UNL     1       2.741   8.837  17.695  0.00  0.00    +0.000 C 
BRANCH  18  20
ATOM     19  N   UNL     1       1.119   9.110  19.536  0.00  0.00    +0.000 N 
ATOM     20  C   UNL     1       1.777   9.719  18.491  0.00  0.00    +0.000 C 
ATOM     21  O   UNL     1       1.573  10.877  18.133  0.00  0.00    +0.000 OA
ATOM     22  H   UNL     1       1.398   8.160  19.762  0.00  0.00    +0.000 HD
BRANCH  19  24
ATOM     23  C   UNL     1      -0.299   8.837  21.537  0.00  0.00    +0.000 C 
ATOM     24  C   UNL     1       0.178   9.796  20.438  0.00  0.00    +0.000 C 
ATOM     25  C   UNL     1      -1.032  10.342  19.664  0.00  0.00    +0.000 C 
ATOM     26  C   UNL     1       0.895  10.980  21.127  0.00  0.00    +0.000 C 
ENDBRANCH  19  24
ENDBRANCH  18  20
ENDBRANCH  17  18
ENDBRANCH   1  17
TORSDOF 6
ENDMDL
MODEL 9
REMARK VINA RESULT:      -7.3      2.098      4.124
REMARK  Name = 
REMARK  9 active torsions:
REMARK  status: ('A' for Active; 'I' for Inactive)
REMARK    1  A    between atoms: C_1  and  C_2
REMARK    2  A    between atoms: C_2  and  C_3
REMARK    3  A    between atoms: C_2  and  C_4
REMARK    4  A    between atoms: C_2  and  N_5
REMARK    5  A    between atoms: C_6  and  C_8
REMARK    6  A    between atoms: C_8  and  S_9
REMARK    7  A    between atoms: S_9  and  C_10
REMARK    8  A    between atoms: C_12  and  O_13
REMARK    9  A    between atoms: N_17  and  C_18
REMARK                            x       y       z     vdW  Elec       q    Type
REMARK                         _______ _______ _______ _____ _____    ______ ____
ROOT
ATOM      1  C   UNL     1       3.988   6.308  17.767  0.00  0.00    +0.000 A 
ATOM      2  N   UNL     1       4.984   6.964  17.257  0.00  0.00    +0.000 NA
ATOM      3  C   UNL     1       6.234   6.514  17.537  0.00  0.00    +0.000 A 
ATOM      4  C   UNL     1       6.510   5.451  18.285  0.00  0.00    +0.000 A 
ATOM      5  C   UNL     1       5.392   4.685  18.850  0.00  0.00    +0.000 A 
ATOM      6  O   UNL     1       5.651   3.661  19.478  0.00  0.00    +0.000 OA
ATOM      7  N   UNL     1       4.121   5.180  18.579  0.00  0.00    +0.000 N 
ENDROOT
BRANCH   7   8
ATOM      8  C   UNL     1       3.014   4.437  19.088  0.00  0.00    +0.000 A 
ATOM      9  C   UNL     1       2.575   4.640  20.405  0.00  0.00    +0.000 A 
ATOM     10  C   UNL     1       1.511   3.893  20.920  0.00  0.00    +0.000 A 
ATOM     11  C   UNL     1       0.880   2.932  20.128  0.00  0.00    +0.000 A 
ATOM     12  C   UNL     1       1.310   2.720  18.820  0.00  0.00    +0.000 A 
ATOM     13  C   UNL     1       2.374   3.461  18.311  0.00  0.00    +0.000 A 
ATOM     14  F   UNL     1       2.809   3.192  17.073  0.00  0.00    +0.000 F 
ENDBRANCH   7   8
BRANCH   3  15
ATOM     15  O   UNL     1       7.261   7.242  16.999  0.00  0.00    +0.000 OA
ATOM     16  H   UNL     1       7.085   8.144  17.322  0.00  0.00    +0.000 HD
ENDBRANCH   3  15
BRANCH   1  17
ATOM     17  S   UNL     1       2.384   6.992  17.536  0.00  0.00    +0.000 S 
BRANCH  17  18
ATOM     18  C   UNL     1       2.264   8.105  18.968  0.00  0.00    +0.000 C 
BRANCH  18  20
ATOM     19  N   UNL     1       0.576   9.832  19.475  0.00  0.00    +0.000 N 
ATOM     20  C   UNL     1       1.548   9.405  18.599  0.00  0.00    +0.000 C 
ATOM     21  O   UNL     1       1.803   9.961  17.533  0.00  0.00    +0.000 OA
ATOM     22  H   UNL     1       0.481   9.313  20.343  0.00  0.00    +0.000 HD
BRANCH  19  24
ATOM     23  C   UNL     1      -1.245  10.906  18.201  0.00  0.00    +0.000 C 
ATOM     24  C   UNL     1      -0.201  11.074  19.314  0.00  0.00    +0.000 C 
ATOM     25  C   UNL     1       0.718  12.262  18.989  0.00  0.00    +0.000 C 
ATOM     26  C   UNL     1      -0.957  11.382  20.625  0.00  0.00    +0.000 C 
ENDBRANCH  19  24
ENDBRANCH  18  20
ENDBRANCH  17  18
ENDBRANCH   1  17
TORSDOF 6
ENDMDL
