MODEL 1
REMARK VINA RESULT:      -8.7      0.000      0.000
REMARK  Name = 
REMARK  4 active torsions:
REMARK  status: ('A' for Active; 'I' for Inactive)
REMARK    1  A    between atoms: C_6  and  C_7
REMARK    2  A    between atoms: C_7  and  O_8
REMARK    3  A    between atoms: C_7  and  C_9
REMARK    4  A    between atoms: C_7  and  C_16
REMARK                            x       y       z     vdW  Elec       q    Type
REMARK                         _______ _______ _______ _____ _____    ______ ____
ROOT
ATOM      1  C   UNL     1       3.358   5.780  18.918  0.00  0.00    +0.000 C 
ENDROOT
BRANCH   1   7
ATOM      2  O   UNL     1       1.524   2.366  21.842  0.00  0.00    +0.000 OA
ATOM      3  N   UNL     1       1.535   2.903  20.693  0.00  0.00    +0.000 N 
ATOM      4  C   UNL     1       0.752   2.446  19.670  0.00  0.00    +0.000 A 
ATOM      5  N   UNL     1       0.764   2.991  18.430  0.00  0.00    +0.000 NA
ATOM      6  C   UNL     1       1.591   4.039  18.209  0.00  0.00    +0.000 A 
ATOM      7  C   UNL     1       2.412   4.598  19.177  0.00  0.00    +0.000 A 
ATOM      8  C   UNL     1       2.358   3.983  20.436  0.00  0.00    +0.000 A 
ENDBRANCH   1   7
BRANCH   1   9
ATOM      9  C   UNL     1       4.140   5.482  17.602  0.00  0.00    +0.000 A 
ATOM     10  C   UNL     1       4.504   4.158  17.260  0.00  0.00    +0.000 A 
ATOM     11  C   UNL     1       5.260   3.871  16.120  0.00  0.00    +0.000 A 
ATOM     12  C   UNL     1       5.704   4.907  15.311  0.00  0.00    +0.000 A 
ATOM     13 CL   UNL     1       6.663   4.562  13.927  0.00  0.00    +0.000 Cl
ATOM     14  C   UNL     1       5.387   6.223  15.627  0.00  0.00    +0.000 A 
ATOM     15  C   UNL     1       4.613   6.509  16.760  0.00  0.00    +0.000 A 
ENDBRANCH   1   9
BRANCH   1  16
ATOM     16  C   UNL     1       2.610   7.140  18.946  0.00  0.00    +0.000 A 
ATOM     17  C   UNL     1       2.003   7.614  20.129  0.00  0.00    +0.000 A 
ATOM     18  C   UNL     1       1.207   8.763  20.129  0.00  0.00    +0.000 A 
ATOM     19  C   UNL     1       1.035   9.484  18.954  0.00  0.00    +0.000 A 
ATOM     20 CL   UNL     1      -0.021  10.841  18.927  0.00  0.00    +0.000 Cl
ATOM     21  C   UNL     1       1.713   9.107  17.799  0.00  0.00    +0.000 A 
ATOM     22  C   UNL     1       2.524   7.966  17.808  0.00  0.00    +0.000 A 
ENDBRANCH   1  16
BRANCH   1  23
ATOM     23  O   UNL     1       4.272   5.920  20.014  0.00  0.00    +0.000 OA
ATOM     24  H   UNL     1       4.087   5.231  20.668  0.00  0.00    +0.000 HD
ENDBRANCH   1  23
TORSDOF 4
ENDMDL
MODEL 2
REMARK VINA RESULT:      -8.7      0.196      1.021
REMARK  Name = 
REMARK  4 active torsions:
REMARK  status: ('A' for Active; 'I' for Inactive)
REMARK    1  A    between atoms: C_6  and  C_7
REMARK    2  A    between atoms: C_7  and  O_8
REMARK    3  A    between atoms: C_7  and  C_9
REMARK    4  A    between atoms: C_7  and  C_16
REMARK                            x       y       z     vdW  Elec       q    Type
REMARK                         _______ _______ _______ _____ _____    ______ ____
ROOT
ATOM      1  C   UNL     1       3.277   5.784  18.957  0.00  0.00    +0.000 C 
ENDROOT
BRANCH   1   7
ATOM      2  O   UNL     1       1.587   2.286  21.869  0.00  0.00    +0.000 OA
ATOM      3  N   UNL     1       1.578   2.826  20.721  0.00  0.00    +0.000 N 
ATOM      4  C   UNL     1       0.821   2.335  19.694  0.00  0.00    +0.000 A 
ATOM      5  N   UNL     1       0.814   2.881  18.455  0.00  0.00    +0.000 NA
ATOM      6  C   UNL     1       1.594   3.965  18.238  0.00  0.00    +0.000 A 
ATOM      7  C   UNL     1       2.384   4.560  19.211  0.00  0.00    +0.000 A 
ATOM      8  C   UNL     1       2.352   3.942  20.469  0.00  0.00    +0.000 A 
ENDBRANCH   1   7
BRANCH   1   9
ATOM      9  C   UNL     1       4.090   5.516  17.653  0.00  0.00    +0.000 A 
ATOM     10  C   UNL     1       4.463   4.200  17.290  0.00  0.00    +0.000 A 
ATOM     11  C   UNL     1       5.246   3.939  16.163  0.00  0.00    +0.000 A 
ATOM     12  C   UNL     1       5.708   4.993  15.387  0.00  0.00    +0.000 A 
ATOM     13 CL   UNL     1       6.700   4.679  14.019  0.00  0.00    +0.000 Cl
ATOM     14  C   UNL     1       5.382   6.301  15.725  0.00  0.00    +0.000 A 
ATOM     15  C   UNL     1       4.582   6.562  16.846  0.00  0.00    +0.000 A 
ENDBRANCH   1   9
BRANCH   1  16
ATOM     16  C   UNL     1       2.465   7.107  18.967  0.00  0.00    +0.000 A 
ATOM     17  C   UNL     1       2.254   7.841  17.781  0.00  0.00    +0.000 A 
ATOM     18  C   UNL     1       1.651   9.102  17.802  0.00  0.00    +0.000 A 
ATOM     19  C   UNL     1       1.211   9.637  19.006  0.00  0.00    +0.000 A 
ATOM     20 CL   UNL     1       0.558  11.227  19.052  0.00  0.00    +0.000 Cl
ATOM     21  C   UNL     1       1.301   8.888  20.176  0.00  0.00    +0.000 A 
ATOM     22  C   UNL     1       1.888   7.619  20.147  0.00  0.00    +0.000 A 
ENDBRANCH   1  16
BRANCH   1  23
ATOM     23  O   UNL     1       4.168   5.972  20.064  0.00  0.00    +0.000 OA
ATOM     24  H   UNL     1       3.668   5.896  20.888  0.00  0.00    +0.000 HD
ENDBRANCH   1  23
TORSDOF 4
ENDMDL
MODEL 3
REMARK VINA RESULT:      -8.5      0.171      1.016
REMARK  Name = 
REMARK  4 active torsions:
REMARK  status: ('A' for Active; 'I' for Inactive)
REMARK    1  A    between atoms: C_6  and  C_7
REMARK    2  A    between atoms: C_7  and  O_8
REMARK    3  A    between atoms: C_7  and  C_9
REMARK    4  A    between atoms: C_7  and  C_16
REMARK                            x       y       z     vdW  Elec       q    Type
REMARK                         _______ _______ _______ _____ _____    ______ ____
ROOT
ATOM      1  C   UNL     1       3.421   5.756  18.911  0.00  0.00    +0.000 C 
ENDROOT
BRANCH   1   7
ATOM      2  O   UNL     1       1.391   2.269  21.611  0.00  0.00    +0.000 OA
ATOM      3  N   UNL     1       1.461   2.853  20.487  0.00  0.00    +0.000 N 
ATOM      4  C   UNL     1       0.712   2.457  19.415  0.00  0.00    +0.000 A 
ATOM      5  N   UNL     1       0.789   3.052  18.200  0.00  0.00    +0.000 NA
ATOM      6  C   UNL     1       1.647   4.088  18.057  0.00  0.00    +0.000 A 
ATOM      7  C   UNL     1       2.439   4.587  19.081  0.00  0.00    +0.000 A 
ATOM      8  C   UNL     1       2.318   3.923  20.309  0.00  0.00    +0.000 A 
ENDBRANCH   1   7
BRANCH   1   9
ATOM      9  C   UNL     1       4.299   5.458  17.656  0.00  0.00    +0.000 A 
ATOM     10  C   UNL     1       4.618   6.484  16.736  0.00  0.00    +0.000 A 
ATOM     11  C   UNL     1       5.348   6.230  15.571  0.00  0.00    +0.000 A 
ATOM     12  C   UNL     1       5.748   4.934  15.278  0.00  0.00    +0.000 A 
ATOM     13 CL   UNL     1       6.616   4.612  13.831  0.00  0.00    +0.000 Cl
ATOM     14  C   UNL     1       5.433   3.895  16.147  0.00  0.00    +0.000 A 
ATOM     15  C   UNL     1       4.716   4.153  17.324  0.00  0.00    +0.000 A 
ENDBRANCH   1   9
BRANCH   1  16
ATOM     16  C   UNL     1       2.694   7.128  18.896  0.00  0.00    +0.000 A 
ATOM     17  C   UNL     1       2.032   7.614  20.043  0.00  0.00    +0.000 A 
ATOM     18  C   UNL     1       1.257   8.776  19.997  0.00  0.00    +0.000 A 
ATOM     19  C   UNL     1       1.160   9.497  18.813  0.00  0.00    +0.000 A 
ATOM     20 CL   UNL     1       0.130  10.870  18.726  0.00  0.00    +0.000 Cl
ATOM     21  C   UNL     1       1.894   9.106  17.698  0.00  0.00    +0.000 A 
ATOM     22  C   UNL     1       2.684   7.952  17.753  0.00  0.00    +0.000 A 
ENDBRANCH   1  16
BRANCH   1  23
ATOM     23  O   UNL     1       4.248   5.869  20.076  0.00  0.00    +0.000 OA
ATOM     24  H   UNL     1       4.141   5.074  20.617  0.00  0.00    +0.000 HD
ENDBRANCH   1  23
TORSDOF 4
ENDMDL
MODEL 4
REMARK VINA RESULT:      -8.4      0.234      1.437
REMARK  Name = 
REMARK  4 active torsions:
REMARK  status: ('A' for Active; 'I' for Inactive)
REMARK    1  A    between atoms: C_6  and  C_7
REMARK    2  A    between atoms: C_7  and  O_8
REMARK    3  A    between atoms: C_7  and  C_9
REMARK    4  A    between atoms: C_7  and  C_16
REMARK                            x       y       z     vdW  Elec       q    Type
REMARK                         _______ _______ _______ _____ _____    ______ ____
ROOT
ATOM      1  C   UNL     1       3.324   5.764  18.962  0.00  0.00    +0.000 C 
ENDROOT
BRANCH   1   7
ATOM      2  O   UNL     1       1.451   2.216  21.695  0.00  0.00    +0.000 OA
ATOM      3  N   UNL     1       1.499   2.789  20.565  0.00  0.00    +0.000 N 
ATOM      4  C   UNL     1       0.775   2.345  19.494  0.00  0.00    +0.000 A 
ATOM      5  N   UNL     1       0.829   2.928  18.272  0.00  0.00    +0.000 NA
ATOM      6  C   UNL     1       1.638   4.002  18.121  0.00  0.00    +0.000 A 
ATOM      7  C   UNL     1       2.399   4.552  19.142  0.00  0.00    +0.000 A 
ATOM      8  C   UNL     1       2.304   3.897  20.378  0.00  0.00    +0.000 A 
ENDBRANCH   1   7
BRANCH   1   9
ATOM      9  C   UNL     1       4.227   5.491  17.720  0.00  0.00    +0.000 A 
ATOM     10  C   UNL     1       4.581   6.539  16.838  0.00  0.00    +0.000 A 
ATOM     11  C   UNL     1       5.334   6.310  15.683  0.00  0.00    +0.000 A 
ATOM     12  C   UNL     1       5.722   5.018  15.360  0.00  0.00    +0.000 A 
ATOM     13 CL   UNL     1       6.619   4.726  13.924  0.00  0.00    +0.000 Cl
ATOM     14  C   UNL     1       5.374   3.958  16.190  0.00  0.00    +0.000 A 
ATOM     15  C   UNL     1       4.633   4.191  17.358  0.00  0.00    +0.000 A 
ENDBRANCH   1   9
BRANCH   1  16
ATOM     16  C   UNL     1       2.532   7.099  18.921  0.00  0.00    +0.000 A 
ATOM     17  C   UNL     1       2.385   7.822  17.718  0.00  0.00    +0.000 A 
ATOM     18  C   UNL     1       1.799   9.091  17.699  0.00  0.00    +0.000 A 
ATOM     19  C   UNL     1       1.313   9.646  18.876  0.00  0.00    +0.000 A 
ATOM     20 CL   UNL     1       0.682  11.245  18.874  0.00  0.00    +0.000 Cl
ATOM     21  C   UNL     1       1.339   8.909  20.056  0.00  0.00    +0.000 A 
ATOM     22  C   UNL     1       1.909   7.631  20.068  0.00  0.00    +0.000 A 
ENDBRANCH   1  16
BRANCH   1  23
ATOM     23  O   UNL     1       4.134   5.934  20.133  0.00  0.00    +0.000 OA
ATOM     24  H   UNL     1       3.597   6.329  20.833  0.00  0.00    +0.000 HD
ENDBRANCH   1  23
TORSDOF 4
ENDMDL
MODEL 5
REMARK VINA RESULT:      -8.3      1.469      1.958
REMARK  Name = 
REMARK  4 active torsions:
REMARK  status: ('A' for Active; 'I' for Inactive)
REMARK    1  A    between atoms: C_6  and  C_7
REMARK    2  A    between atoms: C_7  and  O_8
REMARK    3  A    between atoms: C_7  and  C_9
REMARK    4  A    between atoms: C_7  and  C_16
REMARK                            x       y       z     vdW  Elec       q    Type
REMARK                         _______ _______ _______ _____ _____    ______ ____
ROOT
ATOM      1  C   UNL     1       4.196   5.335  18.602  0.00  0.00    +0.000 C 
ENDROOT
BRANCH   1   7
ATOM      2  O   UNL     1       0.182   2.610  18.430  0.00  0.00    +0.000 OA
ATOM      3  N   UNL     1       1.433   2.667  18.629  0.00  0.00    +0.000 N 
ATOM      4  C   UNL     1       2.164   1.566  18.979  0.00  0.00    +0.000 A 
ATOM      5  N   UNL     1       3.496   1.610  19.218  0.00  0.00    +0.000 NA
ATOM      6  C   UNL     1       4.121   2.804  19.097  0.00  0.00    +0.000 A 
ATOM      7  C   UNL     1       3.485   3.979  18.727  0.00  0.00    +0.000 A 
ATOM      8  C   UNL     1       2.105   3.868  18.501  0.00  0.00    +0.000 A 
ENDBRANCH   1   7
BRANCH   1   9
ATOM      9  C   UNL     1       5.034   5.312  17.287  0.00  0.00    +0.000 A 
ATOM     10  C   UNL     1       4.609   4.552  16.171  0.00  0.00    +0.000 A 
ATOM     11  C   UNL     1       5.374   4.462  15.005  0.00  0.00    +0.000 A 
ATOM     12  C   UNL     1       6.603   5.102  14.937  0.00  0.00    +0.000 A 
ATOM     13 CL   UNL     1       7.563   4.967  13.518  0.00  0.00    +0.000 Cl
ATOM     14  C   UNL     1       7.065   5.839  16.022  0.00  0.00    +0.000 A 
ATOM     15  C   UNL     1       6.290   5.943  17.185  0.00  0.00    +0.000 A 
ENDBRANCH   1   9
BRANCH   1  16
ATOM     16  C   UNL     1       3.206   6.524  18.732  0.00  0.00    +0.000 A 
ATOM     17  C   UNL     1       2.989   7.412  17.657  0.00  0.00    +0.000 A 
ATOM     18  C   UNL     1       2.213   8.565  17.810  0.00  0.00    +0.000 A 
ATOM     19  C   UNL     1       1.605   8.831  19.031  0.00  0.00    +0.000 A 
ATOM     20 CL   UNL     1       0.732  10.295  19.253  0.00  0.00    +0.000 Cl
ATOM     21  C   UNL     1       1.706   7.916  20.074  0.00  0.00    +0.000 A 
ATOM     22  C   UNL     1       2.468   6.754  19.911  0.00  0.00    +0.000 A 
ENDBRANCH   1  16
BRANCH   1  23
ATOM     23  O   UNL     1       5.056   5.538  19.731  0.00  0.00    +0.000 OA
ATOM     24  H   UNL     1       5.645   4.776  19.819  0.00  0.00    +0.000 HD
ENDBRANCH   1  23
TORSDOF 4
ENDMDL
MODEL 6
REMARK VINA RESULT:      -8.3      1.409      1.778
REMARK  Name = 
REMARK  4 active torsions:
REMARK  status: ('A' for Active; 'I' for Inactive)
REMARK    1  A    between atoms: C_6  and  C_7
REMARK    2  A    between atoms: C_7  and  O_8
REMARK    3  A    between atoms: C_7  and  C_9
REMARK    4  A    between atoms: C_7  and  C_16
REMARK                            x       y       z     vdW  Elec       q    Type
REMARK                         _______ _______ _______ _____ _____    ______ ____
ROOT
ATOM      1  C   UNL     1       3.897   5.557  18.651  0.00  0.00    +0.000 C 
ENDROOT
BRANCH   1   7
ATOM      2  O   UNL     1       3.675   0.711  18.840  0.00  0.00    +0.000 OA
ATOM      3  N   UNL     1       3.056   1.810  18.710  0.00  0.00    +0.000 N 
ATOM      4  C   UNL     1       1.705   1.863  18.507  0.00  0.00    +0.000 A 
ATOM      5  N   UNL     1       1.027   3.024  18.343  0.00  0.00    +0.000 NA
ATOM      6  C   UNL     1       1.732   4.178  18.390  0.00  0.00    +0.000 A 
ATOM      7  C   UNL     1       3.099   4.245  18.611  0.00  0.00    +0.000 A 
ATOM      8  C   UNL     1       3.742   3.008  18.765  0.00  0.00    +0.000 A 
ENDBRANCH   1   7
BRANCH   1   9
ATOM      9  C   UNL     1       4.874   5.554  17.435  0.00  0.00    +0.000 A 
ATOM     10  C   UNL     1       4.533   4.890  16.233  0.00  0.00    +0.000 A 
ATOM     11  C   UNL     1       5.417   4.818  15.153  0.00  0.00    +0.000 A 
ATOM     12  C   UNL     1       6.681   5.378  15.260  0.00  0.00    +0.000 A 
ATOM     13 CL   UNL     1       7.784   5.262  13.947  0.00  0.00    +0.000 Cl
ATOM     14  C   UNL     1       7.062   6.019  16.434  0.00  0.00    +0.000 A 
ATOM     15  C   UNL     1       6.169   6.107  17.511  0.00  0.00    +0.000 A 
ENDBRANCH   1   9
BRANCH   1  16
ATOM     16  C   UNL     1       2.970   6.798  18.749  0.00  0.00    +0.000 A 
ATOM     17  C   UNL     1       2.800   7.669  17.652  0.00  0.00    +0.000 A 
ATOM     18  C   UNL     1       2.084   8.863  17.775  0.00  0.00    +0.000 A 
ATOM     19  C   UNL     1       1.489   9.191  18.986  0.00  0.00    +0.000 A 
ATOM     20 CL   UNL     1       0.692  10.703  19.170  0.00  0.00    +0.000 Cl
ATOM     21  C   UNL     1       1.541   8.298  20.052  0.00  0.00    +0.000 A 
ATOM     22  C   UNL     1       2.243   7.095  19.920  0.00  0.00    +0.000 A 
ENDBRANCH   1  16
BRANCH   1  23
ATOM     23  O   UNL     1       4.636   5.639  19.877  0.00  0.00    +0.000 OA
ATOM     24  H   UNL     1       5.564   5.435  19.700  0.00  0.00    +0.000 HD
ENDBRANCH   1  23
TORSDOF 4
ENDMDL
MODEL 7
REMARK VINA RESULT:      -8.3      0.908      1.666
REMARK  Name = 
REMARK  4 active torsions:
REMARK  status: ('A' for Active; 'I' for Inactive)
REMARK    1  A    between atoms: C_6  and  C_7
REMARK    2  A    between atoms: C_7  and  O_8
REMARK    3  A    between atoms: C_7  and  C_9
REMARK    4  A    between atoms: C_7  and  C_16
REMARK                            x       y       z     vdW  Elec       q    Type
REMARK                         _______ _______ _______ _____ _____    ______ ____
ROOT
ATOM      1  C   UNL     1       3.604   5.666  18.965  0.00  0.00    +0.000 C 
ENDROOT
BRANCH   1   7
ATOM      2  O   UNL     1       0.119   2.337  18.384  0.00  0.00    +0.000 OA
ATOM      3  N   UNL     1       1.073   2.780  19.092  0.00  0.00    +0.000 N 
ATOM      4  C   UNL     1       1.427   2.201  20.279  0.00  0.00    +0.000 A 
ATOM      5  N   UNL     1       2.427   2.672  21.061  0.00  0.00    +0.000 NA
ATOM      6  C   UNL     1       3.102   3.765  20.635  0.00  0.00    +0.000 A 
ATOM      7  C   UNL     1       2.843   4.419  19.440  0.00  0.00    +0.000 A 
ATOM      8  C   UNL     1       1.792   3.887  18.681  0.00  0.00    +0.000 A 
ENDBRANCH   1   7
BRANCH   1   9
ATOM      9  C   UNL     1       4.267   5.325  17.595  0.00  0.00    +0.000 A 
ATOM     10  C   UNL     1       4.546   3.984  17.240  0.00  0.00    +0.000 A 
ATOM     11  C   UNL     1       5.198   3.656  16.048  0.00  0.00    +0.000 A 
ATOM     12  C   UNL     1       5.621   4.665  15.195  0.00  0.00    +0.000 A 
ATOM     13 CL   UNL     1       6.453   4.269  13.745  0.00  0.00    +0.000 Cl
ATOM     14  C   UNL     1       5.385   5.996  15.521  0.00  0.00    +0.000 A 
ATOM     15  C   UNL     1       4.716   6.324  16.708  0.00  0.00    +0.000 A 
ENDBRANCH   1   9
BRANCH   1  16
ATOM     16  C   UNL     1       2.703   6.931  18.964  0.00  0.00    +0.000 A 
ATOM     17  C   UNL     1       2.497   7.677  17.785  0.00  0.00    +0.000 A 
ATOM     18  C   UNL     1       1.807   8.893  17.804  0.00  0.00    +0.000 A 
ATOM     19  C   UNL     1       1.275   9.367  18.997  0.00  0.00    +0.000 A 
ATOM     20 CL   UNL     1       0.512  10.907  19.044  0.00  0.00    +0.000 Cl
ATOM     21  C   UNL     1       1.362   8.597  20.152  0.00  0.00    +0.000 A 
ATOM     22  C   UNL     1       2.037   7.372  20.125  0.00  0.00    +0.000 A 
ENDBRANCH   1  16
BRANCH   1  23
ATOM     23  O   UNL     1       4.609   6.017  19.926  0.00  0.00    +0.000 OA
ATOM     24  H   UNL     1       5.181   5.252  20.077  0.00  0.00    +0.000 HD
ENDBRANCH   1  23
TORSDOF 4
ENDMDL
MODEL 8
REMARK VINA RESULT:      -8.2      1.344      2.028
REMARK  Name = 
REMARK  4 active torsions:
REMARK  status: ('A' for Active; 'I' for Inactive)
REMARK    1  A    between atoms: C_6  and  C_7
REMARK    2  A    between atoms: C_7  and  O_8
REMARK    3  A    between atoms: C_7  and  C_9
REMARK    4  A    between atoms: C_7  and  C_16
REMARK                            x       y       z     vdW  Elec       q    Type
REMARK                         _______ _______ _______ _____ _____    ______ ____
ROOT
ATOM      1  C   UNL     1       4.114   5.406  18.794  0.00  0.00    +0.000 C 
ENDROOT
BRANCH   1   7
ATOM      2  O   UNL     1       0.142   2.646  18.377  0.00  0.00    +0.000 OA
ATOM      3  N   UNL     1       1.338   2.752  18.786  0.00  0.00    +0.000 N 
ATOM      4  C   UNL     1       1.972   1.738  19.449  0.00  0.00    +0.000 A 
ATOM      5  N   UNL     1       3.240   1.839  19.914  0.00  0.00    +0.000 NA
ATOM      6  C   UNL     1       3.900   3.000  19.702  0.00  0.00    +0.000 A 
ATOM      7  C   UNL     1       3.365   4.085  19.023  0.00  0.00    +0.000 A 
ATOM      8  C   UNL     1       2.047   3.919  18.574  0.00  0.00    +0.000 A 
ENDBRANCH   1   7
BRANCH   1   9
ATOM      9  C   UNL     1       4.984   5.241  17.509  0.00  0.00    +0.000 A 
ATOM     10  C   UNL     1       6.190   5.964  17.354  0.00  0.00    +0.000 A 
ATOM     11  C   UNL     1       6.954   5.884  16.186  0.00  0.00    +0.000 A 
ATOM     12  C   UNL     1       6.512   5.105  15.127  0.00  0.00    +0.000 A 
ATOM     13 CL   UNL     1       7.430   5.030  13.676  0.00  0.00    +0.000 Cl
ATOM     14  C   UNL     1       5.319   4.398  15.233  0.00  0.00    +0.000 A 
ATOM     15  C   UNL     1       4.562   4.464  16.410  0.00  0.00    +0.000 A 
ENDBRANCH   1   9
BRANCH   1  16
ATOM     16  C   UNL     1       3.153   6.625  18.787  0.00  0.00    +0.000 A 
ATOM     17  C   UNL     1       3.024   7.444  17.645  0.00  0.00    +0.000 A 
ATOM     18  C   UNL     1       2.274   8.623  17.677  0.00  0.00    +0.000 A 
ATOM     19  C   UNL     1       1.605   8.986  18.839  0.00  0.00    +0.000 A 
ATOM     20 CL   UNL     1       0.763  10.483  18.913  0.00  0.00    +0.000 Cl
ATOM     21  C   UNL     1       1.619   8.140  19.943  0.00  0.00    +0.000 A 
ATOM     22  C   UNL     1       2.356   6.951  19.902  0.00  0.00    +0.000 A 
ENDBRANCH   1  16
BRANCH   1  23
ATOM     23  O   UNL     1       4.951   5.691  19.922  0.00  0.00    +0.000 OA
ATOM     24  H   UNL     1       4.422   5.630  20.730  0.00  0.00    +0.000 HD
ENDBRANCH   1  23
TORSDOF 4
ENDMDL
MODEL 9
REMARK VINA RESULT:      -8.2      1.407      1.476
REMARK  Name = 
REMARK  4 active torsions:
REMARK  status: ('A' for Active; 'I' for Inactive)
REMARK    1  A    between atoms: C_6  and  C_7
REMARK    2  A    between atoms: C_7  and  O_8
REMARK    3  A    between atoms: C_7  and  C_9
REMARK    4  A    between atoms: C_7  and  C_16
REMARK                            x       y       z     vdW  Elec       q    Type
REMARK                         _______ _______ _______ _____ _____    ______ ____
ROOT
ATOM      1  C   UNL     1       3.995   5.578  18.610  0.00  0.00    +0.000 C 
ENDROOT
BRANCH   1   7
ATOM      2  O   UNL     1       3.564   0.748  18.838  0.00  0.00    +0.000 OA
ATOM      3  N   UNL     1       2.995   1.871  18.685  0.00  0.00    +0.000 N 
ATOM      4  C   UNL     1       1.652   1.978  18.452  0.00  0.00    +0.000 A 
ATOM      5  N   UNL     1       1.028   3.165  18.263  0.00  0.00    +0.000 NA
ATOM      6  C   UNL     1       1.779   4.289  18.314  0.00  0.00    +0.000 A 
ATOM      7  C   UNL     1       3.143   4.300  18.565  0.00  0.00    +0.000 A 
ATOM      8  C   UNL     1       3.730   3.040  18.744  0.00  0.00    +0.000 A 
ENDBRANCH   1   7
BRANCH   1   9
ATOM      9  C   UNL     1       4.952   5.553  17.379  0.00  0.00    +0.000 A 
ATOM     10  C   UNL     1       4.572   4.907  16.179  0.00  0.00    +0.000 A 
ATOM     11  C   UNL     1       5.437   4.814  15.085  0.00  0.00    +0.000 A 
ATOM     12  C   UNL     1       6.720   5.335  15.175  0.00  0.00    +0.000 A 
ATOM     13 CL   UNL     1       7.798   5.193  13.844  0.00  0.00    +0.000 Cl
ATOM     14  C   UNL     1       7.138   5.956  16.347  0.00  0.00    +0.000 A 
ATOM     15  C   UNL     1       6.265   6.065  17.438  0.00  0.00    +0.000 A 
ENDBRANCH   1   9
BRANCH   1  16
ATOM     16  C   UNL     1       3.121   6.854  18.739  0.00  0.00    +0.000 A 
ATOM     17  C   UNL     1       2.414   7.137  19.927  0.00  0.00    +0.000 A 
ATOM     18  C   UNL     1       1.514   8.204  20.003  0.00  0.00    +0.000 A 
ATOM     19  C   UNL     1       1.332   9.034  18.904  0.00  0.00    +0.000 A 
ATOM     20 CL   UNL     1       0.156  10.286  18.960  0.00  0.00    +0.000 Cl
ATOM     21  C   UNL     1       2.100   8.851  17.758  0.00  0.00    +0.000 A 
ATOM     22  C   UNL     1       3.014   7.793  17.693  0.00  0.00    +0.000 A 
ENDBRANCH   1  16
BRANCH   1  23
ATOM     23  O   UNL     1       4.754   5.612  19.826  0.00  0.00    +0.000 OA
ATOM     24  H   UNL     1       5.639   5.953  19.634  0.00  0.00    +0.000 HD
ENDBRANCH   1  23
TORSDOF 4
ENDMDL
