MODEL 1
REMARK VINA RESULT:      -5.7      0.000      0.000
REMARK  Name = 
REMARK  3 active torsions:
REMARK  status: ('A' for Active; 'I' for Inactive)
REMARK    1  A    between atoms: C_1  and  C_2
REMARK    2  A    between atoms: C_2  and  C_3
REMARK    3  A    between atoms: C_7  and  C_8
REMARK                            x       y       z     vdW  Elec       q    Type
REMARK                         _______ _______ _______ _____ _____    ______ ____
ROOT
ATOM      1  C   UNL     1       6.849   4.824  14.155  0.00  0.00    +0.000 C 
ATOM      2  O   UNL     1       7.677   5.350  13.409  0.00  0.00    +0.000 OA
ATOM      3  N   UNL     1       6.727   5.124  15.504  0.00  0.00    +0.000 N 
ATOM      4  O   UNL     1       7.567   6.144  16.016  0.00  0.00    +0.000 OA
ATOM      5  C   UNL     1       7.237   6.170  17.364  0.00  0.00    +0.000 A 
ATOM      6  C   UNL     1       7.863   7.212  18.217  0.00  0.00    +0.000 C 
ATOM      7  C   UNL     1       6.348   5.263  17.758  0.00  0.00    +0.000 A 
ATOM      8  C   UNL     1       5.999   4.547  16.536  0.00  0.00    +0.000 A 
ATOM      9  O   UNL     1       5.191   3.636  16.508  0.00  0.00    +0.000 OA
ENDROOT
BRANCH   1  11
ATOM     10  C   UNL     1       6.085   3.384  12.210  0.00  0.00    +0.000 C 
ATOM     11  C   UNL     1       5.857   3.785  13.657  0.00  0.00    +0.000 C 
ENDBRANCH   1  11
TORSDOF 1
ENDMDL
MODEL 2
REMARK VINA RESULT:      -5.7      2.144      2.599
REMARK  Name = 
REMARK  3 active torsions:
REMARK  status: ('A' for Active; 'I' for Inactive)
REMARK    1  A    between atoms: C_1  and  C_2
REMARK    2  A    between atoms: C_2  and  C_3
REMARK    3  A    between atoms: C_7  and  C_8
REMARK                            x       y       z     vdW  Elec       q    Type
REMARK                         _______ _______ _______ _____ _____    ______ ____
ROOT
ATOM      1  C   UNL     1       5.972   5.443  15.892  0.00  0.00    +0.000 C 
ATOM      2  O   UNL     1       5.638   6.008  14.850  0.00  0.00    +0.000 OA
ATOM      3  N   UNL     1       6.719   6.048  16.891  0.00  0.00    +0.000 N 
ATOM      4  O   UNL     1       7.048   7.415  16.713  0.00  0.00    +0.000 OA
ATOM      5  C   UNL     1       7.813   7.699  17.836  0.00  0.00    +0.000 A 
ATOM      6  C   UNL     1       8.259   9.101  18.041  0.00  0.00    +0.000 C 
ATOM      7  C   UNL     1       8.044   6.675  18.651  0.00  0.00    +0.000 A 
ATOM      8  C   UNL     1       7.332   5.559  18.038  0.00  0.00    +0.000 A 
ATOM      9  O   UNL     1       7.310   4.440  18.519  0.00  0.00    +0.000 OA
ENDROOT
BRANCH   1  11
ATOM     10  C   UNL     1       4.215   3.877  16.844  0.00  0.00    +0.000 C 
ATOM     11  C   UNL     1       5.581   4.004  16.192  0.00  0.00    +0.000 C 
ENDBRANCH   1  11
TORSDOF 1
ENDMDL
MODEL 3
REMARK VINA RESULT:      -5.5      4.167      5.592
REMARK  Name = 
REMARK  3 active torsions:
REMARK  status: ('A' for Active; 'I' for Inactive)
REMARK    1  A    between atoms: C_1  and  C_2
REMARK    2  A    between atoms: C_2  and  C_3
REMARK    3  A    between atoms: C_7  and  C_8
REMARK                            x       y       z     vdW  Elec       q    Type
REMARK                         _______ _______ _______ _____ _____    ______ ____
ROOT
ATOM      1  C   UNL     1       4.773   3.918  18.345  0.00  0.00    +0.000 C 
ATOM      2  O   UNL     1       5.745   4.038  19.091  0.00  0.00    +0.000 OA
ATOM      3  N   UNL     1       3.517   3.515  18.774  0.00  0.00    +0.000 N 
ATOM      4  O   UNL     1       3.349   3.299  20.165  0.00  0.00    +0.000 OA
ATOM      5  C   UNL     1       2.031   2.876  20.256  0.00  0.00    +0.000 A 
ATOM      6  C   UNL     1       1.463   2.648  21.609  0.00  0.00    +0.000 C 
ATOM      7  C   UNL     1       1.384   2.749  19.102  0.00  0.00    +0.000 A 
ATOM      8  C   UNL     1       2.358   3.161  18.097  0.00  0.00    +0.000 A 
ATOM      9  O   UNL     1       2.112   3.184  16.904  0.00  0.00    +0.000 OA
ENDROOT
BRANCH   1  11
ATOM     10  C   UNL     1       4.893   5.703  16.543  0.00  0.00    +0.000 C 
ATOM     11  C   UNL     1       4.855   4.217  16.856  0.00  0.00    +0.000 C 
ENDBRANCH   1  11
TORSDOF 1
ENDMDL
MODEL 4
REMARK VINA RESULT:      -5.5      2.965      4.453
REMARK  Name = 
REMARK  3 active torsions:
REMARK  status: ('A' for Active; 'I' for Inactive)
REMARK    1  A    between atoms: C_1  and  C_2
REMARK    2  A    between atoms: C_2  and  C_3
REMARK    3  A    between atoms: C_7  and  C_8
REMARK                            x       y       z     vdW  Elec       q    Type
REMARK                         _______ _______ _______ _____ _____    ______ ____
ROOT
ATOM      1  C   UNL     1       6.019   6.443  16.906  0.00  0.00    +0.000 C 
ATOM      2  O   UNL     1       5.659   6.934  15.835  0.00  0.00    +0.000 OA
ATOM      3  N   UNL     1       5.200   5.666  17.711  0.00  0.00    +0.000 N 
ATOM      4  O   UNL     1       3.902   5.377  17.223  0.00  0.00    +0.000 OA
ATOM      5  C   UNL     1       3.340   4.639  18.255  0.00  0.00    +0.000 A 
ATOM      6  C   UNL     1       1.985   4.066  18.047  0.00  0.00    +0.000 C 
ATOM      7  C   UNL     1       4.100   4.484  19.335  0.00  0.00    +0.000 A 
ATOM      8  C   UNL     1       5.343   5.169  19.001  0.00  0.00    +0.000 A 
ATOM      9  O   UNL     1       6.294   5.228  19.760  0.00  0.00    +0.000 OA
ENDROOT
BRANCH   1  11
ATOM     10  C   UNL     1       7.802   8.098  17.633  0.00  0.00    +0.000 C 
ATOM     11  C   UNL     1       7.426   6.638  17.452  0.00  0.00    +0.000 C 
ENDBRANCH   1  11
TORSDOF 1
ENDMDL
MODEL 5
REMARK VINA RESULT:      -5.4      4.015      5.211
REMARK  Name = 
REMARK  3 active torsions:
REMARK  status: ('A' for Active; 'I' for Inactive)
REMARK    1  A    between atoms: C_1  and  C_2
REMARK    2  A    between atoms: C_2  and  C_3
REMARK    3  A    between atoms: C_7  and  C_8
REMARK                            x       y       z     vdW  Elec       q    Type
REMARK                         _______ _______ _______ _____ _____    ______ ____
ROOT
ATOM      1  C   UNL     1       4.247   2.658  19.680  0.00  0.00    +0.000 C 
ATOM      2  O   UNL     1       4.918   1.957  20.439  0.00  0.00    +0.000 OA
ATOM      3  N   UNL     1       4.717   3.819  19.087  0.00  0.00    +0.000 N 
ATOM      4  O   UNL     1       6.070   4.164  19.327  0.00  0.00    +0.000 OA
ATOM      5  C   UNL     1       6.210   5.365  18.646  0.00  0.00    +0.000 A 
ATOM      6  C   UNL     1       7.559   5.986  18.593  0.00  0.00    +0.000 C 
ATOM      7  C   UNL     1       5.108   5.832  18.067  0.00  0.00    +0.000 A 
ATOM      8  C   UNL     1       4.096   4.823  18.355  0.00  0.00    +0.000 A 
ATOM      9  O   UNL     1       2.944   4.908  17.967  0.00  0.00    +0.000 OA
ENDROOT
BRANCH   1  11
ATOM     10  C   UNL     1       1.820   2.572  20.423  0.00  0.00    +0.000 C 
ATOM     11  C   UNL     1       2.815   2.303  19.307  0.00  0.00    +0.000 C 
ENDBRANCH   1  11
TORSDOF 1
ENDMDL
MODEL 6
REMARK VINA RESULT:      -5.4      2.973      4.609
REMARK  Name = 
REMARK  3 active torsions:
REMARK  status: ('A' for Active; 'I' for Inactive)
REMARK    1  A    between atoms: C_1  and  C_2
REMARK    2  A    between atoms: C_2  and  C_3
REMARK    3  A    between atoms: C_7  and  C_8
REMARK                            x       y       z     vdW  Elec       q    Type
REMARK                         _______ _______ _______ _____ _____    ______ ____
ROOT
ATOM      1  C   UNL     1       7.156   5.571  18.414  0.00  0.00    +0.000 C 
ATOM      2  O   UNL     1       7.987   5.392  19.306  0.00  0.00    +0.000 OA
ATOM      3  N   UNL     1       5.969   4.862  18.314  0.00  0.00    +0.000 N 
ATOM      4  O   UNL     1       5.684   3.932  19.344  0.00  0.00    +0.000 OA
ATOM      5  C   UNL     1       4.480   3.376  18.936  0.00  0.00    +0.000 A 
ATOM      6  C   UNL     1       3.813   2.409  19.846  0.00  0.00    +0.000 C 
ATOM      7  C   UNL     1       4.016   3.799  17.765  0.00  0.00    +0.000 A 
ATOM      8  C   UNL     1       4.996   4.785  17.325  0.00  0.00    +0.000 A 
ATOM      9  O   UNL     1       4.896   5.402  16.279  0.00  0.00    +0.000 OA
ENDROOT
BRANCH   1  11
ATOM     10  C   UNL     1       7.882   7.937  17.847  0.00  0.00    +0.000 C 
ATOM     11  C   UNL     1       7.353   6.613  17.323  0.00  0.00    +0.000 C 
ENDBRANCH   1  11
TORSDOF 1
ENDMDL
MODEL 7
REMARK VINA RESULT:      -5.3      1.057      4.075
REMARK  Name = 
REMARK  3 active torsions:
REMARK  status: ('A' for Active; 'I' for Inactive)
REMARK    1  A    between atoms: C_1  and  C_2
REMARK    2  A    between atoms: C_2  and  C_3
REMARK    3  A    between atoms: C_7  and  C_8
REMARK                            x       y       z     vdW  Elec       q    Type
REMARK                         _______ _______ _______ _____ _____    ______ ____
ROOT
ATOM      1  C   UNL     1       7.165   6.195  16.918  0.00  0.00    +0.000 C 
ATOM      2  O   UNL     1       7.857   7.204  16.781  0.00  0.00    +0.000 OA
ATOM      3  N   UNL     1       6.843   5.334  15.880  0.00  0.00    +0.000 N 
ATOM      4  O   UNL     1       7.411   5.613  14.611  0.00  0.00    +0.000 OA
ATOM      5  C   UNL     1       6.874   4.619  13.806  0.00  0.00    +0.000 A 
ATOM      6  C   UNL     1       7.336   4.536  12.396  0.00  0.00    +0.000 C 
ATOM      7  C   UNL     1       6.008   3.801  14.397  0.00  0.00    +0.000 A 
ATOM      8  C   UNL     1       5.964   4.264  15.780  0.00  0.00    +0.000 A 
ATOM      9  O   UNL     1       5.273   3.738  16.634  0.00  0.00    +0.000 OA
ENDROOT
BRANCH   1  11
ATOM     10  C   UNL     1       7.636   5.734  19.370  0.00  0.00    +0.000 C 
ATOM     11  C   UNL     1       6.593   5.784  18.267  0.00  0.00    +0.000 C 
ENDBRANCH   1  11
TORSDOF 1
ENDMDL
MODEL 8
REMARK VINA RESULT:      -5.3      3.762      5.403
REMARK  Name = 
REMARK  3 active torsions:
REMARK  status: ('A' for Active; 'I' for Inactive)
REMARK    1  A    between atoms: C_1  and  C_2
REMARK    2  A    between atoms: C_2  and  C_3
REMARK    3  A    between atoms: C_7  and  C_8
REMARK                            x       y       z     vdW  Elec       q    Type
REMARK                         _______ _______ _______ _____ _____    ______ ____
ROOT
ATOM      1  C   UNL     1       2.129   3.463  18.315  0.00  0.00    +0.000 C 
ATOM      2  O   UNL     1       1.212   3.774  17.553  0.00  0.00    +0.000 OA
ATOM      3  N   UNL     1       3.385   4.049  18.288  0.00  0.00    +0.000 N 
ATOM      4  O   UNL     1       3.583   5.110  17.370  0.00  0.00    +0.000 OA
ATOM      5  C   UNL     1       4.918   5.439  17.559  0.00  0.00    +0.000 A 
ATOM      6  C   UNL     1       5.462   6.605  16.817  0.00  0.00    +0.000 C 
ATOM      7  C   UNL     1       5.581   4.684  18.429  0.00  0.00    +0.000 A 
ATOM      8  C   UNL     1       4.582   3.743  18.923  0.00  0.00    +0.000 A 
ATOM      9  O   UNL     1       4.828   2.890  19.758  0.00  0.00    +0.000 OA
ENDROOT
BRANCH   1  11
ATOM     10  C   UNL     1       1.258   2.897  20.632  0.00  0.00    +0.000 C 
ATOM     11  C   UNL     1       1.963   2.394  19.385  0.00  0.00    +0.000 C 
ENDBRANCH   1  11
TORSDOF 1
ENDMDL
MODEL 9
REMARK VINA RESULT:      -5.2      4.171      6.152
REMARK  Name = 
REMARK  3 active torsions:
REMARK  status: ('A' for Active; 'I' for Inactive)
REMARK    1  A    between atoms: C_1  and  C_2
REMARK    2  A    between atoms: C_2  and  C_3
REMARK    3  A    between atoms: C_7  and  C_8
REMARK                            x       y       z     vdW  Elec       q    Type
REMARK                         _______ _______ _______ _____ _____    ______ ____
ROOT
ATOM      1  C   UNL     1       1.583   3.299  18.787  0.00  0.00    +0.000 C 
ATOM      2  O   UNL     1       1.041   2.379  18.173  0.00  0.00    +0.000 OA
ATOM      3  N   UNL     1       2.727   3.949  18.348  0.00  0.00    +0.000 N 
ATOM      4  O   UNL     1       3.245   3.563  17.087  0.00  0.00    +0.000 OA
ATOM      5  C   UNL     1       4.381   4.350  16.964  0.00  0.00    +0.000 A 
ATOM      6  C   UNL     1       5.142   4.285  15.690  0.00  0.00    +0.000 C 
ATOM      7  C   UNL     1       4.662   5.126  18.006  0.00  0.00    +0.000 A 
ATOM      8  C   UNL     1       3.577   4.870  18.948  0.00  0.00    +0.000 A 
ATOM      9  O   UNL     1       3.493   5.421  20.031  0.00  0.00    +0.000 OA
ENDROOT
BRANCH   1  11
ATOM     10  C   UNL     1       1.317   2.908  21.281  0.00  0.00    +0.000 C 
ATOM     11  C   UNL     1       1.035   3.826  20.104  0.00  0.00    +0.000 C 
ENDBRANCH   1  11
TORSDOF 1
ENDMDL
