MODEL 1
REMARK VINA RESULT:      -9.5      0.000      0.000
REMARK  Name = 
REMARK  5 active torsions:
REMARK  status: ('A' for Active; 'I' for Inactive)
REMARK    1  A    between atoms: C_1  and  C_2
REMARK    2  A    between atoms: C_5  and  C_6
REMARK    3  A    between atoms: C_10  and  S_11
REMARK    4  A    between atoms: S_11  and  C_12
REMARK    5  A    between atoms: C_12  and  C_13
REMARK                            x       y       z     vdW  Elec       q    Type
REMARK                         _______ _______ _______ _____ _____    ______ ____
ROOT
ATOM      1  C   UNL     1       8.531   8.985  18.502  0.00  0.00    +0.000 A 
ATOM      2  C   UNL     1       7.778   8.645  17.340  0.00  0.00    +0.000 A 
ATOM      3  C   UNL     1       7.527   7.299  17.413  0.00  0.00    +0.000 A 
ATOM      4  N   UNL     1       6.869   6.440  16.583  0.00  0.00    +0.000 NA
ATOM      5  C   UNL     1       6.786   5.220  17.001  0.00  0.00    +0.000 A 
ATOM      6  N   UNL     1       7.317   4.773  18.183  0.00  0.00    +0.000 N 
ATOM      7  C   UNL     1       8.024   5.564  19.068  0.00  0.00    +0.000 A 
ATOM      8  O   UNL     1       8.529   5.195  20.118  0.00  0.00    +0.000 OA
ATOM      9  N   UNL     1       8.093   6.890  18.603  0.00  0.00    +0.000 N 
ATOM     10  N   UNL     1       8.721   7.895  19.269  0.00  0.00    +0.000 NA
ATOM     11  H   UNL     1       7.197   3.802  18.435  0.00  0.00    +0.000 HD
ENDROOT
BRANCH   1  16
ATOM     12  C   UNL     1      10.576  14.221  19.980  0.00  0.00    +0.000 C 
ATOM     13  C   UNL     1      10.057  12.867  19.590  0.00  0.00    +0.000 A 
ATOM     14  C   UNL     1      10.080  11.810  20.499  0.00  0.00    +0.000 A 
ATOM     15  C   UNL     1       9.590  10.552  20.134  0.00  0.00    +0.000 A 
ATOM     16  C   UNL     1       9.061  10.314  18.855  0.00  0.00    +0.000 A 
ATOM     17  C   UNL     1       9.052  11.380  17.943  0.00  0.00    +0.000 A 
ATOM     18  C   UNL     1       9.543  12.643  18.308  0.00  0.00    +0.000 A 
ENDBRANCH   1  16
BRANCH   5  19
ATOM     19  S   UNL     1       5.958   3.970  16.122  0.00  0.00    +0.000 S 
BRANCH  19  20
ATOM     20  C   UNL     1       4.214   4.369  16.494  0.00  0.00    +0.000 C 
BRANCH  20  21
ATOM     21  C   UNL     1       3.896   4.063  17.951  0.00  0.00    +0.000 A 
ATOM     22  N   UNL     1       4.515   2.945  18.486  0.00  0.00    +0.000 N 
ATOM     23  C   UNL     1       4.364   2.506  19.771  0.00  0.00    +0.000 A 
ATOM     24  O   UNL     1       4.954   1.517  20.187  0.00  0.00    +0.000 OA
ATOM     25  N   UNL     1       3.517   3.235  20.549  0.00  0.00    +0.000 N 
ATOM     26  C   UNL     1       2.826   4.344  20.141  0.00  0.00    +0.000 A 
ATOM     27  O   UNL     1       2.070   4.933  20.907  0.00  0.00    +0.000 OA
ATOM     28  C   UNL     1       3.051   4.773  18.724  0.00  0.00    +0.000 A 
ATOM     29 CL   UNL     1       2.176   6.155  18.185  0.00  0.00    +0.000 Cl
ATOM     30  H   UNL     1       5.169   2.411  17.923  0.00  0.00    +0.000 HD
ATOM     31  H   UNL     1       3.382   2.929  21.502  0.00  0.00    +0.000 HD
ENDBRANCH  20  21
ENDBRANCH  19  20
ENDBRANCH   5  19
TORSDOF 4
ENDMDL
MODEL 2
REMARK VINA RESULT:      -9.5      0.741      1.171
REMARK  Name = 
REMARK  5 active torsions:
REMARK  status: ('A' for Active; 'I' for Inactive)
REMARK    1  A    between atoms: C_1  and  C_2
REMARK    2  A    between atoms: C_5  and  C_6
REMARK    3  A    between atoms: C_10  and  S_11
REMARK    4  A    between atoms: S_11  and  C_12
REMARK    5  A    between atoms: C_12  and  C_13
REMARK                            x       y       z     vdW  Elec       q    Type
REMARK                         _______ _______ _______ _____ _____    ______ ____
ROOT
ATOM      1  C   UNL     1       8.523   8.927  18.490  0.00  0.00    +0.000 A 
ATOM      2  C   UNL     1       7.814   8.534  17.318  0.00  0.00    +0.000 A 
ATOM      3  C   UNL     1       7.521   7.201  17.463  0.00  0.00    +0.000 A 
ATOM      4  N   UNL     1       6.877   6.308  16.658  0.00  0.00    +0.000 NA
ATOM      5  C   UNL     1       6.741   5.120  17.147  0.00  0.00    +0.000 A 
ATOM      6  N   UNL     1       7.207   4.735  18.378  0.00  0.00    +0.000 N 
ATOM      7  C   UNL     1       7.896   5.563  19.243  0.00  0.00    +0.000 A 
ATOM      8  O   UNL     1       8.343   5.248  20.337  0.00  0.00    +0.000 OA
ATOM      9  N   UNL     1       8.023   6.854  18.701  0.00  0.00    +0.000 N 
ATOM     10  N   UNL     1       8.649   7.883  19.331  0.00  0.00    +0.000 NA
ATOM     11  H   UNL     1       7.049   3.786  18.684  0.00  0.00    +0.000 HD
ENDROOT
BRANCH   1  16
ATOM     12  C   UNL     1      10.735  14.195  19.557  0.00  0.00    +0.000 C 
ATOM     13  C   UNL     1      10.155  12.836  19.291  0.00  0.00    +0.000 A 
ATOM     14  C   UNL     1       9.520  12.561  18.080  0.00  0.00    +0.000 A 
ATOM     15  C   UNL     1       8.986  11.292  17.832  0.00  0.00    +0.000 A 
ATOM     16  C   UNL     1       9.074  10.262  18.783  0.00  0.00    +0.000 A 
ATOM     17  C   UNL     1       9.705  10.550  20.002  0.00  0.00    +0.000 A 
ATOM     18  C   UNL     1      10.241  11.823  20.252  0.00  0.00    +0.000 A 
ENDBRANCH   1  16
BRANCH   5  19
ATOM     19  S   UNL     1       5.919   3.838  16.310  0.00  0.00    +0.000 S 
BRANCH  19  20
ATOM     20  C   UNL     1       4.171   4.292  16.593  0.00  0.00    +0.000 C 
BRANCH  20  21
ATOM     21  C   UNL     1       3.664   3.679  17.890  0.00  0.00    +0.000 A 
ATOM     22  N   UNL     1       4.590   2.953  18.622  0.00  0.00    +0.000 N 
ATOM     23  C   UNL     1       4.334   2.330  19.810  0.00  0.00    +0.000 A 
ATOM     24  O   UNL     1       5.203   1.716  20.416  0.00  0.00    +0.000 OA
ATOM     25  N   UNL     1       3.057   2.434  20.270  0.00  0.00    +0.000 N 
ATOM     26  C   UNL     1       2.041   3.101  19.637  0.00  0.00    +0.000 A 
ATOM     27  O   UNL     1       0.913   3.131  20.117  0.00  0.00    +0.000 OA
ATOM     28  C   UNL     1       2.400   3.768  18.346  0.00  0.00    +0.000 A 
ATOM     29 CL   UNL     1       1.132   4.596  17.525  0.00  0.00    +0.000 Cl
ATOM     30  H   UNL     1       5.551   2.891  18.302  0.00  0.00    +0.000 HD
ATOM     31  H   UNL     1       2.838   1.978  21.144  0.00  0.00    +0.000 HD
ENDBRANCH  20  21
ENDBRANCH  19  20
ENDBRANCH   5  19
TORSDOF 4
ENDMDL
MODEL 3
REMARK VINA RESULT:      -9.1      1.682      2.309
REMARK  Name = 
REMARK  5 active torsions:
REMARK  status: ('A' for Active; 'I' for Inactive)
REMARK    1  A    between atoms: C_1  and  C_2
REMARK    2  A    between atoms: C_5  and  C_6
REMARK    3  A    between atoms: C_10  and  S_11
REMARK    4  A    between atoms: S_11  and  C_12
REMARK    5  A    between atoms: C_12  and  C_13
REMARK                            x       y       z     vdW  Elec       q    Type
REMARK                         _______ _______ _______ _____ _____    ______ ____
ROOT
ATOM      1  C   UNL     1       8.598   9.045  18.523  0.00  0.00    +0.000 A 
ATOM      2  C   UNL     1       7.714   8.893  17.415  0.00  0.00    +0.000 A 
ATOM      3  C   UNL     1       7.349   7.571  17.379  0.00  0.00    +0.000 A 
ATOM      4  N   UNL     1       6.544   6.862  16.538  0.00  0.00    +0.000 NA
ATOM      5  C   UNL     1       6.389   5.615  16.840  0.00  0.00    +0.000 A 
ATOM      6  N   UNL     1       6.984   5.002  17.912  0.00  0.00    +0.000 N 
ATOM      7  C   UNL     1       7.837   5.635  18.796  0.00  0.00    +0.000 A 
ATOM      8  O   UNL     1       8.401   5.116  19.748  0.00  0.00    +0.000 OA
ATOM      9  N   UNL     1       7.983   6.992  18.460  0.00  0.00    +0.000 N 
ATOM     10  N   UNL     1       8.758   7.867  19.155  0.00  0.00    +0.000 NA
ATOM     11  H   UNL     1       6.801   4.023  18.078  0.00  0.00    +0.000 HD
ENDROOT
BRANCH   1  16
ATOM     12  C   UNL     1      11.343  13.904  20.144  0.00  0.00    +0.000 C 
ATOM     13  C   UNL     1      10.623  12.654  19.730  0.00  0.00    +0.000 A 
ATOM     14  C   UNL     1      10.491  12.325  18.381  0.00  0.00    +0.000 A 
ATOM     15  C   UNL     1       9.825  11.156  17.998  0.00  0.00    +0.000 A 
ATOM     16  C   UNL     1       9.275  10.281  18.950  0.00  0.00    +0.000 A 
ATOM     17  C   UNL     1       9.404  10.624  20.304  0.00  0.00    +0.000 A 
ATOM     18  C   UNL     1      10.072  11.797  20.689  0.00  0.00    +0.000 A 
ENDBRANCH   1  16
BRANCH   5  19
ATOM     19  S   UNL     1       5.375   4.537  15.929  0.00  0.00    +0.000 S 
BRANCH  19  20
ATOM     20  C   UNL     1       4.481   3.673  17.269  0.00  0.00    +0.000 C 
BRANCH  20  21
ATOM     21  C   UNL     1       3.688   4.665  18.106  0.00  0.00    +0.000 A 
ATOM     22  N   UNL     1       3.579   5.946  17.590  0.00  0.00    +0.000 N 
ATOM     23  C   UNL     1       2.908   6.976  18.186  0.00  0.00    +0.000 A 
ATOM     24  O   UNL     1       2.835   8.083  17.667  0.00  0.00    +0.000 OA
ATOM     25  N   UNL     1       2.332   6.691  19.386  0.00  0.00    +0.000 N 
ATOM     26  C   UNL     1       2.382   5.477  20.018  0.00  0.00    +0.000 A 
ATOM     27  O   UNL     1       1.846   5.313  21.110  0.00  0.00    +0.000 OA
ATOM     28  C   UNL     1       3.125   4.394  19.300  0.00  0.00    +0.000 A 
ATOM     29 CL   UNL     1       3.215   2.865  20.087  0.00  0.00    +0.000 Cl
ATOM     30  H   UNL     1       3.981   6.162  16.683  0.00  0.00    +0.000 HD
ATOM     31  H   UNL     1       1.834   7.436  19.851  0.00  0.00    +0.000 HD
ENDBRANCH  20  21
ENDBRANCH  19  20
ENDBRANCH   5  19
TORSDOF 4
ENDMDL
MODEL 4
REMARK VINA RESULT:      -9.0      0.672      1.124
REMARK  Name = 
REMARK  5 active torsions:
REMARK  status: ('A' for Active; 'I' for Inactive)
REMARK    1  A    between atoms: C_1  and  C_2
REMARK    2  A    between atoms: C_5  and  C_6
REMARK    3  A    between atoms: C_10  and  S_11
REMARK    4  A    between atoms: S_11  and  C_12
REMARK    5  A    between atoms: C_12  and  C_13
REMARK                            x       y       z     vdW  Elec       q    Type
REMARK                         _______ _______ _______ _____ _____    ______ ____
ROOT
ATOM      1  C   UNL     1       8.652   9.064  18.608  0.00  0.00    +0.000 A 
ATOM      2  C   UNL     1       8.114   8.735  17.330  0.00  0.00    +0.000 A 
ATOM      3  C   UNL     1       7.790   7.402  17.370  0.00  0.00    +0.000 A 
ATOM      4  N   UNL     1       7.259   6.557  16.440  0.00  0.00    +0.000 NA
ATOM      5  C   UNL     1       7.042   5.351  16.849  0.00  0.00    +0.000 A 
ATOM      6  N   UNL     1       7.322   4.904  18.114  0.00  0.00    +0.000 N 
ATOM      7  C   UNL     1       7.889   5.680  19.107  0.00  0.00    +0.000 A 
ATOM      8  O   UNL     1       8.172   5.310  20.237  0.00  0.00    +0.000 OA
ATOM      9  N   UNL     1       8.105   6.992  18.649  0.00  0.00    +0.000 N 
ATOM     10  N   UNL     1       8.645   7.981  19.409  0.00  0.00    +0.000 NA
ATOM     11  H   UNL     1       7.112   3.944  18.350  0.00  0.00    +0.000 HD
ENDROOT
BRANCH   1  16
ATOM     12  C   UNL     1      10.752  14.235  20.230  0.00  0.00    +0.000 C 
ATOM     13  C   UNL     1      10.199  12.902  19.818  0.00  0.00    +0.000 A 
ATOM     14  C   UNL     1       9.878  12.648  18.484  0.00  0.00    +0.000 A 
ATOM     15  C   UNL     1       9.369  11.403  18.102  0.00  0.00    +0.000 A 
ATOM     16  C   UNL     1       9.169  10.375  19.039  0.00  0.00    +0.000 A 
ATOM     17  C   UNL     1       9.485  10.640  20.379  0.00  0.00    +0.000 A 
ATOM     18  C   UNL     1       9.996  11.890  20.764  0.00  0.00    +0.000 A 
ENDBRANCH   1  16
BRANCH   5  19
ATOM     19  S   UNL     1       6.334   4.122  15.845  0.00  0.00    +0.000 S 
BRANCH  19  20
ATOM     20  C   UNL     1       4.555   4.499  16.020  0.00  0.00    +0.000 C 
BRANCH  20  21
ATOM     21  C   UNL     1       4.038   4.016  17.367  0.00  0.00    +0.000 A 
ATOM     22  N   UNL     1       4.086   2.649  17.582  0.00  0.00    +0.000 N 
ATOM     23  C   UNL     1       3.675   2.020  18.723  0.00  0.00    +0.000 A 
ATOM     24  O   UNL     1       3.761   0.806  18.857  0.00  0.00    +0.000 OA
ATOM     25  N   UNL     1       3.165   2.828  19.693  0.00  0.00    +0.000 N 
ATOM     26  C   UNL     1       3.038   4.189  19.601  0.00  0.00    +0.000 A 
ATOM     27  O   UNL     1       2.551   4.839  20.521  0.00  0.00    +0.000 OA
ATOM     28  C   UNL     1       3.521   4.808  18.327  0.00  0.00    +0.000 A 
ATOM     29 CL   UNL     1       3.353   6.516  18.185  0.00  0.00    +0.000 Cl
ATOM     30  H   UNL     1       4.490   2.040  16.877  0.00  0.00    +0.000 HD
ATOM     31  H   UNL     1       2.848   2.389  20.545  0.00  0.00    +0.000 HD
ENDBRANCH  20  21
ENDBRANCH  19  20
ENDBRANCH   5  19
TORSDOF 4
ENDMDL
MODEL 5
REMARK VINA RESULT:      -8.9      5.136      7.315
REMARK  Name = 
REMARK  5 active torsions:
REMARK  status: ('A' for Active; 'I' for Inactive)
REMARK    1  A    between atoms: C_1  and  C_2
REMARK    2  A    between atoms: C_5  and  C_6
REMARK    3  A    between atoms: C_10  and  S_11
REMARK    4  A    between atoms: S_11  and  C_12
REMARK    5  A    between atoms: C_12  and  C_13
REMARK                            x       y       z     vdW  Elec       q    Type
REMARK                         _______ _______ _______ _____ _____    ______ ____
ROOT
ATOM      1  C   UNL     1       0.942   8.922  20.728  0.00  0.00    +0.000 A 
ATOM      2  C   UNL     1       1.123   7.603  21.237  0.00  0.00    +0.000 A 
ATOM      3  C   UNL     1       1.792   6.895  20.271  0.00  0.00    +0.000 A 
ATOM      4  N   UNL     1       2.214   5.600  20.208  0.00  0.00    +0.000 NA
ATOM      5  C   UNL     1       2.866   5.282  19.138  0.00  0.00    +0.000 A 
ATOM      6  N   UNL     1       3.127   6.149  18.109  0.00  0.00    +0.000 N 
ATOM      7  C   UNL     1       2.711   7.466  18.075  0.00  0.00    +0.000 A 
ATOM      8  O   UNL     1       2.906   8.260  17.166  0.00  0.00    +0.000 OA
ATOM      9  N   UNL     1       2.015   7.797  19.251  0.00  0.00    +0.000 N 
ATOM     10  N   UNL     1       1.492   9.026  19.503  0.00  0.00    +0.000 NA
ATOM     11  H   UNL     1       3.652   5.817  17.313  0.00  0.00    +0.000 HD
ENDROOT
BRANCH   1  16
ATOM     12  C   UNL     1      -1.865  13.274  23.364  0.00  0.00    +0.000 C 
ATOM     13  C   UNL     1      -1.129  12.156  22.686  0.00  0.00    +0.000 A 
ATOM     14  C   UNL     1      -1.165  10.863  23.209  0.00  0.00    +0.000 A 
ATOM     15  C   UNL     1      -0.484   9.822  22.571  0.00  0.00    +0.000 A 
ATOM     16  C   UNL     1       0.250  10.040  21.393  0.00  0.00    +0.000 A 
ATOM     17  C   UNL     1       0.290  11.344  20.879  0.00  0.00    +0.000 A 
ATOM     18  C   UNL     1      -0.394  12.390  21.518  0.00  0.00    +0.000 A 
ENDBRANCH   1  16
BRANCH   5  19
ATOM     19  S   UNL     1       3.530   3.699  18.867  0.00  0.00    +0.000 S 
BRANCH  19  20
ATOM     20  C   UNL     1       3.829   3.744  17.064  0.00  0.00    +0.000 C 
BRANCH  20  21
ATOM     21  C   UNL     1       5.264   4.158  16.772  0.00  0.00    +0.000 A 
ATOM     22  N   UNL     1       6.095   4.291  17.873  0.00  0.00    +0.000 N 
ATOM     23  C   UNL     1       7.412   4.649  17.822  0.00  0.00    +0.000 A 
ATOM     24  O   UNL     1       8.097   4.732  18.834  0.00  0.00    +0.000 OA
ATOM     25  N   UNL     1       7.907   4.907  16.580  0.00  0.00    +0.000 N 
ATOM     26  C   UNL     1       7.192   4.836  15.414  0.00  0.00    +0.000 A 
ATOM     27  O   UNL     1       7.716   5.102  14.337  0.00  0.00    +0.000 OA
ATOM     28  C   UNL     1       5.758   4.426  15.548  0.00  0.00    +0.000 A 
ATOM     29 CL   UNL     1       4.837   4.350  14.095  0.00  0.00    +0.000 Cl
ATOM     30  H   UNL     1       5.744   4.074  18.801  0.00  0.00    +0.000 HD
ATOM     31  H   UNL     1       8.877   5.179  16.513  0.00  0.00    +0.000 HD
ENDBRANCH  20  21
ENDBRANCH  19  20
ENDBRANCH   5  19
TORSDOF 4
ENDMDL
MODEL 6
REMARK VINA RESULT:      -8.9      4.918      7.212
REMARK  Name = 
REMARK  5 active torsions:
REMARK  status: ('A' for Active; 'I' for Inactive)
REMARK    1  A    between atoms: C_1  and  C_2
REMARK    2  A    between atoms: C_5  and  C_6
REMARK    3  A    between atoms: C_10  and  S_11
REMARK    4  A    between atoms: S_11  and  C_12
REMARK    5  A    between atoms: C_12  and  C_13
REMARK                            x       y       z     vdW  Elec       q    Type
REMARK                         _______ _______ _______ _____ _____    ______ ____
ROOT
ATOM      1  C   UNL     1       1.049   8.805  20.728  0.00  0.00    +0.000 A 
ATOM      2  C   UNL     1       1.342   7.521  21.273  0.00  0.00    +0.000 A 
ATOM      3  C   UNL     1       1.984   6.812  20.288  0.00  0.00    +0.000 A 
ATOM      4  N   UNL     1       2.476   5.541  20.244  0.00  0.00    +0.000 NA
ATOM      5  C   UNL     1       3.071   5.217  19.144  0.00  0.00    +0.000 A 
ATOM      6  N   UNL     1       3.209   6.053  18.066  0.00  0.00    +0.000 N 
ATOM      7  C   UNL     1       2.715   7.342  18.013  0.00  0.00    +0.000 A 
ATOM      8  O   UNL     1       2.800   8.108  17.064  0.00  0.00    +0.000 OA
ATOM      9  N   UNL     1       2.083   7.683  19.222  0.00  0.00    +0.000 N 
ATOM     10  N   UNL     1       1.507   8.890  19.464  0.00  0.00    +0.000 NA
ATOM     11  H   UNL     1       3.697   5.719  17.248  0.00  0.00    +0.000 HD
ENDROOT
BRANCH   1  16
ATOM     12  C   UNL     1      -1.667  13.216  23.364  0.00  0.00    +0.000 C 
ATOM     13  C   UNL     1      -0.977  12.072  22.680  0.00  0.00    +0.000 A 
ATOM     14  C   UNL     1      -0.192  12.291  21.548  0.00  0.00    +0.000 A 
ATOM     15  C   UNL     1       0.455  11.224  20.916  0.00  0.00    +0.000 A 
ATOM     16  C   UNL     1       0.340   9.909  21.398  0.00  0.00    +0.000 A 
ATOM     17  C   UNL     1      -0.459   9.695  22.531  0.00  0.00    +0.000 A 
ATOM     18  C   UNL     1      -1.109  10.765  23.165  0.00  0.00    +0.000 A 
ENDBRANCH   1  16
BRANCH   5  19
ATOM     19  S   UNL     1       3.807   3.664  18.885  0.00  0.00    +0.000 S 
BRANCH  19  20
ATOM     20  C   UNL     1       4.895   4.018  17.459  0.00  0.00    +0.000 C 
BRANCH  20  21
ATOM     21  C   UNL     1       5.998   4.987  17.859  0.00  0.00    +0.000 A 
ATOM     22  N   UNL     1       6.616   4.737  19.073  0.00  0.00    +0.000 N 
ATOM     23  C   UNL     1       7.628   5.485  19.606  0.00  0.00    +0.000 A 
ATOM     24  O   UNL     1       8.143   5.200  20.679  0.00  0.00    +0.000 OA
ATOM     25  N   UNL     1       8.018   6.562  18.870  0.00  0.00    +0.000 N 
ATOM     26  C   UNL     1       7.478   6.934  17.668  0.00  0.00    +0.000 A 
ATOM     27  O   UNL     1       7.882   7.932  17.078  0.00  0.00    +0.000 OA
ATOM     28  C   UNL     1       6.382   6.061  17.142  0.00  0.00    +0.000 A 
ATOM     29 CL   UNL     1       5.677   6.523  15.640  0.00  0.00    +0.000 Cl
ATOM     30  H   UNL     1       6.352   3.922  19.618  0.00  0.00    +0.000 HD
ATOM     31  H   UNL     1       8.761   7.135  19.243  0.00  0.00    +0.000 HD
ENDBRANCH  20  21
ENDBRANCH  19  20
ENDBRANCH   5  19
TORSDOF 4
ENDMDL
MODEL 7
REMARK VINA RESULT:      -8.8      1.372      1.867
REMARK  Name = 
REMARK  5 active torsions:
REMARK  status: ('A' for Active; 'I' for Inactive)
REMARK    1  A    between atoms: C_1  and  C_2
REMARK    2  A    between atoms: C_5  and  C_6
REMARK    3  A    between atoms: C_10  and  S_11
REMARK    4  A    between atoms: S_11  and  C_12
REMARK    5  A    between atoms: C_12  and  C_13
REMARK                            x       y       z     vdW  Elec       q    Type
REMARK                         _______ _______ _______ _____ _____    ______ ____
ROOT
ATOM      1  C   UNL     1       8.476   8.868  18.450  0.00  0.00    +0.000 A 
ATOM      2  C   UNL     1       7.750   8.479  17.287  0.00  0.00    +0.000 A 
ATOM      3  C   UNL     1       7.441   7.151  17.440  0.00  0.00    +0.000 A 
ATOM      4  N   UNL     1       6.778   6.264  16.645  0.00  0.00    +0.000 NA
ATOM      5  C   UNL     1       6.631   5.080  17.140  0.00  0.00    +0.000 A 
ATOM      6  N   UNL     1       7.102   4.694  18.368  0.00  0.00    +0.000 N 
ATOM      7  C   UNL     1       7.810   5.516  19.224  0.00  0.00    +0.000 A 
ATOM      8  O   UNL     1       8.263   5.200  20.315  0.00  0.00    +0.000 OA
ATOM      9  N   UNL     1       7.949   6.803  18.675  0.00  0.00    +0.000 N 
ATOM     10  N   UNL     1       8.594   7.826  19.295  0.00  0.00    +0.000 NA
ATOM     11  H   UNL     1       6.934   3.748  18.680  0.00  0.00    +0.000 HD
ENDROOT
BRANCH   1  16
ATOM     12  C   UNL     1      10.692  14.104  19.657  0.00  0.00    +0.000 C 
ATOM     13  C   UNL     1      10.128  12.750  19.336  0.00  0.00    +0.000 A 
ATOM     14  C   UNL     1      10.231  11.704  20.252  0.00  0.00    +0.000 A 
ATOM     15  C   UNL     1       9.699  10.445  19.952  0.00  0.00    +0.000 A 
ATOM     16  C   UNL     1       9.047  10.197  18.733  0.00  0.00    +0.000 A 
ATOM     17  C   UNL     1       8.956  11.251  17.813  0.00  0.00    +0.000 A 
ATOM     18  C   UNL     1       9.490  12.515  18.112  0.00  0.00    +0.000 A 
ENDBRANCH   1  16
BRANCH   5  19
ATOM     19  S   UNL     1       5.784   3.805  16.316  0.00  0.00    +0.000 S 
BRANCH  19  20
ATOM     20  C   UNL     1       4.067   4.432  16.361  0.00  0.00    +0.000 C 
BRANCH  20  21
ATOM     21  C   UNL     1       3.580   4.547  17.798  0.00  0.00    +0.000 A 
ATOM     22  N   UNL     1       3.312   5.830  18.248  0.00  0.00    +0.000 N 
ATOM     23  C   UNL     1       2.863   6.143  19.500  0.00  0.00    +0.000 A 
ATOM     24  O   UNL     1       2.629   7.299  19.830  0.00  0.00    +0.000 OA
ATOM     25  N   UNL     1       2.698   5.092  20.349  0.00  0.00    +0.000 N 
ATOM     26  C   UNL     1       2.947   3.781  20.042  0.00  0.00    +0.000 A 
ATOM     27  O   UNL     1       2.785   2.897  20.877  0.00  0.00    +0.000 OA
ATOM     28  C   UNL     1       3.425   3.514  18.648  0.00  0.00    +0.000 A 
ATOM     29 CL   UNL     1       3.762   1.873  18.248  0.00  0.00    +0.000 Cl
ATOM     30  H   UNL     1       3.405   6.618  17.615  0.00  0.00    +0.000 HD
ATOM     31  H   UNL     1       2.372   5.296  21.283  0.00  0.00    +0.000 HD
ENDBRANCH  20  21
ENDBRANCH  19  20
ENDBRANCH   5  19
TORSDOF 4
ENDMDL
MODEL 8
REMARK VINA RESULT:      -8.7      1.477      1.587
REMARK  Name = 
REMARK  5 active torsions:
REMARK  status: ('A' for Active; 'I' for Inactive)
REMARK    1  A    between atoms: C_1  and  C_2
REMARK    2  A    between atoms: C_5  and  C_6
REMARK    3  A    between atoms: C_10  and  S_11
REMARK    4  A    between atoms: S_11  and  C_12
REMARK    5  A    between atoms: C_12  and  C_13
REMARK                            x       y       z     vdW  Elec       q    Type
REMARK                         _______ _______ _______ _____ _____    ______ ____
ROOT
ATOM      1  C   UNL     1       8.493   9.079  18.449  0.00  0.00    +0.000 A 
ATOM      2  C   UNL     1       7.463   8.935  17.475  0.00  0.00    +0.000 A 
ATOM      3  C   UNL     1       7.082   7.617  17.493  0.00  0.00    +0.000 A 
ATOM      4  N   UNL     1       6.160   6.917  16.774  0.00  0.00    +0.000 NA
ATOM      5  C   UNL     1       6.035   5.672  17.097  0.00  0.00    +0.000 A 
ATOM      6  N   UNL     1       6.766   5.053  18.078  0.00  0.00    +0.000 N 
ATOM      7  C   UNL     1       7.741   5.677  18.833  0.00  0.00    +0.000 A 
ATOM      8  O   UNL     1       8.426   5.153  19.700  0.00  0.00    +0.000 OA
ATOM      9  N   UNL     1       7.854   7.033  18.477  0.00  0.00    +0.000 N 
ATOM     10  N   UNL     1       8.726   7.899  19.056  0.00  0.00    +0.000 NA
ATOM     11  H   UNL     1       6.597   4.076  18.270  0.00  0.00    +0.000 HD
ENDROOT
BRANCH   1  16
ATOM     12  C   UNL     1      11.381  13.931  19.823  0.00  0.00    +0.000 C 
ATOM     13  C   UNL     1      10.644  12.675  19.460  0.00  0.00    +0.000 A 
ATOM     14  C   UNL     1      10.487  11.650  20.392  0.00  0.00    +0.000 A 
ATOM     15  C   UNL     1       9.794  10.483  20.053  0.00  0.00    +0.000 A 
ATOM     16  C   UNL     1       9.237  10.308  18.775  0.00  0.00    +0.000 A 
ATOM     17  C   UNL     1       9.408  11.339  17.840  0.00  0.00    +0.000 A 
ATOM     18  C   UNL     1      10.103  12.510  18.179  0.00  0.00    +0.000 A 
ENDBRANCH   1  16
BRANCH   5  19
ATOM     19  S   UNL     1       4.893   4.604  16.338  0.00  0.00    +0.000 S 
BRANCH  19  20
ATOM     20  C   UNL     1       4.675   3.336  17.637  0.00  0.00    +0.000 C 
BRANCH  20  21
ATOM     21  C   UNL     1       3.353   3.539  18.362  0.00  0.00    +0.000 A 
ATOM     22  N   UNL     1       2.341   2.648  18.044  0.00  0.00    +0.000 N 
ATOM     23  C   UNL     1       1.088   2.659  18.586  0.00  0.00    +0.000 A 
ATOM     24  O   UNL     1       0.242   1.830  18.273  0.00  0.00    +0.000 OA
ATOM     25  N   UNL     1       0.843   3.648  19.489  0.00  0.00    +0.000 N 
ATOM     26  C   UNL     1       1.743   4.605  19.876  0.00  0.00    +0.000 A 
ATOM     27  O   UNL     1       1.431   5.471  20.687  0.00  0.00    +0.000 OA
ATOM     28  C   UNL     1       3.099   4.522  19.248  0.00  0.00    +0.000 A 
ATOM     29 CL   UNL     1       4.240   5.728  19.708  0.00  0.00    +0.000 Cl
ATOM     30  H   UNL     1       2.521   1.890  17.392  0.00  0.00    +0.000 HD
ATOM     31  H   UNL     1      -0.078   3.683  19.902  0.00  0.00    +0.000 HD
ENDBRANCH  20  21
ENDBRANCH  19  20
ENDBRANCH   5  19
TORSDOF 4
ENDMDL
MODEL 9
REMARK VINA RESULT:      -8.6      7.540      9.947
REMARK  Name = 
REMARK  5 active torsions:
REMARK  status: ('A' for Active; 'I' for Inactive)
REMARK    1  A    between atoms: C_1  and  C_2
REMARK    2  A    between atoms: C_5  and  C_6
REMARK    3  A    between atoms: C_10  and  S_11
REMARK    4  A    between atoms: S_11  and  C_12
REMARK    5  A    between atoms: C_12  and  C_13
REMARK                            x       y       z     vdW  Elec       q    Type
REMARK                         _______ _______ _______ _____ _____    ______ ____
ROOT
ATOM      1  C   UNL     1       2.625   7.274  18.703  0.00  0.00    +0.000 A 
ATOM      2  C   UNL     1       2.234   7.018  20.050  0.00  0.00    +0.000 A 
ATOM      3  C   UNL     1       1.496   8.099  20.459  0.00  0.00    +0.000 A 
ATOM      4  N   UNL     1       0.886   8.402  21.640  0.00  0.00    +0.000 NA
ATOM      5  C   UNL     1       0.225   9.513  21.654  0.00  0.00    +0.000 A 
ATOM      6  N   UNL     1       0.127  10.364  20.584  0.00  0.00    +0.000 N 
ATOM      7  C   UNL     1       0.737  10.152  19.362  0.00  0.00    +0.000 A 
ATOM      8  O   UNL     1       0.688  10.898  18.395  0.00  0.00    +0.000 OA
ATOM      9  N   UNL     1       1.440   8.934  19.361  0.00  0.00    +0.000 N 
ATOM     10  N   UNL     1       2.133   8.459  18.293  0.00  0.00    +0.000 NA
ATOM     11  H   UNL     1      -0.418  11.208  20.680  0.00  0.00    +0.000 HD
ENDROOT
BRANCH   1  16
ATOM     12  C   UNL     1       5.911   3.810  15.389  0.00  0.00    +0.000 C 
ATOM     13  C   UNL     1       5.058   4.711  16.235  0.00  0.00    +0.000 A 
ATOM     14  C   UNL     1       4.020   4.186  17.005  0.00  0.00    +0.000 A 
ATOM     15  C   UNL     1       3.231   5.027  17.797  0.00  0.00    +0.000 A 
ATOM     16  C   UNL     1       3.457   6.413  17.844  0.00  0.00    +0.000 A 
ATOM     17  C   UNL     1       4.495   6.934  17.059  0.00  0.00    +0.000 A 
ATOM     18  C   UNL     1       5.287   6.091  16.263  0.00  0.00    +0.000 A 
ENDBRANCH   1  16
BRANCH   5  19
ATOM     19  S   UNL     1      -0.659  10.074  23.040  0.00  0.00    +0.000 S 
BRANCH  19  20
ATOM     20  C   UNL     1      -0.884  11.840  22.628  0.00  0.00    +0.000 C 
BRANCH  20  21
ATOM     21  C   UNL     1      -2.364  12.179  22.527  0.00  0.00    +0.000 A 
ATOM     22  N   UNL     1      -3.108  12.004  23.683  0.00  0.00    +0.000 N 
ATOM     23  C   UNL     1      -4.446  12.256  23.799  0.00  0.00    +0.000 A 
ATOM     24  O   UNL     1      -5.042  12.095  24.857  0.00  0.00    +0.000 OA
ATOM     25  N   UNL     1      -5.066  12.691  22.668  0.00  0.00    +0.000 N 
ATOM     26  C   UNL     1      -4.457  12.884  21.457  0.00  0.00    +0.000 A 
ATOM     27  O   UNL     1      -5.098  13.265  20.483  0.00  0.00    +0.000 OA
ATOM     28  C   UNL     1      -2.988  12.599  21.409  0.00  0.00    +0.000 A 
ATOM     29 CL   UNL     1      -2.206  12.819  19.890  0.00  0.00    +0.000 Cl
ATOM     30  H   UNL     1      -2.651  11.706  24.539  0.00  0.00    +0.000 HD
ATOM     31  H   UNL     1      -6.057  12.879  22.724  0.00  0.00    +0.000 HD
ENDBRANCH  20  21
ENDBRANCH  19  20
ENDBRANCH   5  19
TORSDOF 4
ENDMDL
