MODEL 1
REMARK VINA RESULT:      -6.8      0.000      0.000
REMARK  Name = 
REMARK  12 active torsions:
REMARK  status: ('A' for Active; 'I' for Inactive)
REMARK    1  A    between atoms: C_1  and  C_2
REMARK    2  A    between atoms: C_2  and  N_3
REMARK    3  A    between atoms: N_3  and  C_4
REMARK    4  A    between atoms: N_3  and  C_6
REMARK    5  A    between atoms: C_4  and  C_5
REMARK    6  A    between atoms: C_6  and  C_7
REMARK    7  A    between atoms: C_7  and  C_8
REMARK    8  A    between atoms: C_7  and  O_9
REMARK    9  A    between atoms: O_9  and  C_10
REMARK   10  A    between atoms: C_10  and  C_12
REMARK   11  A    between atoms: C_17  and  O_18
REMARK   12  A    between atoms: C_17  and  C_19
REMARK                            x       y       z     vdW  Elec       q    Type
REMARK                         _______ _______ _______ _____ _____    ______ ____
ROOT
ATOM      1  C   UNL     1       3.701   3.875  18.596  0.00  0.00    +0.000 C 
ATOM      2  C   UNL     1       3.588   2.357  18.412  0.00  0.00    +0.000 C 
ATOM      3  C   UNL     1       2.251   1.981  17.794  0.00  0.00    +0.000 C 
ATOM      4  C   UNL     1       1.084   2.553  18.588  0.00  0.00    +0.000 C 
ATOM      5  C   UNL     1       1.200   4.073  18.761  0.00  0.00    +0.000 C 
ATOM      6  C   UNL     1       2.539   4.508  19.417  0.00  0.00    +0.000 C 
ENDROOT
BRANCH   6   7
ATOM      7  C   UNL     1       2.589   6.091  19.520  0.00  0.00    +0.000 C 
ATOM      8  C   UNL     1       1.616   6.683  20.564  0.00  0.00    +0.000 C 
ATOM      9  C   UNL     1       1.622   8.207  20.617  0.00  0.00    +0.000 C 
ATOM     10  C   UNL     1       1.378   8.807  19.239  0.00  0.00    +0.000 C 
ATOM     11  C   UNL     1       2.432   8.320  18.255  0.00  0.00    +0.000 C 
ATOM     12  C   UNL     1       2.433   6.796  18.151  0.00  0.00    +0.000 C 
ENDBRANCH   6   7
BRANCH   1  13
ATOM     13  C   UNL     1       5.061   4.177  19.174  0.00  0.00    +0.000 C 
ATOM     14  O   UNL     1       5.570   3.581  20.114  0.00  0.00    +0.000 OA
BRANCH  13  15
ATOM     15  O   UNL     1       5.656   5.184  18.472  0.00  0.00    +0.000 OA
BRANCH  15  16
ATOM     16  C   UNL     1       7.031   4.954  18.089  0.00  0.00    +0.000 C 
ATOM     17  C   UNL     1       7.893   5.828  18.997  0.00  0.00    +0.000 C 
BRANCH  16  18
ATOM     18  C   UNL     1       7.207   5.281  16.583  0.00  0.00    +0.000 C 
BRANCH  18  19
ATOM     19  N   UNL     1       6.320   4.603  15.619  0.00  0.00    +0.000 NA
BRANCH  19  21
ATOM     20  C   UNL     1       5.037   6.769  15.567  0.00  0.00    +0.000 C 
ATOM     21  C   UNL     1       4.993   5.243  15.562  0.00  0.00    +0.000 C 
ENDBRANCH  19  21
BRANCH  19  22
ATOM     22  C   UNL     1       6.984   4.501  14.303  0.00  0.00    +0.000 C 
ATOM     23  C   UNL     1       6.247   3.716  13.213  0.00  0.00    +0.000 C 
ENDBRANCH  19  22
ENDBRANCH  18  19
ENDBRANCH  16  18
ENDBRANCH  15  16
ENDBRANCH  13  15
ENDBRANCH   1  13
BRANCH   6  24
ATOM     24  O   UNL     1       2.468   3.988  20.753  0.00  0.00    +0.000 OA
ATOM     25  H   UNL     1       2.236   3.045  20.740  0.00  0.00    +0.000 HD
ENDBRANCH   6  24
TORSDOF 9
ENDMDL
MODEL 2
REMARK VINA RESULT:      -6.8      2.292      4.956
REMARK  Name = 
REMARK  12 active torsions:
REMARK  status: ('A' for Active; 'I' for Inactive)
REMARK    1  A    between atoms: C_1  and  C_2
REMARK    2  A    between atoms: C_2  and  N_3
REMARK    3  A    between atoms: N_3  and  C_4
REMARK    4  A    between atoms: N_3  and  C_6
REMARK    5  A    between atoms: C_4  and  C_5
REMARK    6  A    between atoms: C_6  and  C_7
REMARK    7  A    between atoms: C_7  and  C_8
REMARK    8  A    between atoms: C_7  and  O_9
REMARK    9  A    between atoms: O_9  and  C_10
REMARK   10  A    between atoms: C_10  and  C_12
REMARK   11  A    between atoms: C_17  and  O_18
REMARK   12  A    between atoms: C_17  and  C_19
REMARK                            x       y       z     vdW  Elec       q    Type
REMARK                         _______ _______ _______ _____ _____    ______ ____
ROOT
ATOM      1  C   UNL     1       5.990   5.402  16.724  0.00  0.00    +0.000 C 
ATOM      2  C   UNL     1       7.231   6.235  17.068  0.00  0.00    +0.000 C 
ATOM      3  C   UNL     1       7.898   5.720  18.333  0.00  0.00    +0.000 C 
ATOM      4  C   UNL     1       6.916   5.643  19.495  0.00  0.00    +0.000 C 
ATOM      5  C   UNL     1       5.681   4.801  19.145  0.00  0.00    +0.000 C 
ATOM      6  C   UNL     1       4.946   5.306  17.875  0.00  0.00    +0.000 C 
ENDROOT
BRANCH   6   7
ATOM      7  C   UNL     1       3.710   4.358  17.566  0.00  0.00    +0.000 C 
ATOM      8  C   UNL     1       2.356   4.910  18.067  0.00  0.00    +0.000 C 
ATOM      9  C   UNL     1       1.180   3.969  17.824  0.00  0.00    +0.000 C 
ATOM     10  C   UNL     1       1.454   2.586  18.400  0.00  0.00    +0.000 C 
ATOM     11  C   UNL     1       2.719   2.000  17.790  0.00  0.00    +0.000 C 
ATOM     12  C   UNL     1       3.926   2.900  18.041  0.00  0.00    +0.000 C 
ENDBRANCH   6   7
BRANCH   1  13
ATOM     13  C   UNL     1       5.405   5.942  15.442  0.00  0.00    +0.000 C 
ATOM     14  O   UNL     1       5.138   7.119  15.236  0.00  0.00    +0.000 OA
BRANCH  13  15
ATOM     15  O   UNL     1       5.252   4.935  14.535  0.00  0.00    +0.000 OA
BRANCH  15  16
ATOM     16  C   UNL     1       6.462   4.231  14.171  0.00  0.00    +0.000 C 
ATOM     17  C   UNL     1       7.311   5.207  13.360  0.00  0.00    +0.000 C 
BRANCH  16  18
ATOM     18  C   UNL     1       6.092   2.947  13.384  0.00  0.00    +0.000 C 
BRANCH  18  19
ATOM     19  N   UNL     1       5.936   3.052  11.921  0.00  0.00    +0.000 NA
BRANCH  19  21
ATOM     20  C   UNL     1       6.428   0.728  11.084  0.00  0.00    +0.000 C 
ATOM     21  C   UNL     1       6.888   2.178  11.211  0.00  0.00    +0.000 C 
ENDBRANCH  19  21
BRANCH  19  22
ATOM     22  C   UNL     1       4.526   2.820  11.543  0.00  0.00    +0.000 C 
ATOM     23  C   UNL     1       3.847   3.904  10.699  0.00  0.00    +0.000 C 
ENDBRANCH  19  22
ENDBRANCH  18  19
ENDBRANCH  16  18
ENDBRANCH  15  16
ENDBRANCH  13  15
ENDBRANCH   1  13
BRANCH   6  24
ATOM     24  O   UNL     1       4.424   6.590  18.249  0.00  0.00    +0.000 OA
ATOM     25  H   UNL     1       4.908   6.944  19.013  0.00  0.00    +0.000 HD
ENDBRANCH   6  24
TORSDOF 9
ENDMDL
MODEL 3
REMARK VINA RESULT:      -6.8      0.746      1.523
REMARK  Name = 
REMARK  12 active torsions:
REMARK  status: ('A' for Active; 'I' for Inactive)
REMARK    1  A    between atoms: C_1  and  C_2
REMARK    2  A    between atoms: C_2  and  N_3
REMARK    3  A    between atoms: N_3  and  C_4
REMARK    4  A    between atoms: N_3  and  C_6
REMARK    5  A    between atoms: C_4  and  C_5
REMARK    6  A    between atoms: C_6  and  C_7
REMARK    7  A    between atoms: C_7  and  C_8
REMARK    8  A    between atoms: C_7  and  O_9
REMARK    9  A    between atoms: O_9  and  C_10
REMARK   10  A    between atoms: C_10  and  C_12
REMARK   11  A    between atoms: C_17  and  O_18
REMARK   12  A    between atoms: C_17  and  C_19
REMARK                            x       y       z     vdW  Elec       q    Type
REMARK                         _______ _______ _______ _____ _____    ______ ____
ROOT
ATOM      1  C   UNL     1       3.987   4.516  18.518  0.00  0.00    +0.000 C 
ATOM      2  C   UNL     1       4.063   3.026  18.164  0.00  0.00    +0.000 C 
ATOM      3  C   UNL     1       2.812   2.577  17.427  0.00  0.00    +0.000 C 
ATOM      4  C   UNL     1       1.548   2.919  18.205  0.00  0.00    +0.000 C 
ATOM      5  C   UNL     1       1.475   4.414  18.548  0.00  0.00    +0.000 C 
ATOM      6  C   UNL     1       2.719   4.916  19.329  0.00  0.00    +0.000 C 
ENDROOT
BRANCH   6   7
ATOM      7  C   UNL     1       2.578   6.473  19.606  0.00  0.00    +0.000 C 
ATOM      8  C   UNL     1       1.531   6.825  20.688  0.00  0.00    +0.000 C 
ATOM      9  C   UNL     1       1.354   8.324  20.908  0.00  0.00    +0.000 C 
ATOM     10  C   UNL     1       1.050   9.040  19.598  0.00  0.00    +0.000 C 
ATOM     11  C   UNL     1       2.163   8.794  18.590  0.00  0.00    +0.000 C 
ATOM     12  C   UNL     1       2.349   7.303  18.319  0.00  0.00    +0.000 C 
ENDBRANCH   6   7
BRANCH   1  13
ATOM     13  C   UNL     1       5.272   4.900  19.209  0.00  0.00    +0.000 C 
ATOM     14  O   UNL     1       5.768   4.295  20.151  0.00  0.00    +0.000 OA
BRANCH  13  15
ATOM     15  O   UNL     1       5.820   5.994  18.607  0.00  0.00    +0.000 OA
BRANCH  15  16
ATOM     16  C   UNL     1       7.177   5.835  18.133  0.00  0.00    +0.000 C 
ATOM     17  C   UNL     1       7.698   7.234  17.814  0.00  0.00    +0.000 C 
BRANCH  16  18
ATOM     18  C   UNL     1       7.185   4.888  16.904  0.00  0.00    +0.000 C 
BRANCH  18  19
ATOM     19  N   UNL     1       6.861   5.463  15.584  0.00  0.00    +0.000 NA
BRANCH  19  21
ATOM     20  C   UNL     1       6.647   4.517  13.261  0.00  0.00    +0.000 C 
ATOM     21  C   UNL     1       7.522   4.722  14.495  0.00  0.00    +0.000 C 
ENDBRANCH  19  21
BRANCH  19  22
ATOM     22  C   UNL     1       5.396   5.570  15.423  0.00  0.00    +0.000 C 
ATOM     23  C   UNL     1       4.784   6.969  15.547  0.00  0.00    +0.000 C 
ENDBRANCH  19  22
ENDBRANCH  18  19
ENDBRANCH  16  18
ENDBRANCH  15  16
ENDBRANCH  13  15
ENDBRANCH   1  13
BRANCH   6  24
ATOM     24  O   UNL     1       2.644   4.242  20.594  0.00  0.00    +0.000 OA
ATOM     25  H   UNL     1       3.278   3.508  20.626  0.00  0.00    +0.000 HD
ENDBRANCH   6  24
TORSDOF 9
ENDMDL
MODEL 4
REMARK VINA RESULT:      -6.6      1.289      2.593
REMARK  Name = 
REMARK  12 active torsions:
REMARK  status: ('A' for Active; 'I' for Inactive)
REMARK    1  A    between atoms: C_1  and  C_2
REMARK    2  A    between atoms: C_2  and  N_3
REMARK    3  A    between atoms: N_3  and  C_4
REMARK    4  A    between atoms: N_3  and  C_6
REMARK    5  A    between atoms: C_4  and  C_5
REMARK    6  A    between atoms: C_6  and  C_7
REMARK    7  A    between atoms: C_7  and  C_8
REMARK    8  A    between atoms: C_7  and  O_9
REMARK    9  A    between atoms: O_9  and  C_10
REMARK   10  A    between atoms: C_10  and  C_12
REMARK   11  A    between atoms: C_17  and  O_18
REMARK   12  A    between atoms: C_17  and  C_19
REMARK                            x       y       z     vdW  Elec       q    Type
REMARK                         _______ _______ _______ _____ _____    ______ ____
ROOT
ATOM      1  C   UNL     1       3.177   3.546  18.465  0.00  0.00    +0.000 C 
ATOM      2  C   UNL     1       2.909   2.037  18.497  0.00  0.00    +0.000 C 
ATOM      3  C   UNL     1       1.417   1.749  18.514  0.00  0.00    +0.000 C 
ATOM      4  C   UNL     1       0.716   2.482  19.650  0.00  0.00    +0.000 C 
ATOM      5  C   UNL     1       0.982   3.993  19.607  0.00  0.00    +0.000 C 
ATOM      6  C   UNL     1       2.495   4.341  19.617  0.00  0.00    +0.000 C 
ENDROOT
BRANCH   6   7
ATOM      7  C   UNL     1       2.678   5.915  19.530  0.00  0.00    +0.000 C 
ATOM      8  C   UNL     1       1.769   6.706  20.498  0.00  0.00    +0.000 C 
ATOM      9  C   UNL     1       1.902   8.221  20.368  0.00  0.00    +0.000 C 
ATOM     10  C   UNL     1       1.691   8.670  18.929  0.00  0.00    +0.000 C 
ATOM     11  C   UNL     1       2.690   7.984  18.009  0.00  0.00    +0.000 C 
ATOM     12  C   UNL     1       2.565   6.464  18.087  0.00  0.00    +0.000 C 
ENDBRANCH   6   7
BRANCH   1  13
ATOM     13  C   UNL     1       4.670   3.756  18.409  0.00  0.00    +0.000 C 
ATOM     14  O   UNL     1       5.418   3.722  19.377  0.00  0.00    +0.000 OA
BRANCH  13  15
ATOM     15  O   UNL     1       5.069   3.949  17.119  0.00  0.00    +0.000 OA
BRANCH  15  16
ATOM     16  C   UNL     1       5.633   5.248  16.826  0.00  0.00    +0.000 C 
ATOM     17  C   UNL     1       5.212   5.599  15.401  0.00  0.00    +0.000 C 
BRANCH  16  18
ATOM     18  C   UNL     1       7.172   5.194  17.009  0.00  0.00    +0.000 C 
BRANCH  18  19
ATOM     19  N   UNL     1       7.811   6.249  17.819  0.00  0.00    +0.000 NA
BRANCH  19  21
ATOM     20  C   UNL     1       8.232   8.725  18.003  0.00  0.00    +0.000 C 
ATOM     21  C   UNL     1       7.458   7.594  17.329  0.00  0.00    +0.000 C 
ENDBRANCH  19  21
BRANCH  19  22
ATOM     22  C   UNL     1       7.511   6.043  19.250  0.00  0.00    +0.000 C 
ATOM     23  C   UNL     1       8.569   5.315  20.084  0.00  0.00    +0.000 C 
ENDBRANCH  19  22
ENDBRANCH  18  19
ENDBRANCH  16  18
ENDBRANCH  15  16
ENDBRANCH  13  15
ENDBRANCH   1  13
BRANCH   6  24
ATOM     24  O   UNL     1       2.950   3.922  20.913  0.00  0.00    +0.000 OA
ATOM     25  H   UNL     1       2.811   4.627  21.566  0.00  0.00    +0.000 HD
ENDBRANCH   6  24
TORSDOF 9
ENDMDL
MODEL 5
REMARK VINA RESULT:      -6.5      2.995      6.364
REMARK  Name = 
REMARK  12 active torsions:
REMARK  status: ('A' for Active; 'I' for Inactive)
REMARK    1  A    between atoms: C_1  and  C_2
REMARK    2  A    between atoms: C_2  and  N_3
REMARK    3  A    between atoms: N_3  and  C_4
REMARK    4  A    between atoms: N_3  and  C_6
REMARK    5  A    between atoms: C_4  and  C_5
REMARK    6  A    between atoms: C_6  and  C_7
REMARK    7  A    between atoms: C_7  and  C_8
REMARK    8  A    between atoms: C_7  and  O_9
REMARK    9  A    between atoms: O_9  and  C_10
REMARK   10  A    between atoms: C_10  and  C_12
REMARK   11  A    between atoms: C_17  and  O_18
REMARK   12  A    between atoms: C_17  and  C_19
REMARK                            x       y       z     vdW  Elec       q    Type
REMARK                         _______ _______ _______ _____ _____    ______ ____
ROOT
ATOM      1  C   UNL     1       2.435   5.612  20.182  0.00  0.00    +0.000 C 
ATOM      2  C   UNL     1       1.176   4.807  20.528  0.00  0.00    +0.000 C 
ATOM      3  C   UNL     1       1.522   3.358  20.831  0.00  0.00    +0.000 C 
ATOM      4  C   UNL     1       2.319   2.722  19.699  0.00  0.00    +0.000 C 
ATOM      5  C   UNL     1       3.581   3.529  19.365  0.00  0.00    +0.000 C 
ATOM      6  C   UNL     1       3.278   5.012  19.019  0.00  0.00    +0.000 C 
ENDROOT
BRANCH   6   7
ATOM      7  C   UNL     1       4.637   5.777  18.726  0.00  0.00    +0.000 C 
ATOM      8  C   UNL     1       4.846   6.140  17.239  0.00  0.00    +0.000 C 
ATOM      9  C   UNL     1       6.181   6.820  16.952  0.00  0.00    +0.000 C 
ATOM     10  C   UNL     1       7.344   5.992  17.481  0.00  0.00    +0.000 C 
ATOM     11  C   UNL     1       7.193   5.762  18.978  0.00  0.00    +0.000 C 
ATOM     12  C   UNL     1       5.880   5.053  19.302  0.00  0.00    +0.000 C 
ENDBRANCH   6   7
BRANCH   1  13
ATOM     13  C   UNL     1       2.023   7.042  19.934  0.00  0.00    +0.000 C 
ATOM     14  O   UNL     1       2.333   7.698  18.948  0.00  0.00    +0.000 OA
BRANCH  13  15
ATOM     15  O   UNL     1       1.224   7.482  20.947  0.00  0.00    +0.000 OA
BRANCH  15  16
ATOM     16  C   UNL     1       1.168   8.917  21.122  0.00  0.00    +0.000 C 
ATOM     17  C   UNL     1       1.395   9.188  22.608  0.00  0.00    +0.000 C 
BRANCH  16  18
ATOM     18  C   UNL     1      -0.197   9.445  20.610  0.00  0.00    +0.000 C 
BRANCH  18  19
ATOM     19  N   UNL     1      -0.191  10.559  19.643  0.00  0.00    +0.000 NA
BRANCH  19  21
ATOM     20  C   UNL     1       0.684  12.613  20.808  0.00  0.00    +0.000 C 
ATOM     21  C   UNL     1       0.963  11.453  19.856  0.00  0.00    +0.000 C 
ENDBRANCH  19  21
BRANCH  19  22
ATOM     22  C   UNL     1      -0.287  10.037  18.264  0.00  0.00    +0.000 C 
ATOM     23  C   UNL     1      -1.651  10.143  17.575  0.00  0.00    +0.000 C 
ENDBRANCH  19  22
ENDBRANCH  18  19
ENDBRANCH  16  18
ENDBRANCH  15  16
ENDBRANCH  13  15
ENDBRANCH   1  13
BRANCH   6  24
ATOM     24  O   UNL     1       2.542   4.948  17.787  0.00  0.00    +0.000 OA
ATOM     25  H   UNL     1       2.141   4.072  17.675  0.00  0.00    +0.000 HD
ENDBRANCH   6  24
TORSDOF 9
ENDMDL
MODEL 6
REMARK VINA RESULT:      -6.5      2.896      6.378
REMARK  Name = 
REMARK  12 active torsions:
REMARK  status: ('A' for Active; 'I' for Inactive)
REMARK    1  A    between atoms: C_1  and  C_2
REMARK    2  A    between atoms: C_2  and  N_3
REMARK    3  A    between atoms: N_3  and  C_4
REMARK    4  A    between atoms: N_3  and  C_6
REMARK    5  A    between atoms: C_4  and  C_5
REMARK    6  A    between atoms: C_6  and  C_7
REMARK    7  A    between atoms: C_7  and  C_8
REMARK    8  A    between atoms: C_7  and  O_9
REMARK    9  A    between atoms: O_9  and  C_10
REMARK   10  A    between atoms: C_10  and  C_12
REMARK   11  A    between atoms: C_17  and  O_18
REMARK   12  A    between atoms: C_17  and  C_19
REMARK                            x       y       z     vdW  Elec       q    Type
REMARK                         _______ _______ _______ _____ _____    ______ ____
ROOT
ATOM      1  C   UNL     1       2.623   5.328  19.947  0.00  0.00    +0.000 C 
ATOM      2  C   UNL     1       1.335   4.772  20.567  0.00  0.00    +0.000 C 
ATOM      3  C   UNL     1       1.524   3.333  21.018  0.00  0.00    +0.000 C 
ATOM      4  C   UNL     1       2.044   2.454  19.887  0.00  0.00    +0.000 C 
ATOM      5  C   UNL     1       3.337   3.012  19.278  0.00  0.00    +0.000 C 
ATOM      6  C   UNL     1       3.188   4.474  18.775  0.00  0.00    +0.000 C 
ENDROOT
BRANCH   6   7
ATOM      7  C   UNL     1       4.577   4.981  18.199  0.00  0.00    +0.000 C 
ATOM      8  C   UNL     1       5.093   4.163  16.993  0.00  0.00    +0.000 C 
ATOM      9  C   UNL     1       6.457   4.614  16.481  0.00  0.00    +0.000 C 
ATOM     10  C   UNL     1       7.485   4.641  17.605  0.00  0.00    +0.000 C 
ATOM     11  C   UNL     1       7.023   5.562  18.724  0.00  0.00    +0.000 C 
ATOM     12  C   UNL     1       5.672   5.122  19.284  0.00  0.00    +0.000 C 
ENDBRANCH   6   7
BRANCH   1  13
ATOM     13  C   UNL     1       2.375   6.765  19.562  0.00  0.00    +0.000 C 
ATOM     14  O   UNL     1       2.908   7.340  18.622  0.00  0.00    +0.000 OA
BRANCH  13  15
ATOM     15  O   UNL     1       1.442   7.318  20.389  0.00  0.00    +0.000 OA
BRANCH  15  16
ATOM     16  C   UNL     1       1.604   8.729  20.663  0.00  0.00    +0.000 C 
ATOM     17  C   UNL     1       1.186   8.946  22.115  0.00  0.00    +0.000 C 
BRANCH  16  18
ATOM     18  C   UNL     1       0.756   9.549  19.656  0.00  0.00    +0.000 C 
BRANCH  18  19
ATOM     19  N   UNL     1       0.187  10.831  20.113  0.00  0.00    +0.000 NA
BRANCH  19  21
ATOM     20  C   UNL     1       1.803  12.092  18.650  0.00  0.00    +0.000 C 
ATOM     21  C   UNL     1       1.177  11.922  20.031  0.00  0.00    +0.000 C 
ENDBRANCH  19  21
BRANCH  19  22
ATOM     22  C   UNL     1      -1.068  11.117  19.388  0.00  0.00    +0.000 C 
ATOM     23  C   UNL     1      -1.402  10.215  18.196  0.00  0.00    +0.000 C 
ENDBRANCH  19  22
ENDBRANCH  18  19
ENDBRANCH  16  18
ENDBRANCH  15  16
ENDBRANCH  13  15
ENDBRANCH   1  13
BRANCH   6  24
ATOM     24  O   UNL     1       2.270   4.381  17.675  0.00  0.00    +0.000 OA
ATOM     25  H   UNL     1       1.759   5.202  17.587  0.00  0.00    +0.000 HD
ENDBRANCH   6  24
TORSDOF 9
ENDMDL
MODEL 7
REMARK VINA RESULT:      -6.5      2.974      6.409
REMARK  Name = 
REMARK  12 active torsions:
REMARK  status: ('A' for Active; 'I' for Inactive)
REMARK    1  A    between atoms: C_1  and  C_2
REMARK    2  A    between atoms: C_2  and  N_3
REMARK    3  A    between atoms: N_3  and  C_4
REMARK    4  A    between atoms: N_3  and  C_6
REMARK    5  A    between atoms: C_4  and  C_5
REMARK    6  A    between atoms: C_6  and  C_7
REMARK    7  A    between atoms: C_7  and  C_8
REMARK    8  A    between atoms: C_7  and  O_9
REMARK    9  A    between atoms: O_9  and  C_10
REMARK   10  A    between atoms: C_10  and  C_12
REMARK   11  A    between atoms: C_17  and  O_18
REMARK   12  A    between atoms: C_17  and  C_19
REMARK                            x       y       z     vdW  Elec       q    Type
REMARK                         _______ _______ _______ _____ _____    ______ ____
ROOT
ATOM      1  C   UNL     1       2.423   5.569  20.177  0.00  0.00    +0.000 C 
ATOM      2  C   UNL     1       1.164   4.756  20.501  0.00  0.00    +0.000 C 
ATOM      3  C   UNL     1       1.513   3.305  20.793  0.00  0.00    +0.000 C 
ATOM      4  C   UNL     1       2.323   2.684  19.662  0.00  0.00    +0.000 C 
ATOM      5  C   UNL     1       3.586   3.499  19.349  0.00  0.00    +0.000 C 
ATOM      6  C   UNL     1       3.280   4.984  19.016  0.00  0.00    +0.000 C 
ENDROOT
BRANCH   6   7
ATOM      7  C   UNL     1       4.639   5.758  18.745  0.00  0.00    +0.000 C 
ATOM      8  C   UNL     1       4.843   6.171  17.270  0.00  0.00    +0.000 C 
ATOM      9  C   UNL     1       6.178   6.859  17.002  0.00  0.00    +0.000 C 
ATOM     10  C   UNL     1       7.342   6.013  17.499  0.00  0.00    +0.000 C 
ATOM     11  C   UNL     1       7.196   5.732  18.987  0.00  0.00    +0.000 C 
ATOM     12  C   UNL     1       5.883   5.014  19.291  0.00  0.00    +0.000 C 
ENDBRANCH   6   7
BRANCH   1  13
ATOM     13  C   UNL     1       2.008   6.999  19.939  0.00  0.00    +0.000 C 
ATOM     14  O   UNL     1       2.262   7.643  18.930  0.00  0.00    +0.000 OA
BRANCH  13  15
ATOM     15  O   UNL     1       1.276   7.457  20.996  0.00  0.00    +0.000 OA
BRANCH  15  16
ATOM     16  C   UNL     1       1.195   8.895  21.125  0.00  0.00    +0.000 C 
ATOM     17  C   UNL     1       1.303   9.209  22.616  0.00  0.00    +0.000 C 
BRANCH  16  18
ATOM     18  C   UNL     1      -0.130   9.394  20.493  0.00  0.00    +0.000 C 
BRANCH  18  19
ATOM     19  N   UNL     1      -0.046  10.274  19.311  0.00  0.00    +0.000 NA
BRANCH  19  21
ATOM     20  C   UNL     1      -1.964  11.900  19.189  0.00  0.00    +0.000 C 
ATOM     21  C   UNL     1      -1.380  10.559  18.753  0.00  0.00    +0.000 C 
ENDBRANCH  19  21
BRANCH  19  22
ATOM     22  C   UNL     1       0.731  11.488  19.635  0.00  0.00    +0.000 C 
ATOM     23  C   UNL     1       1.791  11.925  18.620  0.00  0.00    +0.000 C 
ENDBRANCH  19  22
ENDBRANCH  18  19
ENDBRANCH  16  18
ENDBRANCH  15  16
ENDBRANCH  13  15
ENDBRANCH   1  13
BRANCH   6  24
ATOM     24  O   UNL     1       2.557   4.931  17.777  0.00  0.00    +0.000 OA
ATOM     25  H   UNL     1       1.696   5.371  17.865  0.00  0.00    +0.000 HD
ENDBRANCH   6  24
TORSDOF 9
ENDMDL
MODEL 8
REMARK VINA RESULT:      -6.5      2.968      6.573
REMARK  Name = 
REMARK  12 active torsions:
REMARK  status: ('A' for Active; 'I' for Inactive)
REMARK    1  A    between atoms: C_1  and  C_2
REMARK    2  A    between atoms: C_2  and  N_3
REMARK    3  A    between atoms: N_3  and  C_4
REMARK    4  A    between atoms: N_3  and  C_6
REMARK    5  A    between atoms: C_4  and  C_5
REMARK    6  A    between atoms: C_6  and  C_7
REMARK    7  A    between atoms: C_7  and  C_8
REMARK    8  A    between atoms: C_7  and  O_9
REMARK    9  A    between atoms: O_9  and  C_10
REMARK   10  A    between atoms: C_10  and  C_12
REMARK   11  A    between atoms: C_17  and  O_18
REMARK   12  A    between atoms: C_17  and  C_19
REMARK                            x       y       z     vdW  Elec       q    Type
REMARK                         _______ _______ _______ _____ _____    ______ ____
ROOT
ATOM      1  C   UNL     1       2.381   5.525  20.010  0.00  0.00    +0.000 C 
ATOM      2  C   UNL     1       1.095   4.880  20.540  0.00  0.00    +0.000 C 
ATOM      3  C   UNL     1       1.294   3.394  20.792  0.00  0.00    +0.000 C 
ATOM      4  C   UNL     1       1.829   2.682  19.556  0.00  0.00    +0.000 C 
ATOM      5  C   UNL     1       3.121   3.329  19.037  0.00  0.00    +0.000 C 
ATOM      6  C   UNL     1       2.961   4.843  18.737  0.00  0.00    +0.000 C 
ENDROOT
BRANCH   6   7
ATOM      7  C   UNL     1       4.349   5.436  18.244  0.00  0.00    +0.000 C 
ATOM      8  C   UNL     1       4.713   5.057  16.791  0.00  0.00    +0.000 C 
ATOM      9  C   UNL     1       6.075   5.577  16.342  0.00  0.00    +0.000 C 
ATOM     10  C   UNL     1       7.172   5.151  17.310  0.00  0.00    +0.000 C 
ATOM     11  C   UNL     1       6.864   5.653  18.712  0.00  0.00    +0.000 C 
ATOM     12  C   UNL     1       5.520   5.127  19.210  0.00  0.00    +0.000 C 
ENDBRANCH   6   7
BRANCH   1  13
ATOM     13  C   UNL     1       2.122   7.000  19.822  0.00  0.00    +0.000 C 
ATOM     14  O   UNL     1       2.571   7.678  18.908  0.00  0.00    +0.000 OA
BRANCH  13  15
ATOM     15  O   UNL     1       1.285   7.457  20.798  0.00  0.00    +0.000 OA
BRANCH  15  16
ATOM     16  C   UNL     1       1.253   8.892  20.973  0.00  0.00    +0.000 C 
ATOM     17  C   UNL     1       1.410   9.156  22.469  0.00  0.00    +0.000 C 
BRANCH  16  18
ATOM     18  C   UNL     1      -0.072   9.452  20.392  0.00  0.00    +0.000 C 
BRANCH  18  19
ATOM     19  N   UNL     1       0.014  10.467  19.325  0.00  0.00    +0.000 NA
BRANCH  19  21
ATOM     20  C   UNL     1      -1.963  10.141  17.800  0.00  0.00    +0.000 C 
ATOM     21  C   UNL     1      -0.469   9.938  18.036  0.00  0.00    +0.000 C 
ENDBRANCH  19  21
BRANCH  19  22
ATOM     22  C   UNL     1      -0.667  11.708  19.748  0.00  0.00    +0.000 C 
ATOM     23  C   UNL     1      -1.258  11.728  21.160  0.00  0.00    +0.000 C 
ENDBRANCH  19  22
ENDBRANCH  18  19
ENDBRANCH  16  18
ENDBRANCH  15  16
ENDBRANCH  13  15
ENDBRANCH   1  13
BRANCH   6  24
ATOM     24  O   UNL     1       2.050   4.894  17.628  0.00  0.00    +0.000 OA
ATOM     25  H   UNL     1       2.537   4.929  16.789  0.00  0.00    +0.000 HD
ENDBRANCH   6  24
TORSDOF 9
ENDMDL
MODEL 9
REMARK VINA RESULT:      -6.4      2.802      6.327
REMARK  Name = 
REMARK  12 active torsions:
REMARK  status: ('A' for Active; 'I' for Inactive)
REMARK    1  A    between atoms: C_1  and  C_2
REMARK    2  A    between atoms: C_2  and  N_3
REMARK    3  A    between atoms: N_3  and  C_4
REMARK    4  A    between atoms: N_3  and  C_6
REMARK    5  A    between atoms: C_4  and  C_5
REMARK    6  A    between atoms: C_6  and  C_7
REMARK    7  A    between atoms: C_7  and  C_8
REMARK    8  A    between atoms: C_7  and  O_9
REMARK    9  A    between atoms: O_9  and  C_10
REMARK   10  A    between atoms: C_10  and  C_12
REMARK   11  A    between atoms: C_17  and  O_18
REMARK   12  A    between atoms: C_17  and  C_19
REMARK                            x       y       z     vdW  Elec       q    Type
REMARK                         _______ _______ _______ _____ _____    ______ ____
ROOT
ATOM      1  C   UNL     1       2.938   4.863  19.829  0.00  0.00    +0.000 C 
ATOM      2  C   UNL     1       1.656   4.499  20.587  0.00  0.00    +0.000 C 
ATOM      3  C   UNL     1       1.947   3.516  21.709  0.00  0.00    +0.000 C 
ATOM      4  C   UNL     1       2.683   2.284  21.199  0.00  0.00    +0.000 C 
ATOM      5  C   UNL     1       3.969   2.656  20.449  0.00  0.00    +0.000 C 
ATOM      6  C   UNL     1       3.721   3.638  19.273  0.00  0.00    +0.000 C 
ENDROOT
BRANCH   6   7
ATOM      7  C   UNL     1       5.104   3.998  18.581  0.00  0.00    +0.000 C 
ATOM      8  C   UNL     1       5.796   5.246  19.172  0.00  0.00    +0.000 C 
ATOM      9  C   UNL     1       7.093   5.624  18.464  0.00  0.00    +0.000 C 
ATOM     10  C   UNL     1       6.877   5.777  16.965  0.00  0.00    +0.000 C 
ATOM     11  C   UNL     1       6.325   4.488  16.376  0.00  0.00    +0.000 C 
ATOM     12  C   UNL     1       5.007   4.093  17.038  0.00  0.00    +0.000 C 
ENDBRANCH   6   7
BRANCH   1  13
ATOM     13  C   UNL     1       2.581   5.868  18.762  0.00  0.00    +0.000 C 
ATOM     14  O   UNL     1       2.102   5.590  17.671  0.00  0.00    +0.000 OA
BRANCH  13  15
ATOM     15  O   UNL     1       2.835   7.133  19.205  0.00  0.00    +0.000 OA
BRANCH  15  16
ATOM     16  C   UNL     1       1.756   8.082  19.045  0.00  0.00    +0.000 C 
ATOM     17  C   UNL     1       2.182   9.052  17.946  0.00  0.00    +0.000 C 
BRANCH  16  18
ATOM     18  C   UNL     1       1.481   8.781  20.402  0.00  0.00    +0.000 C 
BRANCH  18  19
ATOM     19  N   UNL     1       0.105   9.238  20.680  0.00  0.00    +0.000 NA
BRANCH  19  21
ATOM     20  C   UNL     1      -0.296   9.644  23.132  0.00  0.00    +0.000 C 
ATOM     21  C   UNL     1      -0.401   8.685  21.950  0.00  0.00    +0.000 C 
ENDBRANCH  19  21
BRANCH  19  22
ATOM     22  C   UNL     1       0.035  10.711  20.607  0.00  0.00    +0.000 C 
ATOM     23  C   UNL     1      -1.088  11.311  19.754  0.00  0.00    +0.000 C 
ENDBRANCH  19  22
ENDBRANCH  18  19
ENDBRANCH  16  18
ENDBRANCH  15  16
ENDBRANCH  13  15
ENDBRANCH   1  13
BRANCH   6  24
ATOM     24  O   UNL     1       2.949   2.879  18.329  0.00  0.00    +0.000 OA
ATOM     25  H   UNL     1       2.476   3.470  17.722  0.00  0.00    +0.000 HD
ENDBRANCH   6  24
TORSDOF 9
ENDMDL
