MODEL 1
REMARK VINA RESULT:      -8.2      0.000      0.000
REMARK  Name = 
REMARK  9 active torsions:
REMARK  status: ('A' for Active; 'I' for Inactive)
REMARK    1  A    between atoms: C_1  and  C_2
REMARK    2  A    between atoms: N_4  and  C_5
REMARK    3  A    between atoms: C_5  and  C_6
REMARK    4  A    between atoms: C_5  and  C_7
REMARK    5  A    between atoms: C_7  and  C_8
REMARK    6  A    between atoms: C_11  and  C_12
REMARK    7  A    between atoms: C_13  and  C_14
REMARK    8  A    between atoms: N_18  and  C_19
REMARK    9  A    between atoms: C_19  and  C_20
REMARK                            x       y       z     vdW  Elec       q    Type
REMARK                         _______ _______ _______ _____ _____    ______ ____
ROOT
ATOM      1  C   UNL     1       8.860   9.447  18.600  0.00  0.00    +0.000 C 
ATOM      2  C   UNL     1       8.239   8.442  18.353  0.00  0.00    +0.000 C 
ENDROOT
BRANCH   2   3
ATOM      3  C   UNL     1       7.557   7.225  18.051  0.00  0.00    +0.000 A 
ATOM      4  C   UNL     1       7.850   6.037  18.679  0.00  0.00    +0.000 A 
ATOM      5  N   UNL     1       7.259   4.860  18.374  0.00  0.00    +0.000 NA
ATOM      6  C   UNL     1       6.333   4.870  17.407  0.00  0.00    +0.000 A 
ATOM      7  N   UNL     1       5.786   3.637  17.096  0.00  0.00    +0.000 N 
ATOM      8  N   UNL     1       5.948   5.973  16.755  0.00  0.00    +0.000 NA
ATOM      9  C   UNL     1       6.579   7.129  17.086  0.00  0.00    +0.000 A 
ATOM     10  H   UNL     1       6.016   3.017  17.868  0.00  0.00    +0.000 HD
BRANCH   7  11
ATOM     11  C   UNL     1       4.383   3.636  16.663  0.00  0.00    +0.000 C 
BRANCH  11  12
ATOM     12  C   UNL     1       3.335   3.067  17.639  0.00  0.00    +0.000 C 
ATOM     13  F   UNL     1       2.075   3.471  17.375  0.00  0.00    +0.000 F 
ATOM     14  F   UNL     1       3.346   1.714  17.643  0.00  0.00    +0.000 F 
ATOM     15  F   UNL     1       3.614   3.466  18.907  0.00  0.00    +0.000 F 
ENDBRANCH  11  12
ENDBRANCH   7  11
ENDBRANCH   2   3
BRANCH   1  19
ATOM     16  C   UNL     1      11.105  12.972  19.398  0.00  0.00    +0.000 A 
ATOM     17  C   UNL     1      10.977  12.484  18.090  0.00  0.00    +0.000 A 
ATOM     18  C   UNL     1      10.253  11.314  17.831  0.00  0.00    +0.000 A 
ATOM     19  C   UNL     1       9.651  10.611  18.876  0.00  0.00    +0.000 A 
ATOM     20  C   UNL     1       9.803  11.070  20.186  0.00  0.00    +0.000 A 
ATOM     21  C   UNL     1      10.526  12.240  20.445  0.00  0.00    +0.000 A 
BRANCH  16  22
ATOM     22  C   UNL     1      11.863  14.254  19.681  0.00  0.00    +0.000 C 
BRANCH  22  23
ATOM     23  C   UNL     1      10.974  15.513  19.779  0.00  0.00    +0.000 C 
ATOM     24  C   UNL     1      10.943  16.034  21.218  0.00  0.00    +0.000 C 
BRANCH  23  28
ATOM     25  C   UNL     1       7.687  15.475  17.880  0.00  0.00    +0.000 C 
ATOM     26  C   UNL     1       9.117  15.838  18.171  0.00  0.00    +0.000 C 
ATOM     27  O   UNL     1       9.768  16.577  17.440  0.00  0.00    +0.000 OA
ATOM     28  N   UNL     1       9.613  15.256  19.316  0.00  0.00    +0.000 N 
ATOM     29  H   UNL     1       8.992  14.710  19.899  0.00  0.00    +0.000 HD
ENDBRANCH  23  28
ENDBRANCH  22  23
ENDBRANCH  16  22
ENDBRANCH   1  19
TORSDOF 7
ENDMDL
MODEL 2
REMARK VINA RESULT:      -8.1      0.737      1.362
REMARK  Name = 
REMARK  9 active torsions:
REMARK  status: ('A' for Active; 'I' for Inactive)
REMARK    1  A    between atoms: C_1  and  C_2
REMARK    2  A    between atoms: N_4  and  C_5
REMARK    3  A    between atoms: C_5  and  C_6
REMARK    4  A    between atoms: C_5  and  C_7
REMARK    5  A    between atoms: C_7  and  C_8
REMARK    6  A    between atoms: C_11  and  C_12
REMARK    7  A    between atoms: C_13  and  C_14
REMARK    8  A    between atoms: N_18  and  C_19
REMARK    9  A    between atoms: C_19  and  C_20
REMARK                            x       y       z     vdW  Elec       q    Type
REMARK                         _______ _______ _______ _____ _____    ______ ____
ROOT
ATOM      1  C   UNL     1       8.940   9.434  18.709  0.00  0.00    +0.000 C 
ATOM      2  C   UNL     1       8.359   8.406  18.462  0.00  0.00    +0.000 C 
ENDROOT
BRANCH   2   3
ATOM      3  C   UNL     1       7.643   7.218  18.124  0.00  0.00    +0.000 A 
ATOM      4  C   UNL     1       7.831   6.027  18.784  0.00  0.00    +0.000 A 
ATOM      5  N   UNL     1       7.207   4.874  18.450  0.00  0.00    +0.000 NA
ATOM      6  C   UNL     1       6.356   4.915  17.417  0.00  0.00    +0.000 A 
ATOM      7  N   UNL     1       5.773   3.705  17.081  0.00  0.00    +0.000 N 
ATOM      8  N   UNL     1       6.074   6.026  16.726  0.00  0.00    +0.000 NA
ATOM      9  C   UNL     1       6.734   7.155  17.090  0.00  0.00    +0.000 A 
ATOM     10  H   UNL     1       5.917   3.086  17.873  0.00  0.00    +0.000 HD
BRANCH   7  11
ATOM     11  C   UNL     1       4.407   3.765  16.545  0.00  0.00    +0.000 C 
BRANCH  11  12
ATOM     12  C   UNL     1       3.249   3.438  17.507  0.00  0.00    +0.000 C 
ATOM     13  F   UNL     1       2.649   2.257  17.249  0.00  0.00    +0.000 F 
ATOM     14  F   UNL     1       3.665   3.421  18.795  0.00  0.00    +0.000 F 
ATOM     15  F   UNL     1       2.286   4.391  17.419  0.00  0.00    +0.000 F 
ENDBRANCH  11  12
ENDBRANCH   7  11
ENDBRANCH   2   3
BRANCH   1  19
ATOM     16  C   UNL     1      10.989  13.088  19.452  0.00  0.00    +0.000 A 
ATOM     17  C   UNL     1      10.658  12.225  20.505  0.00  0.00    +0.000 A 
ATOM     18  C   UNL     1       9.968  11.031  20.262  0.00  0.00    +0.000 A 
ATOM     19  C   UNL     1       9.593  10.685  18.962  0.00  0.00    +0.000 A 
ATOM     20  C   UNL     1       9.887  11.556  17.911  0.00  0.00    +0.000 A 
ATOM     21  C   UNL     1      10.578  12.749  18.154  0.00  0.00    +0.000 A 
BRANCH  16  22
ATOM     22  C   UNL     1      11.761  14.368  19.705  0.00  0.00    +0.000 C 
BRANCH  22  23
ATOM     23  C   UNL     1      11.262  15.585  18.895  0.00  0.00    +0.000 C 
ATOM     24  C   UNL     1      12.332  16.680  18.862  0.00  0.00    +0.000 C 
BRANCH  23  28
ATOM     25  C   UNL     1       7.727  16.881  19.383  0.00  0.00    +0.000 C 
ATOM     26  C   UNL     1       8.895  16.279  18.653  0.00  0.00    +0.000 C 
ATOM     27  O   UNL     1       8.834  15.952  17.472  0.00  0.00    +0.000 OA
ATOM     28  N   UNL     1      10.017  16.126  19.436  0.00  0.00    +0.000 N 
ATOM     29  H   UNL     1      10.007  16.481  20.383  0.00  0.00    +0.000 HD
ENDBRANCH  23  28
ENDBRANCH  22  23
ENDBRANCH  16  22
ENDBRANCH   1  19
TORSDOF 7
ENDMDL
MODEL 3
REMARK VINA RESULT:      -7.9      1.558      2.033
REMARK  Name = 
REMARK  9 active torsions:
REMARK  status: ('A' for Active; 'I' for Inactive)
REMARK    1  A    between atoms: C_1  and  C_2
REMARK    2  A    between atoms: N_4  and  C_5
REMARK    3  A    between atoms: C_5  and  C_6
REMARK    4  A    between atoms: C_5  and  C_7
REMARK    5  A    between atoms: C_7  and  C_8
REMARK    6  A    between atoms: C_11  and  C_12
REMARK    7  A    between atoms: C_13  and  C_14
REMARK    8  A    between atoms: N_18  and  C_19
REMARK    9  A    between atoms: C_19  and  C_20
REMARK                            x       y       z     vdW  Elec       q    Type
REMARK                         _______ _______ _______ _____ _____    ______ ____
ROOT
ATOM      1  C   UNL     1       8.679   9.425  18.352  0.00  0.00    +0.000 C 
ATOM      2  C   UNL     1       8.096   8.396  18.114  0.00  0.00    +0.000 C 
ENDROOT
BRANCH   2   3
ATOM      3  C   UNL     1       7.388   7.177  17.890  0.00  0.00    +0.000 A 
ATOM      4  C   UNL     1       7.687   6.014  18.561  0.00  0.00    +0.000 A 
ATOM      5  N   UNL     1       7.071   4.832  18.330  0.00  0.00    +0.000 NA
ATOM      6  C   UNL     1       6.113   4.812  17.394  0.00  0.00    +0.000 A 
ATOM      7  N   UNL     1       5.540   3.575  17.158  0.00  0.00    +0.000 N 
ATOM      8  N   UNL     1       5.720   5.891  16.706  0.00  0.00    +0.000 NA
ATOM      9  C   UNL     1       6.376   7.052  16.963  0.00  0.00    +0.000 A 
ATOM     10  H   UNL     1       5.788   2.987  17.949  0.00  0.00    +0.000 HD
BRANCH   7  11
ATOM     11  C   UNL     1       4.123   3.575  16.773  0.00  0.00    +0.000 C 
BRANCH  11  12
ATOM     12  C   UNL     1       3.100   3.081  17.813  0.00  0.00    +0.000 C 
ATOM     13  F   UNL     1       3.550   3.141  19.085  0.00  0.00    +0.000 F 
ATOM     14  F   UNL     1       1.946   3.784  17.746  0.00  0.00    +0.000 F 
ATOM     15  F   UNL     1       2.783   1.782  17.575  0.00  0.00    +0.000 F 
ENDBRANCH  11  12
ENDBRANCH   7  11
ENDBRANCH   2   3
BRANCH   1  19
ATOM     16  C   UNL     1      10.599  13.063  19.440  0.00  0.00    +0.000 A 
ATOM     17  C   UNL     1       9.779  12.997  18.305  0.00  0.00    +0.000 A 
ATOM     18  C   UNL     1       9.162  11.795  17.938  0.00  0.00    +0.000 A 
ATOM     19  C   UNL     1       9.360  10.639  18.696  0.00  0.00    +0.000 A 
ATOM     20  C   UNL     1      10.203  10.688  19.808  0.00  0.00    +0.000 A 
ATOM     21  C   UNL     1      10.820  11.890  20.175  0.00  0.00    +0.000 A 
BRANCH  16  22
ATOM     22  C   UNL     1      11.247  14.368  19.858  0.00  0.00    +0.000 C 
BRANCH  22  23
ATOM     23  C   UNL     1      10.326  15.306  20.670  0.00  0.00    +0.000 C 
ATOM     24  C   UNL     1      11.000  16.664  20.883  0.00  0.00    +0.000 C 
BRANCH  23  28
ATOM     25  C   UNL     1       8.503  13.719  23.598  0.00  0.00    +0.000 C 
ATOM     26  C   UNL     1       8.693  14.244  22.202  0.00  0.00    +0.000 C 
ATOM     27  O   UNL     1       7.795  14.227  21.366  0.00  0.00    +0.000 OA
ATOM     28  N   UNL     1       9.959  14.727  21.960  0.00  0.00    +0.000 N 
ATOM     29  H   UNL     1      10.624  14.766  22.721  0.00  0.00    +0.000 HD
ENDBRANCH  23  28
ENDBRANCH  22  23
ENDBRANCH  16  22
ENDBRANCH   1  19
TORSDOF 7
ENDMDL
MODEL 4
REMARK VINA RESULT:      -7.8      1.167      1.621
REMARK  Name = 
REMARK  9 active torsions:
REMARK  status: ('A' for Active; 'I' for Inactive)
REMARK    1  A    between atoms: C_1  and  C_2
REMARK    2  A    between atoms: N_4  and  C_5
REMARK    3  A    between atoms: C_5  and  C_6
REMARK    4  A    between atoms: C_5  and  C_7
REMARK    5  A    between atoms: C_7  and  C_8
REMARK    6  A    between atoms: C_11  and  C_12
REMARK    7  A    between atoms: C_13  and  C_14
REMARK    8  A    between atoms: N_18  and  C_19
REMARK    9  A    between atoms: C_19  and  C_20
REMARK                            x       y       z     vdW  Elec       q    Type
REMARK                         _______ _______ _______ _____ _____    ______ ____
ROOT
ATOM      1  C   UNL     1       8.782   9.268  18.641  0.00  0.00    +0.000 C 
ATOM      2  C   UNL     1       8.217   8.237  18.372  0.00  0.00    +0.000 C 
ENDROOT
BRANCH   2   3
ATOM      3  C   UNL     1       7.496   7.047  18.049  0.00  0.00    +0.000 A 
ATOM      4  C   UNL     1       7.804   5.824  18.596  0.00  0.00    +0.000 A 
ATOM      5  N   UNL     1       7.174   4.673  18.267  0.00  0.00    +0.000 NA
ATOM      6  C   UNL     1       6.194   4.747  17.359  0.00  0.00    +0.000 A 
ATOM      7  N   UNL     1       5.607   3.541  17.019  0.00  0.00    +0.000 N 
ATOM      8  N   UNL     1       5.791   5.889  16.789  0.00  0.00    +0.000 NA
ATOM      9  C   UNL     1       6.461   7.017  17.140  0.00  0.00    +0.000 A 
ATOM     10  H   UNL     1       5.871   2.878  17.742  0.00  0.00    +0.000 HD
BRANCH   7  11
ATOM     11  C   UNL     1       4.181   3.584  16.671  0.00  0.00    +0.000 C 
BRANCH  11  12
ATOM     12  C   UNL     1       3.169   3.166  17.755  0.00  0.00    +0.000 C 
ATOM     13  F   UNL     1       2.425   4.190  18.224  0.00  0.00    +0.000 F 
ATOM     14  F   UNL     1       2.324   2.211  17.303  0.00  0.00    +0.000 F 
ATOM     15  F   UNL     1       3.822   2.639  18.824  0.00  0.00    +0.000 F 
ENDBRANCH  11  12
ENDBRANCH   7  11
ENDBRANCH   2   3
BRANCH   1  19
ATOM     16  C   UNL     1      10.719  12.931  19.606  0.00  0.00    +0.000 A 
ATOM     17  C   UNL     1      10.291  12.059  20.616  0.00  0.00    +0.000 A 
ATOM     18  C   UNL     1       9.638  10.862  20.298  0.00  0.00    +0.000 A 
ATOM     19  C   UNL     1       9.397  10.522  18.966  0.00  0.00    +0.000 A 
ATOM     20  C   UNL     1       9.787  11.402  17.954  0.00  0.00    +0.000 A 
ATOM     21  C   UNL     1      10.441  12.599  18.272  0.00  0.00    +0.000 A 
BRANCH  16  22
ATOM     22  C   UNL     1      11.452  14.215  19.943  0.00  0.00    +0.000 C 
BRANCH  22  23
ATOM     23  C   UNL     1      10.559  15.476  19.954  0.00  0.00    +0.000 C 
ATOM     24  C   UNL     1       9.091  15.090  20.150  0.00  0.00    +0.000 C 
BRANCH  23  28
ATOM     25  C   UNL     1      10.937  18.251  17.390  0.00  0.00    +0.000 C 
ATOM     26  C   UNL     1      10.829  17.628  18.755  0.00  0.00    +0.000 C 
ATOM     27  O   UNL     1      10.859  18.293  19.785  0.00  0.00    +0.000 OA
ATOM     28  N   UNL     1      10.706  16.257  18.728  0.00  0.00    +0.000 N 
ATOM     29  H   UNL     1      10.624  15.788  17.835  0.00  0.00    +0.000 HD
ENDBRANCH  23  28
ENDBRANCH  22  23
ENDBRANCH  16  22
ENDBRANCH   1  19
TORSDOF 7
ENDMDL
MODEL 5
REMARK VINA RESULT:      -7.8      6.181     11.132
REMARK  Name = 
REMARK  9 active torsions:
REMARK  status: ('A' for Active; 'I' for Inactive)
REMARK    1  A    between atoms: C_1  and  C_2
REMARK    2  A    between atoms: N_4  and  C_5
REMARK    3  A    between atoms: C_5  and  C_6
REMARK    4  A    between atoms: C_5  and  C_7
REMARK    5  A    between atoms: C_7  and  C_8
REMARK    6  A    between atoms: C_11  and  C_12
REMARK    7  A    between atoms: C_13  and  C_14
REMARK    8  A    between atoms: N_18  and  C_19
REMARK    9  A    between atoms: C_19  and  C_20
REMARK                            x       y       z     vdW  Elec       q    Type
REMARK                         _______ _______ _______ _____ _____    ______ ____
ROOT
ATOM      1  C   UNL     1       7.835   8.393  17.947  0.00  0.00    +0.000 C 
ATOM      2  C   UNL     1       8.460   9.385  18.232  0.00  0.00    +0.000 C 
ENDROOT
BRANCH   2   3
ATOM      3  C   UNL     1       9.223  10.527  18.618  0.00  0.00    +0.000 A 
ATOM      4  C   UNL     1       9.875  10.610  19.826  0.00  0.00    +0.000 A 
ATOM      5  N   UNL     1      10.559  11.701  20.239  0.00  0.00    +0.000 NA
ATOM      6  C   UNL     1      10.597  12.751  19.410  0.00  0.00    +0.000 A 
ATOM      7  N   UNL     1      11.269  13.862  19.890  0.00  0.00    +0.000 N 
ATOM      8  N   UNL     1      10.028  12.767  18.199  0.00  0.00    +0.000 NA
ATOM      9  C   UNL     1       9.342  11.654  17.833  0.00  0.00    +0.000 A 
ATOM     10  H   UNL     1      11.828  13.543  20.677  0.00  0.00    +0.000 HD
BRANCH   7  11
ATOM     11  C   UNL     1      11.967  14.685  18.894  0.00  0.00    +0.000 C 
BRANCH  11  12
ATOM     12  C   UNL     1      11.376  16.071  18.574  0.00  0.00    +0.000 C 
ATOM     13  F   UNL     1      10.412  16.461  19.435  0.00  0.00    +0.000 F 
ATOM     14  F   UNL     1      12.333  17.027  18.560  0.00  0.00    +0.000 F 
ATOM     15  F   UNL     1      10.812  16.063  17.338  0.00  0.00    +0.000 F 
ENDBRANCH  11  12
ENDBRANCH   7  11
ENDBRANCH   2   3
BRANCH   1  19
ATOM     16  C   UNL     1       5.620   4.836  17.205  0.00  0.00    +0.000 A 
ATOM     17  C   UNL     1       6.777   4.809  17.995  0.00  0.00    +0.000 A 
ATOM     18  C   UNL     1       7.515   5.976  18.224  0.00  0.00    +0.000 A 
ATOM     19  C   UNL     1       7.111   7.188  17.661  0.00  0.00    +0.000 A 
ATOM     20  C   UNL     1       5.979   7.219  16.844  0.00  0.00    +0.000 A 
ATOM     21  C   UNL     1       5.241   6.051  16.616  0.00  0.00    +0.000 A 
BRANCH  16  22
ATOM     22  C   UNL     1       4.801   3.581  16.977  0.00  0.00    +0.000 C 
BRANCH  22  23
ATOM     23  C   UNL     1       4.010   3.102  18.214  0.00  0.00    +0.000 C 
ATOM     24  C   UNL     1       3.115   1.915  17.849  0.00  0.00    +0.000 C 
BRANCH  23  28
ATOM     25  C   UNL     1       1.900   5.295  20.485  0.00  0.00    +0.000 C 
ATOM     26  C   UNL     1       2.741   4.113  20.088  0.00  0.00    +0.000 C 
ATOM     27  O   UNL     1       2.990   3.195  20.862  0.00  0.00    +0.000 OA
ATOM     28  N   UNL     1       3.202   4.173  18.791  0.00  0.00    +0.000 N 
ATOM     29  H   UNL     1       2.897   4.933  18.197  0.00  0.00    +0.000 HD
ENDBRANCH  23  28
ENDBRANCH  22  23
ENDBRANCH  16  22
ENDBRANCH   1  19
TORSDOF 7
ENDMDL
MODEL 6
REMARK VINA RESULT:      -7.7      1.372      2.206
REMARK  Name = 
REMARK  9 active torsions:
REMARK  status: ('A' for Active; 'I' for Inactive)
REMARK    1  A    between atoms: C_1  and  C_2
REMARK    2  A    between atoms: N_4  and  C_5
REMARK    3  A    between atoms: C_5  and  C_6
REMARK    4  A    between atoms: C_5  and  C_7
REMARK    5  A    between atoms: C_7  and  C_8
REMARK    6  A    between atoms: C_11  and  C_12
REMARK    7  A    between atoms: C_13  and  C_14
REMARK    8  A    between atoms: N_18  and  C_19
REMARK    9  A    between atoms: C_19  and  C_20
REMARK                            x       y       z     vdW  Elec       q    Type
REMARK                         _______ _______ _______ _____ _____    ______ ____
ROOT
ATOM      1  C   UNL     1       8.696   9.336  18.376  0.00  0.00    +0.000 C 
ATOM      2  C   UNL     1       8.076   8.328  18.140  0.00  0.00    +0.000 C 
ENDROOT
BRANCH   2   3
ATOM      3  C   UNL     1       7.369   7.110  17.909  0.00  0.00    +0.000 A 
ATOM      4  C   UNL     1       7.748   5.915  18.475  0.00  0.00    +0.000 A 
ATOM      5  N   UNL     1       7.131   4.737  18.230  0.00  0.00    +0.000 NA
ATOM      6  C   UNL     1       6.090   4.753  17.389  0.00  0.00    +0.000 A 
ATOM      7  N   UNL     1       5.516   3.520  17.131  0.00  0.00    +0.000 N 
ATOM      8  N   UNL     1       5.617   5.862  16.808  0.00  0.00    +0.000 NA
ATOM      9  C   UNL     1       6.277   7.019  17.074  0.00  0.00    +0.000 A 
ATOM     10  H   UNL     1       5.847   2.891  17.857  0.00  0.00    +0.000 HD
BRANCH   7  11
ATOM     11  C   UNL     1       4.069   3.513  16.880  0.00  0.00    +0.000 C 
BRANCH  11  12
ATOM     12  C   UNL     1       3.148   3.055  18.027  0.00  0.00    +0.000 C 
ATOM     13  F   UNL     1       2.419   4.054  18.567  0.00  0.00    +0.000 F 
ATOM     14  F   UNL     1       2.293   2.088  17.621  0.00  0.00    +0.000 F 
ATOM     15  F   UNL     1       3.888   2.526  19.036  0.00  0.00    +0.000 F 
ENDBRANCH  11  12
ENDBRANCH   7  11
ENDBRANCH   2   3
BRANCH   1  19
ATOM     16  C   UNL     1      11.078  12.722  19.357  0.00  0.00    +0.000 A 
ATOM     17  C   UNL     1      10.413  12.000  20.357  0.00  0.00    +0.000 A 
ATOM     18  C   UNL     1       9.614  10.897  20.031  0.00  0.00    +0.000 A 
ATOM     19  C   UNL     1       9.465  10.502  18.700  0.00  0.00    +0.000 A 
ATOM     20  C   UNL     1      10.096  11.237  17.695  0.00  0.00    +0.000 A 
ATOM     21  C   UNL     1      10.894  12.340  18.021  0.00  0.00    +0.000 A 
BRANCH  16  22
ATOM     22  C   UNL     1      11.967  13.900  19.706  0.00  0.00    +0.000 C 
BRANCH  22  23
ATOM     23  C   UNL     1      11.208  15.225  19.939  0.00  0.00    +0.000 C 
ATOM     24  C   UNL     1      10.935  15.926  18.605  0.00  0.00    +0.000 C 
BRANCH  23  28
ATOM     25  C   UNL     1      12.214  17.778  22.562  0.00  0.00    +0.000 C 
ATOM     26  C   UNL     1      11.291  16.899  21.765  0.00  0.00    +0.000 C 
ATOM     27  O   UNL     1      10.079  16.881  21.949  0.00  0.00    +0.000 OA
ATOM     28  N   UNL     1      11.939  16.122  20.830  0.00  0.00    +0.000 N 
ATOM     29  H   UNL     1      12.934  16.243  20.695  0.00  0.00    +0.000 HD
ENDBRANCH  23  28
ENDBRANCH  22  23
ENDBRANCH  16  22
ENDBRANCH   1  19
TORSDOF 7
ENDMDL
MODEL 7
REMARK VINA RESULT:      -7.7      6.053     11.143
REMARK  Name = 
REMARK  9 active torsions:
REMARK  status: ('A' for Active; 'I' for Inactive)
REMARK    1  A    between atoms: C_1  and  C_2
REMARK    2  A    between atoms: N_4  and  C_5
REMARK    3  A    between atoms: C_5  and  C_6
REMARK    4  A    between atoms: C_5  and  C_7
REMARK    5  A    between atoms: C_7  and  C_8
REMARK    6  A    between atoms: C_11  and  C_12
REMARK    7  A    between atoms: C_13  and  C_14
REMARK    8  A    between atoms: N_18  and  C_19
REMARK    9  A    between atoms: C_19  and  C_20
REMARK                            x       y       z     vdW  Elec       q    Type
REMARK                         _______ _______ _______ _____ _____    ______ ____
ROOT
ATOM      1  C   UNL     1       7.784   8.400  17.924  0.00  0.00    +0.000 C 
ATOM      2  C   UNL     1       8.408   9.422  18.070  0.00  0.00    +0.000 C 
ENDROOT
BRANCH   2   3
ATOM      3  C   UNL     1       9.094  10.660  18.258  0.00  0.00    +0.000 A 
ATOM      4  C   UNL     1      10.099  10.817  19.182  0.00  0.00    +0.000 A 
ATOM      5  N   UNL     1      10.728  11.990  19.419  0.00  0.00    +0.000 NA
ATOM      6  C   UNL     1      10.340  13.050  18.699  0.00  0.00    +0.000 A 
ATOM      7  N   UNL     1      10.977  14.240  19.004  0.00  0.00    +0.000 N 
ATOM      8  N   UNL     1       9.396  13.003  17.752  0.00  0.00    +0.000 NA
ATOM      9  C   UNL     1       8.784  11.806  17.558  0.00  0.00    +0.000 A 
ATOM     10  H   UNL     1      11.807  13.994  19.536  0.00  0.00    +0.000 HD
BRANCH   7  11
ATOM     11  C   UNL     1      11.176  15.178  17.892  0.00  0.00    +0.000 C 
BRANCH  11  12
ATOM     12  C   UNL     1      10.298  16.443  17.860  0.00  0.00    +0.000 C 
ATOM     13  F   UNL     1       9.048  16.223  17.399  0.00  0.00    +0.000 F 
ATOM     14  F   UNL     1      10.196  17.007  19.085  0.00  0.00    +0.000 F 
ATOM     15  F   UNL     1      10.853  17.376  17.044  0.00  0.00    +0.000 F 
ENDBRANCH  11  12
ENDBRANCH   7  11
ENDBRANCH   2   3
BRANCH   1  19
ATOM     16  C   UNL     1       5.485   4.871  17.321  0.00  0.00    +0.000 A 
ATOM     17  C   UNL     1       5.059   6.101  16.802  0.00  0.00    +0.000 A 
ATOM     18  C   UNL     1       5.808   7.265  17.016  0.00  0.00    +0.000 A 
ATOM     19  C   UNL     1       6.989   7.218  17.758  0.00  0.00    +0.000 A 
ATOM     20  C   UNL     1       7.402   6.003  18.309  0.00  0.00    +0.000 A 
ATOM     21  C   UNL     1       6.654   4.839  18.094  0.00  0.00    +0.000 A 
BRANCH  16  22
ATOM     22  C   UNL     1       4.694   3.602  17.069  0.00  0.00    +0.000 C 
BRANCH  22  23
ATOM     23  C   UNL     1       4.045   2.993  18.331  0.00  0.00    +0.000 C 
ATOM     24  C   UNL     1       3.524   1.584  18.037  0.00  0.00    +0.000 C 
BRANCH  23  28
ATOM     25  C   UNL     1       1.380   4.651  20.468  0.00  0.00    +0.000 C 
ATOM     26  C   UNL     1       2.529   3.735  20.146  0.00  0.00    +0.000 C 
ATOM     27  O   UNL     1       3.029   2.989  20.982  0.00  0.00    +0.000 OA
ATOM     28  N   UNL     1       2.959   3.826  18.841  0.00  0.00    +0.000 N 
ATOM     29  H   UNL     1       2.451   4.418  18.196  0.00  0.00    +0.000 HD
ENDBRANCH  23  28
ENDBRANCH  22  23
ENDBRANCH  16  22
ENDBRANCH   1  19
TORSDOF 7
ENDMDL
MODEL 8
REMARK VINA RESULT:      -7.6      5.994     11.054
REMARK  Name = 
REMARK  9 active torsions:
REMARK  status: ('A' for Active; 'I' for Inactive)
REMARK    1  A    between atoms: C_1  and  C_2
REMARK    2  A    between atoms: N_4  and  C_5
REMARK    3  A    between atoms: C_5  and  C_6
REMARK    4  A    between atoms: C_5  and  C_7
REMARK    5  A    between atoms: C_7  and  C_8
REMARK    6  A    between atoms: C_11  and  C_12
REMARK    7  A    between atoms: C_13  and  C_14
REMARK    8  A    between atoms: N_18  and  C_19
REMARK    9  A    between atoms: C_19  and  C_20
REMARK                            x       y       z     vdW  Elec       q    Type
REMARK                         _______ _______ _______ _____ _____    ______ ____
ROOT
ATOM      1  C   UNL     1       7.837   8.313  17.889  0.00  0.00    +0.000 C 
ATOM      2  C   UNL     1       8.419   9.349  18.095  0.00  0.00    +0.000 C 
ENDROOT
BRANCH   2   3
ATOM      3  C   UNL     1       9.058  10.606  18.320  0.00  0.00    +0.000 A 
ATOM      4  C   UNL     1       8.642  11.768  17.714  0.00  0.00    +0.000 A 
ATOM      5  N   UNL     1       9.261  12.960  17.866  0.00  0.00    +0.000 NA
ATOM      6  C   UNL     1      10.338  12.994  18.660  0.00  0.00    +0.000 A 
ATOM      7  N   UNL     1      10.968  14.223  18.753  0.00  0.00    +0.000 N 
ATOM      8  N   UNL     1      10.810  11.932  19.324  0.00  0.00    +0.000 NA
ATOM      9  C   UNL     1      10.162  10.755  19.130  0.00  0.00    +0.000 A 
ATOM     10  H   UNL     1      10.309  14.912  18.401  0.00  0.00    +0.000 HD
BRANCH   7  11
ATOM     11  C   UNL     1      11.604  14.536  20.039  0.00  0.00    +0.000 C 
BRANCH  11  12
ATOM     12  C   UNL     1      10.828  15.438  21.018  0.00  0.00    +0.000 C 
ATOM     13  F   UNL     1      10.451  14.809  22.150  0.00  0.00    +0.000 F 
ATOM     14  F   UNL     1      11.552  16.527  21.368  0.00  0.00    +0.000 F 
ATOM     15  F   UNL     1       9.692  15.895  20.430  0.00  0.00    +0.000 F 
ENDBRANCH  11  12
ENDBRANCH   7  11
ENDBRANCH   2   3
BRANCH   1  19
ATOM     16  C   UNL     1       5.581   4.771  17.201  0.00  0.00    +0.000 A 
ATOM     17  C   UNL     1       6.781   4.728  17.925  0.00  0.00    +0.000 A 
ATOM     18  C   UNL     1       7.531   5.891  18.136  0.00  0.00    +0.000 A 
ATOM     19  C   UNL     1       7.097   7.114  17.620  0.00  0.00    +0.000 A 
ATOM     20  C   UNL     1       5.922   7.160  16.868  0.00  0.00    +0.000 A 
ATOM     21  C   UNL     1       5.171   5.997  16.658  0.00  0.00    +0.000 A 
BRANCH  16  22
ATOM     22  C   UNL     1       4.750   3.520  16.994  0.00  0.00    +0.000 C 
BRANCH  22  23
ATOM     23  C   UNL     1       3.947   3.075  18.236  0.00  0.00    +0.000 C 
ATOM     24  C   UNL     1       3.017   1.911  17.882  0.00  0.00    +0.000 C 
BRANCH  23  28
ATOM     25  C   UNL     1       1.929   5.360  20.499  0.00  0.00    +0.000 C 
ATOM     26  C   UNL     1       2.740   4.154  20.113  0.00  0.00    +0.000 C 
ATOM     27  O   UNL     1       2.993   3.251  20.903  0.00  0.00    +0.000 OA
ATOM     28  N   UNL     1       3.171   4.174  18.805  0.00  0.00    +0.000 N 
ATOM     29  H   UNL     1       2.865   4.924  18.198  0.00  0.00    +0.000 HD
ENDBRANCH  23  28
ENDBRANCH  22  23
ENDBRANCH  16  22
ENDBRANCH   1  19
TORSDOF 7
ENDMDL
MODEL 9
REMARK VINA RESULT:      -7.6      6.003     10.977
REMARK  Name = 
REMARK  9 active torsions:
REMARK  status: ('A' for Active; 'I' for Inactive)
REMARK    1  A    between atoms: C_1  and  C_2
REMARK    2  A    between atoms: N_4  and  C_5
REMARK    3  A    between atoms: C_5  and  C_6
REMARK    4  A    between atoms: C_5  and  C_7
REMARK    5  A    between atoms: C_7  and  C_8
REMARK    6  A    between atoms: C_11  and  C_12
REMARK    7  A    between atoms: C_13  and  C_14
REMARK    8  A    between atoms: N_18  and  C_19
REMARK    9  A    between atoms: C_19  and  C_20
REMARK                            x       y       z     vdW  Elec       q    Type
REMARK                         _______ _______ _______ _____ _____    ______ ____
ROOT
ATOM      1  C   UNL     1       7.910   8.273  18.024  0.00  0.00    +0.000 C 
ATOM      2  C   UNL     1       8.541   9.258  18.320  0.00  0.00    +0.000 C 
ENDROOT
BRANCH   2   3
ATOM      3  C   UNL     1       9.237  10.446  18.695  0.00  0.00    +0.000 A 
ATOM      4  C   UNL     1       9.666  10.678  19.981  0.00  0.00    +0.000 A 
ATOM      5  N   UNL     1      10.279  11.817  20.377  0.00  0.00    +0.000 NA
ATOM      6  C   UNL     1      10.476  12.761  19.449  0.00  0.00    +0.000 A 
ATOM      7  N   UNL     1      11.065  13.928  19.905  0.00  0.00    +0.000 N 
ATOM      8  N   UNL     1      10.129  12.628  18.163  0.00  0.00    +0.000 NA
ATOM      9  C   UNL     1       9.506  11.472  17.816  0.00  0.00    +0.000 A 
ATOM     10  H   UNL     1      11.472  13.710  20.810  0.00  0.00    +0.000 HD
BRANCH   7  11
ATOM     11  C   UNL     1      11.937  14.633  18.957  0.00  0.00    +0.000 C 
BRANCH  11  12
ATOM     12  C   UNL     1      11.364  15.873  18.247  0.00  0.00    +0.000 C 
ATOM     13  F   UNL     1      12.200  16.933  18.248  0.00  0.00    +0.000 F 
ATOM     14  F   UNL     1      11.037  15.603  16.962  0.00  0.00    +0.000 F 
ATOM     15  F   UNL     1      10.223  16.279  18.864  0.00  0.00    +0.000 F 
ENDBRANCH  11  12
ENDBRANCH   7  11
ENDBRANCH   2   3
BRANCH   1  19
ATOM     16  C   UNL     1       5.475   4.894  17.155  0.00  0.00    +0.000 A 
ATOM     17  C   UNL     1       6.706   4.742  17.807  0.00  0.00    +0.000 A 
ATOM     18  C   UNL     1       7.515   5.853  18.077  0.00  0.00    +0.000 A 
ATOM     19  C   UNL     1       7.108   7.132  17.693  0.00  0.00    +0.000 A 
ATOM     20  C   UNL     1       5.899   7.288  17.011  0.00  0.00    +0.000 A 
ATOM     21  C   UNL     1       5.091   6.178  16.742  0.00  0.00    +0.000 A 
BRANCH  16  22
ATOM     22  C   UNL     1       4.582   3.698  16.886  0.00  0.00    +0.000 C 
BRANCH  22  23
ATOM     23  C   UNL     1       4.025   3.019  18.157  0.00  0.00    +0.000 C 
ATOM     24  C   UNL     1       2.899   2.048  17.793  0.00  0.00    +0.000 C 
BRANCH  23  28
ATOM     25  C   UNL     1       2.122   5.750  19.984  0.00  0.00    +0.000 C 
ATOM     26  C   UNL     1       2.441   4.785  18.876  0.00  0.00    +0.000 C 
ATOM     27  O   UNL     1       1.769   4.715  17.852  0.00  0.00    +0.000 OA
ATOM     28  N   UNL     1       3.541   3.997  19.129  0.00  0.00    +0.000 N 
ATOM     29  H   UNL     1       4.081   4.161  19.968  0.00  0.00    +0.000 HD
ENDBRANCH  23  28
ENDBRANCH  22  23
ENDBRANCH  16  22
ENDBRANCH   1  19
TORSDOF 7
ENDMDL
