MODEL 1
REMARK VINA RESULT:      -8.0      0.000      0.000
REMARK  Name = 
REMARK  4 active torsions:
REMARK  status: ('A' for Active; 'I' for Inactive)
REMARK    1  A    between atoms: C_5  and  C_6
REMARK    2  A    between atoms: N_12  and  N_13
REMARK    3  A    between atoms: C_14  and  C_15
REMARK    4  A    between atoms: C_18  and  N_19
REMARK                            x       y       z     vdW  Elec       q    Type
REMARK                         _______ _______ _______ _____ _____    ______ ____
ROOT
ATOM      1  O   UNL     1       5.393   6.911  15.896  0.00  0.00    +0.000 OA
ATOM      2  C   UNL     1       4.943   5.886  16.384  0.00  0.00    +0.000 A 
ATOM      3  N   UNL     1       5.216   4.601  15.914  0.00  0.00    +0.000 N 
ATOM      4  N   UNL     1       4.587   3.651  16.670  0.00  0.00    +0.000 NA
ATOM      5  C   UNL     1       3.929   4.337  17.568  0.00  0.00    +0.000 A 
ATOM      6  N   UNL     1       4.100   5.695  17.468  0.00  0.00    +0.000 N 
ATOM      7  H   UNL     1       5.799   4.372  15.121  0.00  0.00    +0.000 HD
ENDROOT
BRANCH   5   8
ATOM      8  C   UNL     1       3.064   3.698  18.582  0.00  0.00    +0.000 A 
ATOM      9  C   UNL     1       1.729   3.426  18.252  0.00  0.00    +0.000 A 
ATOM     10  C   UNL     1       0.859   2.906  19.213  0.00  0.00    +0.000 A 
ATOM     11  C   UNL     1       1.315   2.666  20.510  0.00  0.00    +0.000 A 
ATOM     12  C   UNL     1       2.639   2.939  20.845  0.00  0.00    +0.000 A 
ATOM     13  C   UNL     1       3.510   3.459  19.887  0.00  0.00    +0.000 A 
ENDBRANCH   5   8
BRANCH   6  14
ATOM     14  N   UNL     1       3.612   6.601  18.365  0.00  0.00    +0.000 NA
ATOM     15  C   UNL     1       2.416   7.067  18.217  0.00  0.00    +0.000 C 
BRANCH  15  16
ATOM     16  C   UNL     1       1.871   8.057  19.173  0.00  0.00    +0.000 A 
ATOM     17  C   UNL     1       1.508   9.340  18.742  0.00  0.00    +0.000 A 
ATOM     18  C   UNL     1       0.997  10.266  19.654  0.00  0.00    +0.000 A 
ATOM     19  C   UNL     1       0.847   9.899  20.998  0.00  0.00    +0.000 A 
ATOM     20  C   UNL     1       1.209   8.616  21.434  0.00  0.00    +0.000 A 
ATOM     21  C   UNL     1       1.723   7.693  20.515  0.00  0.00    +0.000 A 
BRANCH  19  22
ATOM     22  N   UNL     1       0.301  10.869  21.959  0.00  0.00    +0.000 N 
ATOM     23  O   UNL     1      -0.067  10.442  23.060  0.00  0.00    +0.000 OA
ATOM     24  O   UNL     1       0.244  12.056  21.605  0.00  0.00    +0.000 OA
ENDBRANCH  19  22
ENDBRANCH  15  16
ENDBRANCH   6  14
TORSDOF 4
ENDMDL
MODEL 2
REMARK VINA RESULT:      -8.0      0.272      1.050
REMARK  Name = 
REMARK  4 active torsions:
REMARK  status: ('A' for Active; 'I' for Inactive)
REMARK    1  A    between atoms: C_5  and  C_6
REMARK    2  A    between atoms: N_12  and  N_13
REMARK    3  A    between atoms: C_14  and  C_15
REMARK    4  A    between atoms: C_18  and  N_19
REMARK                            x       y       z     vdW  Elec       q    Type
REMARK                         _______ _______ _______ _____ _____    ______ ____
ROOT
ATOM      1  O   UNL     1       5.447   6.971  15.948  0.00  0.00    +0.000 OA
ATOM      2  C   UNL     1       5.017   5.923  16.406  0.00  0.00    +0.000 A 
ATOM      3  N   UNL     1       5.358   4.656  15.933  0.00  0.00    +0.000 N 
ATOM      4  N   UNL     1       4.736   3.674  16.652  0.00  0.00    +0.000 NA
ATOM      5  C   UNL     1       4.016   4.323  17.531  0.00  0.00    +0.000 A 
ATOM      6  N   UNL     1       4.140   5.688  17.453  0.00  0.00    +0.000 N 
ATOM      7  H   UNL     1       5.980   4.459  15.161  0.00  0.00    +0.000 HD
ENDROOT
BRANCH   5   8
ATOM      8  C   UNL     1       3.137   3.640  18.503  0.00  0.00    +0.000 A 
ATOM      9  C   UNL     1       1.808   3.379  18.139  0.00  0.00    +0.000 A 
ATOM     10  C   UNL     1       0.924   2.817  19.063  0.00  0.00    +0.000 A 
ATOM     11  C   UNL     1       1.359   2.522  20.355  0.00  0.00    +0.000 A 
ATOM     12  C   UNL     1       2.677   2.783  20.724  0.00  0.00    +0.000 A 
ATOM     13  C   UNL     1       3.563   3.345  19.803  0.00  0.00    +0.000 A 
ENDBRANCH   5   8
BRANCH   6  14
ATOM     14  N   UNL     1       3.582   6.564  18.340  0.00  0.00    +0.000 NA
ATOM     15  C   UNL     1       2.526   7.227  18.006  0.00  0.00    +0.000 C 
BRANCH  15  16
ATOM     16  C   UNL     1       1.911   8.189  18.948  0.00  0.00    +0.000 A 
ATOM     17  C   UNL     1       1.709   7.843  20.290  0.00  0.00    +0.000 A 
ATOM     18  C   UNL     1       1.126   8.758  21.169  0.00  0.00    +0.000 A 
ATOM     19  C   UNL     1       0.750  10.023  20.697  0.00  0.00    +0.000 A 
ATOM     20  C   UNL     1       0.949  10.374  19.353  0.00  0.00    +0.000 A 
ATOM     21  C   UNL     1       1.533   9.451  18.478  0.00  0.00    +0.000 A 
BRANCH  19  22
ATOM     22  N   UNL     1       0.142  10.992  21.621  0.00  0.00    +0.000 N 
ATOM     23  O   UNL     1       0.111  10.697  22.823  0.00  0.00    +0.000 OA
ATOM     24  O   UNL     1      -0.301  12.044  21.139  0.00  0.00    +0.000 OA
ENDBRANCH  19  22
ENDBRANCH  15  16
ENDBRANCH   6  14
TORSDOF 4
ENDMDL
MODEL 3
REMARK VINA RESULT:      -7.9      2.418      3.921
REMARK  Name = 
REMARK  4 active torsions:
REMARK  status: ('A' for Active; 'I' for Inactive)
REMARK    1  A    between atoms: C_5  and  C_6
REMARK    2  A    between atoms: N_12  and  N_13
REMARK    3  A    between atoms: C_14  and  C_15
REMARK    4  A    between atoms: C_18  and  N_19
REMARK                            x       y       z     vdW  Elec       q    Type
REMARK                         _______ _______ _______ _____ _____    ______ ____
ROOT
ATOM      1  O   UNL     1       0.608   2.613  19.201  0.00  0.00    +0.000 OA
ATOM      2  C   UNL     1       1.733   2.651  18.728  0.00  0.00    +0.000 A 
ATOM      3  N   UNL     1       2.521   1.528  18.474  0.00  0.00    +0.000 N 
ATOM      4  N   UNL     1       3.724   1.879  17.926  0.00  0.00    +0.000 NA
ATOM      5  C   UNL     1       3.682   3.185  17.864  0.00  0.00    +0.000 A 
ATOM      6  N   UNL     1       2.506   3.727  18.321  0.00  0.00    +0.000 N 
ATOM      7  H   UNL     1       2.264   0.569  18.661  0.00  0.00    +0.000 HD
ENDROOT
BRANCH   5   8
ATOM      8  C   UNL     1       4.812   3.995  17.364  0.00  0.00    +0.000 A 
ATOM      9  C   UNL     1       5.747   4.487  18.286  0.00  0.00    +0.000 A 
ATOM     10  C   UNL     1       6.776   5.330  17.863  0.00  0.00    +0.000 A 
ATOM     11  C   UNL     1       6.871   5.694  16.519  0.00  0.00    +0.000 A 
ATOM     12  C   UNL     1       5.943   5.213  15.599  0.00  0.00    +0.000 A 
ATOM     13  C   UNL     1       4.913   4.370  16.020  0.00  0.00    +0.000 A 
ENDBRANCH   5   8
BRANCH   6  14
ATOM     14  N   UNL     1       2.188   5.052  18.241  0.00  0.00    +0.000 NA
ATOM     15  C   UNL     1       2.401   5.824  19.255  0.00  0.00    +0.000 C 
BRANCH  15  16
ATOM     16  C   UNL     1       2.054   7.261  19.193  0.00  0.00    +0.000 A 
ATOM     17  C   UNL     1       2.245   7.992  18.013  0.00  0.00    +0.000 A 
ATOM     18  C   UNL     1       1.916   9.348  17.969  0.00  0.00    +0.000 A 
ATOM     19  C   UNL     1       1.390   9.967  19.111  0.00  0.00    +0.000 A 
ATOM     20  C   UNL     1       1.197   9.240  20.295  0.00  0.00    +0.000 A 
ATOM     21  C   UNL     1       1.531   7.881  20.333  0.00  0.00    +0.000 A 
BRANCH  19  22
ATOM     22  N   UNL     1       1.034  11.393  19.065  0.00  0.00    +0.000 N 
ATOM     23  O   UNL     1       0.018  11.753  19.673  0.00  0.00    +0.000 OA
ATOM     24  O   UNL     1       1.775  12.148  18.418  0.00  0.00    +0.000 OA
ENDBRANCH  19  22
ENDBRANCH  15  16
ENDBRANCH   6  14
TORSDOF 4
ENDMDL
MODEL 4
REMARK VINA RESULT:      -7.9      0.655      1.263
REMARK  Name = 
REMARK  4 active torsions:
REMARK  status: ('A' for Active; 'I' for Inactive)
REMARK    1  A    between atoms: C_5  and  C_6
REMARK    2  A    between atoms: N_12  and  N_13
REMARK    3  A    between atoms: C_14  and  C_15
REMARK    4  A    between atoms: C_18  and  N_19
REMARK                            x       y       z     vdW  Elec       q    Type
REMARK                         _______ _______ _______ _____ _____    ______ ____
ROOT
ATOM      1  O   UNL     1       5.461   6.683  15.864  0.00  0.00    +0.000 OA
ATOM      2  C   UNL     1       4.969   5.730  16.449  0.00  0.00    +0.000 A 
ATOM      3  N   UNL     1       5.255   4.395  16.165  0.00  0.00    +0.000 N 
ATOM      4  N   UNL     1       4.569   3.553  16.995  0.00  0.00    +0.000 NA
ATOM      5  C   UNL     1       3.864   4.351  17.755  0.00  0.00    +0.000 A 
ATOM      6  N   UNL     1       4.059   5.684  17.493  0.00  0.00    +0.000 N 
ATOM      7  H   UNL     1       5.883   4.063  15.446  0.00  0.00    +0.000 HD
ENDROOT
BRANCH   5   8
ATOM      8  C   UNL     1       2.930   3.851  18.786  0.00  0.00    +0.000 A 
ATOM      9  C   UNL     1       3.441   3.498  20.043  0.00  0.00    +0.000 A 
ATOM     10  C   UNL     1       2.604   2.938  21.010  0.00  0.00    +0.000 A 
ATOM     11  C   UNL     1       1.256   2.719  20.724  0.00  0.00    +0.000 A 
ATOM     12  C   UNL     1       0.743   3.063  19.476  0.00  0.00    +0.000 A 
ATOM     13  C   UNL     1       1.578   3.623  18.507  0.00  0.00    +0.000 A 
ENDBRANCH   5   8
BRANCH   6  14
ATOM     14  N   UNL     1       3.526   6.700  18.235  0.00  0.00    +0.000 NA
ATOM     15  C   UNL     1       2.526   7.373  17.773  0.00  0.00    +0.000 C 
BRANCH  15  16
ATOM     16  C   UNL     1       1.940   8.485  18.556  0.00  0.00    +0.000 A 
ATOM     17  C   UNL     1       1.771   9.751  17.981  0.00  0.00    +0.000 A 
ATOM     18  C   UNL     1       1.220  10.792  18.732  0.00  0.00    +0.000 A 
ATOM     19  C   UNL     1       0.835  10.556  20.059  0.00  0.00    +0.000 A 
ATOM     20  C   UNL     1       1.004   9.290  20.639  0.00  0.00    +0.000 A 
ATOM     21  C   UNL     1       1.558   8.252  19.881  0.00  0.00    +0.000 A 
BRANCH  19  22
ATOM     22  N   UNL     1       0.247  11.648  20.848  0.00  0.00    +0.000 N 
ATOM     23  O   UNL     1       0.272  11.544  22.082  0.00  0.00    +0.000 OA
ATOM     24  O   UNL     1      -0.239  12.606  20.230  0.00  0.00    +0.000 OA
ENDBRANCH  19  22
ENDBRANCH  15  16
ENDBRANCH   6  14
TORSDOF 4
ENDMDL
MODEL 5
REMARK VINA RESULT:      -7.8      2.439      4.034
REMARK  Name = 
REMARK  4 active torsions:
REMARK  status: ('A' for Active; 'I' for Inactive)
REMARK    1  A    between atoms: C_5  and  C_6
REMARK    2  A    between atoms: N_12  and  N_13
REMARK    3  A    between atoms: C_14  and  C_15
REMARK    4  A    between atoms: C_18  and  N_19
REMARK                            x       y       z     vdW  Elec       q    Type
REMARK                         _______ _______ _______ _____ _____    ______ ____
ROOT
ATOM      1  O   UNL     1       0.624   2.522  19.166  0.00  0.00    +0.000 OA
ATOM      2  C   UNL     1       1.756   2.595  18.712  0.00  0.00    +0.000 A 
ATOM      3  N   UNL     1       2.580   1.498  18.462  0.00  0.00    +0.000 N 
ATOM      4  N   UNL     1       3.781   1.887  17.938  0.00  0.00    +0.000 NA
ATOM      5  C   UNL     1       3.703   3.192  17.886  0.00  0.00    +0.000 A 
ATOM      6  N   UNL     1       2.505   3.697  18.328  0.00  0.00    +0.000 N 
ATOM      7  H   UNL     1       2.347   0.530  18.636  0.00  0.00    +0.000 HD
ENDROOT
BRANCH   5   8
ATOM      8  C   UNL     1       4.818   4.039  17.414  0.00  0.00    +0.000 A 
ATOM      9  C   UNL     1       5.794   4.443  18.336  0.00  0.00    +0.000 A 
ATOM     10  C   UNL     1       6.811   5.317  17.945  0.00  0.00    +0.000 A 
ATOM     11  C   UNL     1       6.854   5.798  16.637  0.00  0.00    +0.000 A 
ATOM     12  C   UNL     1       5.885   5.404  15.717  0.00  0.00    +0.000 A 
ATOM     13  C   UNL     1       4.867   4.531  16.104  0.00  0.00    +0.000 A 
ENDBRANCH   5   8
BRANCH   6  14
ATOM     14  N   UNL     1       2.150   5.013  18.255  0.00  0.00    +0.000 NA
ATOM     15  C   UNL     1       2.507   5.825  19.195  0.00  0.00    +0.000 C 
BRANCH  15  16
ATOM     16  C   UNL     1       2.124   7.254  19.140  0.00  0.00    +0.000 A 
ATOM     17  C   UNL     1       1.574   7.888  20.262  0.00  0.00    +0.000 A 
ATOM     18  C   UNL     1       1.215   9.236  20.197  0.00  0.00    +0.000 A 
ATOM     19  C   UNL     1       1.414   9.946  19.005  0.00  0.00    +0.000 A 
ATOM     20  C   UNL     1       1.965   9.315  17.879  0.00  0.00    +0.000 A 
ATOM     21  C   UNL     1       2.321   7.963  17.951  0.00  0.00    +0.000 A 
BRANCH  19  22
ATOM     22  N   UNL     1       1.045  11.367  18.936  0.00  0.00    +0.000 N 
ATOM     23  O   UNL     1      -0.157  11.653  19.012  0.00  0.00    +0.000 OA
ATOM     24  O   UNL     1       1.961  12.192  18.806  0.00  0.00    +0.000 OA
ENDBRANCH  19  22
ENDBRANCH  15  16
ENDBRANCH   6  14
TORSDOF 4
ENDMDL
MODEL 6
REMARK VINA RESULT:      -7.8      1.476      1.914
REMARK  Name = 
REMARK  4 active torsions:
REMARK  status: ('A' for Active; 'I' for Inactive)
REMARK    1  A    between atoms: C_5  and  C_6
REMARK    2  A    between atoms: N_12  and  N_13
REMARK    3  A    between atoms: C_14  and  C_15
REMARK    4  A    between atoms: C_18  and  N_19
REMARK                            x       y       z     vdW  Elec       q    Type
REMARK                         _______ _______ _______ _____ _____    ______ ____
ROOT
ATOM      1  O   UNL     1       7.069   7.581  16.728  0.00  0.00    +0.000 OA
ATOM      2  C   UNL     1       6.639   6.449  16.892  0.00  0.00    +0.000 A 
ATOM      3  N   UNL     1       7.275   5.290  16.447  0.00  0.00    +0.000 N 
ATOM      4  N   UNL     1       6.568   4.172  16.792  0.00  0.00    +0.000 NA
ATOM      5  C   UNL     1       5.515   4.634  17.416  0.00  0.00    +0.000 A 
ATOM      6  N   UNL     1       5.490   6.002  17.526  0.00  0.00    +0.000 N 
ATOM      7  H   UNL     1       8.145   5.251  15.934  0.00  0.00    +0.000 HD
ENDROOT
BRANCH   5   8
ATOM      8  C   UNL     1       4.445   3.755  17.933  0.00  0.00    +0.000 A 
ATOM      9  C   UNL     1       4.574   3.227  19.225  0.00  0.00    +0.000 A 
ATOM     10  C   UNL     1       3.628   2.322  19.711  0.00  0.00    +0.000 A 
ATOM     11  C   UNL     1       2.556   1.934  18.908  0.00  0.00    +0.000 A 
ATOM     12  C   UNL     1       2.424   2.452  17.622  0.00  0.00    +0.000 A 
ATOM     13  C   UNL     1       3.369   3.357  17.132  0.00  0.00    +0.000 A 
ENDBRANCH   5   8
BRANCH   6  14
ATOM     14  N   UNL     1       4.556   6.700  18.238  0.00  0.00    +0.000 NA
ATOM     15  C   UNL     1       3.570   7.261  17.622  0.00  0.00    +0.000 C 
BRANCH  15  16
ATOM     16  C   UNL     1       2.553   8.031  18.373  0.00  0.00    +0.000 A 
ATOM     17  C   UNL     1       1.922   9.138  17.792  0.00  0.00    +0.000 A 
ATOM     18  C   UNL     1       0.967   9.857  18.512  0.00  0.00    +0.000 A 
ATOM     19  C   UNL     1       0.642   9.458  19.816  0.00  0.00    +0.000 A 
ATOM     20  C   UNL     1       1.271   8.350  20.403  0.00  0.00    +0.000 A 
ATOM     21  C   UNL     1       2.230   7.635  19.676  0.00  0.00    +0.000 A 
BRANCH  19  22
ATOM     22  N   UNL     1      -0.370  10.208  20.574  0.00  0.00    +0.000 N 
ATOM     23  O   UNL     1      -0.475   9.971  21.784  0.00  0.00    +0.000 OA
ATOM     24  O   UNL     1      -1.057  11.032  19.953  0.00  0.00    +0.000 OA
ENDBRANCH  19  22
ENDBRANCH  15  16
ENDBRANCH   6  14
TORSDOF 4
ENDMDL
MODEL 7
REMARK VINA RESULT:      -7.8      2.356      3.786
REMARK  Name = 
REMARK  4 active torsions:
REMARK  status: ('A' for Active; 'I' for Inactive)
REMARK    1  A    between atoms: C_5  and  C_6
REMARK    2  A    between atoms: N_12  and  N_13
REMARK    3  A    between atoms: C_14  and  C_15
REMARK    4  A    between atoms: C_18  and  N_19
REMARK                            x       y       z     vdW  Elec       q    Type
REMARK                         _______ _______ _______ _____ _____    ______ ____
ROOT
ATOM      1  O   UNL     1       0.713   2.430  19.086  0.00  0.00    +0.000 OA
ATOM      2  C   UNL     1       1.846   2.566  18.648  0.00  0.00    +0.000 A 
ATOM      3  N   UNL     1       2.711   1.512  18.353  0.00  0.00    +0.000 N 
ATOM      4  N   UNL     1       3.902   1.970  17.862  0.00  0.00    +0.000 NA
ATOM      5  C   UNL     1       3.777   3.272  17.873  0.00  0.00    +0.000 A 
ATOM      6  N   UNL     1       2.558   3.711  18.327  0.00  0.00    +0.000 N 
ATOM      7  H   UNL     1       2.511   0.529  18.477  0.00  0.00    +0.000 HD
ENDROOT
BRANCH   5   8
ATOM      8  C   UNL     1       4.865   4.181  17.454  0.00  0.00    +0.000 A 
ATOM      9  C   UNL     1       4.961   4.537  16.102  0.00  0.00    +0.000 A 
ATOM     10  C   UNL     1       6.027   5.319  15.655  0.00  0.00    +0.000 A 
ATOM     11  C   UNL     1       7.007   5.742  16.553  0.00  0.00    +0.000 A 
ATOM     12  C   UNL     1       6.921   5.388  17.897  0.00  0.00    +0.000 A 
ATOM     13  C   UNL     1       5.856   4.605  18.347  0.00  0.00    +0.000 A 
ENDBRANCH   5   8
BRANCH   6  14
ATOM     14  N   UNL     1       2.156   5.016  18.314  0.00  0.00    +0.000 NA
ATOM     15  C   UNL     1       2.527   5.808  19.265  0.00  0.00    +0.000 C 
BRANCH  15  16
ATOM     16  C   UNL     1       2.095   7.224  19.276  0.00  0.00    +0.000 A 
ATOM     17  C   UNL     1       2.207   8.014  18.124  0.00  0.00    +0.000 A 
ATOM     18  C   UNL     1       1.798   9.348  18.149  0.00  0.00    +0.000 A 
ATOM     19  C   UNL     1       1.273   9.887  19.331  0.00  0.00    +0.000 A 
ATOM     20  C   UNL     1       1.160   9.100  20.488  0.00  0.00    +0.000 A 
ATOM     21  C   UNL     1       1.573   7.764  20.457  0.00  0.00    +0.000 A 
BRANCH  19  22
ATOM     22  N   UNL     1       0.834  11.290  19.358  0.00  0.00    +0.000 N 
ATOM     23  O   UNL     1       0.009  11.651  18.509  0.00  0.00    +0.000 OA
ATOM     24  O   UNL     1       1.318  12.026  20.230  0.00  0.00    +0.000 OA
ENDBRANCH  19  22
ENDBRANCH  15  16
ENDBRANCH   6  14
TORSDOF 4
ENDMDL
MODEL 8
REMARK VINA RESULT:      -7.7      1.417      1.902
REMARK  Name = 
REMARK  4 active torsions:
REMARK  status: ('A' for Active; 'I' for Inactive)
REMARK    1  A    between atoms: C_5  and  C_6
REMARK    2  A    between atoms: N_12  and  N_13
REMARK    3  A    between atoms: C_14  and  C_15
REMARK    4  A    between atoms: C_18  and  N_19
REMARK                            x       y       z     vdW  Elec       q    Type
REMARK                         _______ _______ _______ _____ _____    ______ ____
ROOT
ATOM      1  O   UNL     1       7.181   7.436  16.673  0.00  0.00    +0.000 OA
ATOM      2  C   UNL     1       6.721   6.317  16.847  0.00  0.00    +0.000 A 
ATOM      3  N   UNL     1       7.318   5.139  16.398  0.00  0.00    +0.000 N 
ATOM      4  N   UNL     1       6.584   4.043  16.757  0.00  0.00    +0.000 NA
ATOM      5  C   UNL     1       5.553   4.537  17.392  0.00  0.00    +0.000 A 
ATOM      6  N   UNL     1       5.568   5.906  17.497  0.00  0.00    +0.000 N 
ATOM      7  H   UNL     1       8.180   5.073  15.875  0.00  0.00    +0.000 HD
ENDROOT
BRANCH   5   8
ATOM      8  C   UNL     1       4.464   3.692  17.925  0.00  0.00    +0.000 A 
ATOM      9  C   UNL     1       3.353   3.433  17.111  0.00  0.00    +0.000 A 
ATOM     10  C   UNL     1       2.266   2.714  17.613  0.00  0.00    +0.000 A 
ATOM     11  C   UNL     1       2.279   2.259  18.931  0.00  0.00    +0.000 A 
ATOM     12  C   UNL     1       3.378   2.517  19.747  0.00  0.00    +0.000 A 
ATOM     13  C   UNL     1       4.466   3.236  19.248  0.00  0.00    +0.000 A 
ENDBRANCH   5   8
BRANCH   6  14
ATOM     14  N   UNL     1       4.664   6.633  18.219  0.00  0.00    +0.000 NA
ATOM     15  C   UNL     1       3.584   7.055  17.650  0.00  0.00    +0.000 C 
BRANCH  15  16
ATOM     16  C   UNL     1       2.596   7.853  18.411  0.00  0.00    +0.000 A 
ATOM     17  C   UNL     1       2.252   7.500  19.722  0.00  0.00    +0.000 A 
ATOM     18  C   UNL     1       1.317   8.260  20.428  0.00  0.00    +0.000 A 
ATOM     19  C   UNL     1       0.731   9.376  19.815  0.00  0.00    +0.000 A 
ATOM     20  C   UNL     1       1.072   9.732  18.502  0.00  0.00    +0.000 A 
ATOM     21  C   UNL     1       2.009   8.965  17.799  0.00  0.00    +0.000 A 
BRANCH  19  22
ATOM     22  N   UNL     1      -0.249  10.182  20.559  0.00  0.00    +0.000 N 
ATOM     23  O   UNL     1      -0.490   9.858  21.729  0.00  0.00    +0.000 OA
ATOM     24  O   UNL     1      -0.773  11.137  19.967  0.00  0.00    +0.000 OA
ENDBRANCH  19  22
ENDBRANCH  15  16
ENDBRANCH   6  14
TORSDOF 4
ENDMDL
MODEL 9
REMARK VINA RESULT:      -7.7      0.782      1.674
REMARK  Name = 
REMARK  4 active torsions:
REMARK  status: ('A' for Active; 'I' for Inactive)
REMARK    1  A    between atoms: C_5  and  C_6
REMARK    2  A    between atoms: N_12  and  N_13
REMARK    3  A    between atoms: C_14  and  C_15
REMARK    4  A    between atoms: C_18  and  N_19
REMARK                            x       y       z     vdW  Elec       q    Type
REMARK                         _______ _______ _______ _____ _____    ______ ____
ROOT
ATOM      1  O   UNL     1       5.667   6.616  15.852  0.00  0.00    +0.000 OA
ATOM      2  C   UNL     1       5.093   5.711  16.439  0.00  0.00    +0.000 A 
ATOM      3  N   UNL     1       5.312   4.354  16.204  0.00  0.00    +0.000 N 
ATOM      4  N   UNL     1       4.540   3.577  17.023  0.00  0.00    +0.000 NA
ATOM      5  C   UNL     1       3.851   4.437  17.729  0.00  0.00    +0.000 A 
ATOM      6  N   UNL     1       4.136   5.749  17.441  0.00  0.00    +0.000 N 
ATOM      7  H   UNL     1       5.950   3.966  15.524  0.00  0.00    +0.000 HD
ENDROOT
BRANCH   5   8
ATOM      8  C   UNL     1       2.844   4.023  18.729  0.00  0.00    +0.000 A 
ATOM      9  C   UNL     1       3.193   4.049  20.086  0.00  0.00    +0.000 A 
ATOM     10  C   UNL     1       2.300   3.579  21.051  0.00  0.00    +0.000 A 
ATOM     11  C   UNL     1       1.059   3.073  20.665  0.00  0.00    +0.000 A 
ATOM     12  C   UNL     1       0.707   3.040  19.317  0.00  0.00    +0.000 A 
ATOM     13  C   UNL     1       1.599   3.509  18.351  0.00  0.00    +0.000 A 
ENDBRANCH   5   8
BRANCH   6  14
ATOM     14  N   UNL     1       3.633   6.815  18.131  0.00  0.00    +0.000 NA
ATOM     15  C   UNL     1       2.420   7.203  17.913  0.00  0.00    +0.000 C 
BRANCH  15  16
ATOM     16  C   UNL     1       1.858   8.362  18.641  0.00  0.00    +0.000 A 
ATOM     17  C   UNL     1       1.502   8.252  19.992  0.00  0.00    +0.000 A 
ATOM     18  C   UNL     1       0.971   9.352  20.667  0.00  0.00    +0.000 A 
ATOM     19  C   UNL     1       0.802  10.565  19.985  0.00  0.00    +0.000 A 
ATOM     20  C   UNL     1       1.157  10.680  18.632  0.00  0.00    +0.000 A 
ATOM     21  C   UNL     1       1.687   9.572  17.961  0.00  0.00    +0.000 A 
BRANCH  19  22
ATOM     22  N   UNL     1       0.250  11.727  20.696  0.00  0.00    +0.000 N 
ATOM     23  O   UNL     1       0.844  12.116  21.710  0.00  0.00    +0.000 OA
ATOM     24  O   UNL     1      -0.777  12.246  20.236  0.00  0.00    +0.000 OA
ENDBRANCH  19  22
ENDBRANCH  15  16
ENDBRANCH   6  14
TORSDOF 4
ENDMDL
