MODEL 1
REMARK VINA RESULT:      -6.9      0.000      0.000
REMARK  Name = 
REMARK  2 active torsions:
REMARK  status: ('A' for Active; 'I' for Inactive)
REMARK    1  A    between atoms: C_4  and  C_5
REMARK    2  A    between atoms: C_15  and  C_16
REMARK                            x       y       z     vdW  Elec       q    Type
REMARK                         _______ _______ _______ _____ _____    ______ ____
ROOT
ATOM      1  O   UNL     1       1.867   9.576  17.439  0.00  0.00    +0.000 OA
ATOM      2  C   UNL     1       1.692   9.111  18.566  0.00  0.00    +0.000 C 
ATOM      3  C   UNL     1       0.947   9.874  19.618  0.00  0.00    +0.000 C 
ATOM      4  C   UNL     1       0.682  11.170  19.360  0.00  0.00    +0.000 C 
ATOM      5  C   UNL     1       0.578   9.143  20.870  0.00  0.00    +0.000 C 
ATOM      6  N   UNL     1       1.622   8.208  21.275  0.00  0.00    +0.000 NA
ATOM      7  C   UNL     1       1.772   7.179  20.251  0.00  0.00    +0.000 C 
ATOM      8  C   UNL     1       2.198   7.750  18.935  0.00  0.00    +0.000 C 
ATOM      9  C   UNL     1       3.002   7.132  18.045  0.00  0.00    +0.000 C 
ATOM     10  H   UNL     1       1.351   7.767  22.153  0.00  0.00    +0.000 HD
ENDROOT
BRANCH   4  11
ATOM     11  C   UNL     1      -0.005  12.076  20.283  0.00  0.00    +0.000 A 
ATOM     12  C   UNL     1      -1.400  12.051  20.370  0.00  0.00    +0.000 A 
ATOM     13  C   UNL     1      -2.067  12.906  21.250  0.00  0.00    +0.000 A 
ATOM     14  C   UNL     1      -1.340  13.792  22.045  0.00  0.00    +0.000 A 
ATOM     15  C   UNL     1       0.051  13.825  21.959  0.00  0.00    +0.000 A 
ATOM     16  C   UNL     1       0.720  12.971  21.078  0.00  0.00    +0.000 A 
ENDBRANCH   4  11
BRANCH   9  17
ATOM     17  C   UNL     1       3.533   5.779  18.225  0.00  0.00    +0.000 A 
ATOM     18  C   UNL     1       2.832   4.685  17.707  0.00  0.00    +0.000 A 
ATOM     19  C   UNL     1       3.318   3.389  17.891  0.00  0.00    +0.000 A 
ATOM     20  C   UNL     1       4.504   3.181  18.593  0.00  0.00    +0.000 A 
ATOM     21  C   UNL     1       5.207   4.270  19.113  0.00  0.00    +0.000 A 
ATOM     22  C   UNL     1       4.723   5.567  18.930  0.00  0.00    +0.000 A 
ENDBRANCH   9  17
TORSDOF 2
ENDMDL
MODEL 2
REMARK VINA RESULT:      -6.9      0.104      1.058
REMARK  Name = 
REMARK  2 active torsions:
REMARK  status: ('A' for Active; 'I' for Inactive)
REMARK    1  A    between atoms: C_4  and  C_5
REMARK    2  A    between atoms: C_15  and  C_16
REMARK                            x       y       z     vdW  Elec       q    Type
REMARK                         _______ _______ _______ _____ _____    ______ ____
ROOT
ATOM      1  O   UNL     1       1.866   9.549  17.476  0.00  0.00    +0.000 OA
ATOM      2  C   UNL     1       1.691   9.088  18.604  0.00  0.00    +0.000 C 
ATOM      3  C   UNL     1       0.965   9.866  19.661  0.00  0.00    +0.000 C 
ATOM      4  C   UNL     1       0.720  11.165  19.402  0.00  0.00    +0.000 C 
ATOM      5  C   UNL     1       0.591   9.143  20.916  0.00  0.00    +0.000 C 
ATOM      6  N   UNL     1       1.622   8.190  21.315  0.00  0.00    +0.000 NA
ATOM      7  C   UNL     1       1.748   7.157  20.292  0.00  0.00    +0.000 C 
ATOM      8  C   UNL     1       2.175   7.719  18.973  0.00  0.00    +0.000 C 
ATOM      9  C   UNL     1       2.963   7.087  18.078  0.00  0.00    +0.000 C 
ATOM     10  H   UNL     1       1.350   7.755  22.195  0.00  0.00    +0.000 HD
ENDROOT
BRANCH   4  11
ATOM     11  C   UNL     1       0.055  12.084  20.328  0.00  0.00    +0.000 A 
ATOM     12  C   UNL     1       0.812  13.019  21.041  0.00  0.00    +0.000 A 
ATOM     13  C   UNL     1       0.189  13.905  21.923  0.00  0.00    +0.000 A 
ATOM     14  C   UNL     1      -1.194  13.857  22.097  0.00  0.00    +0.000 A 
ATOM     15  C   UNL     1      -1.953  12.923  21.392  0.00  0.00    +0.000 A 
ATOM     16  C   UNL     1      -1.331  12.035  20.511  0.00  0.00    +0.000 A 
ENDBRANCH   4  11
BRANCH   9  17
ATOM     17  C   UNL     1       3.472   5.725  18.257  0.00  0.00    +0.000 A 
ATOM     18  C   UNL     1       2.750   4.643  17.744  0.00  0.00    +0.000 A 
ATOM     19  C   UNL     1       3.215   3.339  17.927  0.00  0.00    +0.000 A 
ATOM     20  C   UNL     1       4.401   3.112  18.623  0.00  0.00    +0.000 A 
ATOM     21  C   UNL     1       5.125   4.189  19.137  0.00  0.00    +0.000 A 
ATOM     22  C   UNL     1       4.662   5.493  18.955  0.00  0.00    +0.000 A 
ENDBRANCH   9  17
TORSDOF 2
ENDMDL
MODEL 3
REMARK VINA RESULT:      -6.9      0.172      1.069
REMARK  Name = 
REMARK  2 active torsions:
REMARK  status: ('A' for Active; 'I' for Inactive)
REMARK    1  A    between atoms: C_4  and  C_5
REMARK    2  A    between atoms: C_15  and  C_16
REMARK                            x       y       z     vdW  Elec       q    Type
REMARK                         _______ _______ _______ _____ _____    ______ ____
ROOT
ATOM      1  O   UNL     1       1.899   9.472  17.351  0.00  0.00    +0.000 OA
ATOM      2  C   UNL     1       1.720   9.044  18.491  0.00  0.00    +0.000 C 
ATOM      3  C   UNL     1       1.005   9.858  19.526  0.00  0.00    +0.000 C 
ATOM      4  C   UNL     1       0.775  11.153  19.233  0.00  0.00    +0.000 C 
ATOM      5  C   UNL     1       0.624   9.173  20.801  0.00  0.00    +0.000 C 
ATOM      6  N   UNL     1       1.644   8.221  21.226  0.00  0.00    +0.000 NA
ATOM      7  C   UNL     1       1.757   7.159  20.231  0.00  0.00    +0.000 C 
ATOM      8  C   UNL     1       2.189   7.680  18.896  0.00  0.00    +0.000 C 
ATOM      9  C   UNL     1       2.969   7.014  18.019  0.00  0.00    +0.000 C 
ATOM     10  H   UNL     1       1.368   7.813  22.117  0.00  0.00    +0.000 HD
ENDROOT
BRANCH   4  11
ATOM     11  C   UNL     1       0.121  12.104  20.134  0.00  0.00    +0.000 A 
ATOM     12  C   UNL     1      -1.275  12.183  20.165  0.00  0.00    +0.000 A 
ATOM     13  C   UNL     1      -1.911  13.082  21.024  0.00  0.00    +0.000 A 
ATOM     14  C   UNL     1      -1.152  13.908  21.854  0.00  0.00    +0.000 A 
ATOM     15  C   UNL     1       0.240  13.837  21.823  0.00  0.00    +0.000 A 
ATOM     16  C   UNL     1       0.878  12.939  20.964  0.00  0.00    +0.000 A 
ENDBRANCH   4  11
BRANCH   9  17
ATOM     17  C   UNL     1       3.463   5.652  18.234  0.00  0.00    +0.000 A 
ATOM     18  C   UNL     1       4.672   5.453  18.909  0.00  0.00    +0.000 A 
ATOM     19  C   UNL     1       5.164   4.161  19.101  0.00  0.00    +0.000 A 
ATOM     20  C   UNL     1       4.451   3.064  18.620  0.00  0.00    +0.000 A 
ATOM     21  C   UNL     1       3.244   3.258  17.945  0.00  0.00    +0.000 A 
ATOM     22  C   UNL     1       2.750   4.549  17.752  0.00  0.00    +0.000 A 
ENDBRANCH   9  17
TORSDOF 2
ENDMDL
MODEL 4
REMARK VINA RESULT:      -6.9      0.130      1.496
REMARK  Name = 
REMARK  2 active torsions:
REMARK  status: ('A' for Active; 'I' for Inactive)
REMARK    1  A    between atoms: C_4  and  C_5
REMARK    2  A    between atoms: C_15  and  C_16
REMARK                            x       y       z     vdW  Elec       q    Type
REMARK                         _______ _______ _______ _____ _____    ______ ____
ROOT
ATOM      1  O   UNL     1       1.890   9.552  17.418  0.00  0.00    +0.000 OA
ATOM      2  C   UNL     1       1.704   9.112  18.552  0.00  0.00    +0.000 C 
ATOM      3  C   UNL     1       0.978   9.913  19.591  0.00  0.00    +0.000 C 
ATOM      4  C   UNL     1       0.747  11.210  19.310  0.00  0.00    +0.000 C 
ATOM      5  C   UNL     1       0.590   9.214  20.855  0.00  0.00    +0.000 C 
ATOM      6  N   UNL     1       1.609   8.259  21.277  0.00  0.00    +0.000 NA
ATOM      7  C   UNL     1       1.733   7.208  20.272  0.00  0.00    +0.000 C 
ATOM      8  C   UNL     1       2.173   7.744  18.946  0.00  0.00    +0.000 C 
ATOM      9  C   UNL     1       2.961   7.090  18.067  0.00  0.00    +0.000 C 
ATOM     10  H   UNL     1       1.327   7.841  22.162  0.00  0.00    +0.000 HD
ENDROOT
BRANCH   4  11
ATOM     11  C   UNL     1       0.084  12.150  20.216  0.00  0.00    +0.000 A 
ATOM     12  C   UNL     1       0.853  12.997  21.020  0.00  0.00    +0.000 A 
ATOM     13  C   UNL     1       0.233  13.902  21.885  0.00  0.00    +0.000 A 
ATOM     14  C   UNL     1      -1.159  13.961  21.950  0.00  0.00    +0.000 A 
ATOM     15  C   UNL     1      -1.931  13.115  21.154  0.00  0.00    +0.000 A 
ATOM     16  C   UNL     1      -1.312  12.208  20.290  0.00  0.00    +0.000 A 
ENDBRANCH   4  11
BRANCH   9  17
ATOM     17  C   UNL     1       3.457   5.727  18.272  0.00  0.00    +0.000 A 
ATOM     18  C   UNL     1       4.670   5.524  18.938  0.00  0.00    +0.000 A 
ATOM     19  C   UNL     1       5.164   4.231  19.119  0.00  0.00    +0.000 A 
ATOM     20  C   UNL     1       4.448   3.137  18.637  0.00  0.00    +0.000 A 
ATOM     21  C   UNL     1       3.237   3.334  17.971  0.00  0.00    +0.000 A 
ATOM     22  C   UNL     1       2.742   4.627  17.788  0.00  0.00    +0.000 A 
ENDBRANCH   9  17
TORSDOF 2
ENDMDL
MODEL 5
REMARK VINA RESULT:      -6.8      1.723      8.155
REMARK  Name = 
REMARK  2 active torsions:
REMARK  status: ('A' for Active; 'I' for Inactive)
REMARK    1  A    between atoms: C_4  and  C_5
REMARK    2  A    between atoms: C_15  and  C_16
REMARK                            x       y       z     vdW  Elec       q    Type
REMARK                         _______ _______ _______ _____ _____    ______ ____
ROOT
ATOM      1  O   UNL     1       1.390   7.950  21.192  0.00  0.00    +0.000 OA
ATOM      2  C   UNL     1       1.453   8.516  20.101  0.00  0.00    +0.000 C 
ATOM      3  C   UNL     1       2.108   7.864  18.921  0.00  0.00    +0.000 C 
ATOM      4  C   UNL     1       2.823   6.748  19.159  0.00  0.00    +0.000 C 
ATOM      5  C   UNL     1       1.930   8.515  17.586  0.00  0.00    +0.000 C 
ATOM      6  N   UNL     1       1.939   9.970  17.691  0.00  0.00    +0.000 NA
ATOM      7  C   UNL     1       0.799  10.404  18.492  0.00  0.00    +0.000 C 
ATOM      8  C   UNL     1       0.859   9.875  19.891  0.00  0.00    +0.000 C 
ATOM      9  C   UNL     1       0.413  10.525  20.986  0.00  0.00    +0.000 C 
ATOM     10  H   UNL     1       1.862  10.372  16.758  0.00  0.00    +0.000 HD
ENDROOT
BRANCH   4  11
ATOM     11  C   UNL     1       3.557   5.999  18.137  0.00  0.00    +0.000 A 
ATOM     12  C   UNL     1       3.199   4.677  17.855  0.00  0.00    +0.000 A 
ATOM     13  C   UNL     1       3.887   3.953  16.879  0.00  0.00    +0.000 A 
ATOM     14  C   UNL     1       4.938   4.549  16.182  0.00  0.00    +0.000 A 
ATOM     15  C   UNL     1       5.303   5.865  16.463  0.00  0.00    +0.000 A 
ATOM     16  C   UNL     1       4.617   6.590  17.441  0.00  0.00    +0.000 A 
ENDBRANCH   4  11
BRANCH   9  17
ATOM     17  C   UNL     1      -0.246  11.833  20.949  0.00  0.00    +0.000 A 
ATOM     18  C   UNL     1      -1.617  11.911  20.685  0.00  0.00    +0.000 A 
ATOM     19  C   UNL     1      -2.251  13.153  20.626  0.00  0.00    +0.000 A 
ATOM     20  C   UNL     1      -1.518  14.321  20.828  0.00  0.00    +0.000 A 
ATOM     21  C   UNL     1      -0.149  14.249  21.091  0.00  0.00    +0.000 A 
ATOM     22  C   UNL     1       0.487  13.008  21.151  0.00  0.00    +0.000 A 
ENDBRANCH   9  17
TORSDOF 2
ENDMDL
MODEL 6
REMARK VINA RESULT:      -6.8      1.715      8.225
REMARK  Name = 
REMARK  2 active torsions:
REMARK  status: ('A' for Active; 'I' for Inactive)
REMARK    1  A    between atoms: C_4  and  C_5
REMARK    2  A    between atoms: C_15  and  C_16
REMARK                            x       y       z     vdW  Elec       q    Type
REMARK                         _______ _______ _______ _____ _____    ______ ____
ROOT
ATOM      1  O   UNL     1       1.430   8.019  21.232  0.00  0.00    +0.000 OA
ATOM      2  C   UNL     1       1.474   8.558  20.126  0.00  0.00    +0.000 C 
ATOM      3  C   UNL     1       2.113   7.880  18.952  0.00  0.00    +0.000 C 
ATOM      4  C   UNL     1       2.835   6.772  19.207  0.00  0.00    +0.000 C 
ATOM      5  C   UNL     1       1.912   8.497  17.605  0.00  0.00    +0.000 C 
ATOM      6  N   UNL     1       1.918   9.955  17.674  0.00  0.00    +0.000 NA
ATOM      7  C   UNL     1       0.789  10.405  18.482  0.00  0.00    +0.000 C 
ATOM      8  C   UNL     1       0.872   9.910  19.892  0.00  0.00    +0.000 C 
ATOM      9  C   UNL     1       0.441  10.585  20.978  0.00  0.00    +0.000 C 
ATOM     10  H   UNL     1       1.825  10.333  16.733  0.00  0.00    +0.000 HD
ENDROOT
BRANCH   4  11
ATOM     11  C   UNL     1       3.556   6.000  18.192  0.00  0.00    +0.000 A 
ATOM     12  C   UNL     1       3.141   4.700  17.886  0.00  0.00    +0.000 A 
ATOM     13  C   UNL     1       3.816   3.955  16.916  0.00  0.00    +0.000 A 
ATOM     14  C   UNL     1       4.910   4.507  16.250  0.00  0.00    +0.000 A 
ATOM     15  C   UNL     1       5.331   5.801  16.556  0.00  0.00    +0.000 A 
ATOM     16  C   UNL     1       4.658   6.547  17.527  0.00  0.00    +0.000 A 
ENDBRANCH   4  11
BRANCH   9  17
ATOM     17  C   UNL     1      -0.222  11.890  20.919  0.00  0.00    +0.000 A 
ATOM     18  C   UNL     1       0.535  13.058  21.058  0.00  0.00    +0.000 A 
ATOM     19  C   UNL     1      -0.089  14.307  21.025  0.00  0.00    +0.000 A 
ATOM     20  C   UNL     1      -1.470  14.393  20.853  0.00  0.00    +0.000 A 
ATOM     21  C   UNL     1      -2.229  13.230  20.715  0.00  0.00    +0.000 A 
ATOM     22  C   UNL     1      -1.607  11.981  20.748  0.00  0.00    +0.000 A 
ENDBRANCH   9  17
TORSDOF 2
ENDMDL
MODEL 7
REMARK VINA RESULT:      -6.8      1.713      8.276
REMARK  Name = 
REMARK  2 active torsions:
REMARK  status: ('A' for Active; 'I' for Inactive)
REMARK    1  A    between atoms: C_4  and  C_5
REMARK    2  A    between atoms: C_15  and  C_16
REMARK                            x       y       z     vdW  Elec       q    Type
REMARK                         _______ _______ _______ _____ _____    ______ ____
ROOT
ATOM      1  O   UNL     1       1.395   8.004  21.219  0.00  0.00    +0.000 OA
ATOM      2  C   UNL     1       1.450   8.557  20.120  0.00  0.00    +0.000 C 
ATOM      3  C   UNL     1       2.093   7.889  18.943  0.00  0.00    +0.000 C 
ATOM      4  C   UNL     1       2.807   6.773  19.188  0.00  0.00    +0.000 C 
ATOM      5  C   UNL     1       1.906   8.525  17.601  0.00  0.00    +0.000 C 
ATOM      6  N   UNL     1       1.922   9.981  17.690  0.00  0.00    +0.000 NA
ATOM      7  C   UNL     1       0.790  10.429  18.495  0.00  0.00    +0.000 C 
ATOM      8  C   UNL     1       0.859   9.916  19.899  0.00  0.00    +0.000 C 
ATOM      9  C   UNL     1       0.425  10.580  20.991  0.00  0.00    +0.000 C 
ATOM     10  H   UNL     1       1.838  10.372  16.753  0.00  0.00    +0.000 HD
ENDROOT
BRANCH   4  11
ATOM     11  C   UNL     1       3.529   6.009  18.168  0.00  0.00    +0.000 A 
ATOM     12  C   UNL     1       4.592   6.603  17.480  0.00  0.00    +0.000 A 
ATOM     13  C   UNL     1       5.292   5.883  16.510  0.00  0.00    +0.000 A 
ATOM     14  C   UNL     1       4.931   4.567  16.222  0.00  0.00    +0.000 A 
ATOM     15  C   UNL     1       3.868   3.972  16.901  0.00  0.00    +0.000 A 
ATOM     16  C   UNL     1       3.165   4.691  17.871  0.00  0.00    +0.000 A 
ENDBRANCH   4  11
BRANCH   9  17
ATOM     17  C   UNL     1      -0.229  11.890  20.943  0.00  0.00    +0.000 A 
ATOM     18  C   UNL     1       0.530  13.050  21.132  0.00  0.00    +0.000 A 
ATOM     19  C   UNL     1      -0.086  14.302  21.111  0.00  0.00    +0.000 A 
ATOM     20  C   UNL     1      -1.460  14.401  20.902  0.00  0.00    +0.000 A 
ATOM     21  C   UNL     1      -2.222  13.247  20.714  0.00  0.00    +0.000 A 
ATOM     22  C   UNL     1      -1.608  11.993  20.734  0.00  0.00    +0.000 A 
ENDBRANCH   9  17
TORSDOF 2
ENDMDL
MODEL 8
REMARK VINA RESULT:      -6.8      1.732      8.200
REMARK  Name = 
REMARK  2 active torsions:
REMARK  status: ('A' for Active; 'I' for Inactive)
REMARK    1  A    between atoms: C_4  and  C_5
REMARK    2  A    between atoms: C_15  and  C_16
REMARK                            x       y       z     vdW  Elec       q    Type
REMARK                         _______ _______ _______ _____ _____    ______ ____
ROOT
ATOM      1  O   UNL     1       1.412   7.905  21.199  0.00  0.00    +0.000 OA
ATOM      2  C   UNL     1       1.474   8.482  20.113  0.00  0.00    +0.000 C 
ATOM      3  C   UNL     1       2.136   7.846  18.929  0.00  0.00    +0.000 C 
ATOM      4  C   UNL     1       2.858   6.732  19.158  0.00  0.00    +0.000 C 
ATOM      5  C   UNL     1       1.957   8.509  17.600  0.00  0.00    +0.000 C 
ATOM      6  N   UNL     1       1.957   9.963  17.719  0.00  0.00    +0.000 NA
ATOM      7  C   UNL     1       0.812  10.382  18.522  0.00  0.00    +0.000 C 
ATOM      8  C   UNL     1       0.872   9.839  19.915  0.00  0.00    +0.000 C 
ATOM      9  C   UNL     1       0.419  10.476  21.015  0.00  0.00    +0.000 C 
ATOM     10  H   UNL     1       1.879  10.373  16.790  0.00  0.00    +0.000 HD
ENDROOT
BRANCH   4  11
ATOM     11  C   UNL     1       3.599   5.998  18.130  0.00  0.00    +0.000 A 
ATOM     12  C   UNL     1       4.655   6.621  17.457  0.00  0.00    +0.000 A 
ATOM     13  C   UNL     1       5.373   5.930  16.479  0.00  0.00    +0.000 A 
ATOM     14  C   UNL     1       5.036   4.612  16.169  0.00  0.00    +0.000 A 
ATOM     15  C   UNL     1       3.981   3.988  16.832  0.00  0.00    +0.000 A 
ATOM     16  C   UNL     1       3.260   4.679  17.810  0.00  0.00    +0.000 A 
ENDBRANCH   4  11
BRANCH   9  17
ATOM     17  C   UNL     1      -0.248  11.780  20.989  0.00  0.00    +0.000 A 
ATOM     18  C   UNL     1      -1.612  11.854  20.689  0.00  0.00    +0.000 A 
ATOM     19  C   UNL     1      -2.253  13.093  20.640  0.00  0.00    +0.000 A 
ATOM     20  C   UNL     1      -1.535  14.262  20.890  0.00  0.00    +0.000 A 
ATOM     21  C   UNL     1      -0.173  14.192  21.190  0.00  0.00    +0.000 A 
ATOM     22  C   UNL     1       0.470  12.954  21.240  0.00  0.00    +0.000 A 
ENDBRANCH   9  17
TORSDOF 2
ENDMDL
MODEL 9
REMARK VINA RESULT:      -6.8      0.515      8.081
REMARK  Name = 
REMARK  2 active torsions:
REMARK  status: ('A' for Active; 'I' for Inactive)
REMARK    1  A    between atoms: C_4  and  C_5
REMARK    2  A    between atoms: C_15  and  C_16
REMARK                            x       y       z     vdW  Elec       q    Type
REMARK                         _______ _______ _______ _____ _____    ______ ____
ROOT
ATOM      1  O   UNL     1       1.912   9.651  17.484  0.00  0.00    +0.000 OA
ATOM      2  C   UNL     1       1.698   9.146  18.587  0.00  0.00    +0.000 C 
ATOM      3  C   UNL     1       2.123   7.744  18.899  0.00  0.00    +0.000 C 
ATOM      4  C   UNL     1       2.535   6.986  17.864  0.00  0.00    +0.000 C 
ATOM      5  C   UNL     1       2.039   7.297  20.324  0.00  0.00    +0.000 C 
ATOM      6  N   UNL     1       0.865   7.850  20.992  0.00  0.00    +0.000 NA
ATOM      7  C   UNL     1       0.979   9.304  21.044  0.00  0.00    +0.000 C 
ATOM      8  C   UNL     1       1.020   9.916  19.679  0.00  0.00    +0.000 C 
ATOM      9  C   UNL     1       0.498  11.116  19.351  0.00  0.00    +0.000 C 
ATOM     10  H   UNL     1       0.821   7.486  21.943  0.00  0.00    +0.000 HD
ENDROOT
BRANCH   4  11
ATOM     11  C   UNL     1       2.954   5.587  17.974  0.00  0.00    +0.000 A 
ATOM     12  C   UNL     1       4.292   5.283  18.244  0.00  0.00    +0.000 A 
ATOM     13  C   UNL     1       4.703   3.953  18.357  0.00  0.00    +0.000 A 
ATOM     14  C   UNL     1       3.777   2.922  18.198  0.00  0.00    +0.000 A 
ATOM     15  C   UNL     1       2.443   3.219  17.924  0.00  0.00    +0.000 A 
ATOM     16  C   UNL     1       2.030   4.549  17.809  0.00  0.00    +0.000 A 
ENDBRANCH   4  11
BRANCH   9  17
ATOM     17  C   UNL     1      -0.145  12.017  20.309  0.00  0.00    +0.000 A 
ATOM     18  C   UNL     1       0.632  12.931  21.029  0.00  0.00    +0.000 A 
ATOM     19  C   UNL     1       0.033  13.780  21.961  0.00  0.00    +0.000 A 
ATOM     20  C   UNL     1      -1.343  13.720  22.178  0.00  0.00    +0.000 A 
ATOM     21  C   UNL     1      -2.122  12.810  21.462  0.00  0.00    +0.000 A 
ATOM     22  C   UNL     1      -1.525  11.960  20.529  0.00  0.00    +0.000 A 
ENDBRANCH   9  17
TORSDOF 2
ENDMDL
