MODEL 1
REMARK VINA RESULT:      -9.0      0.000      0.000
REMARK  Name = 
REMARK  9 active torsions:
REMARK  status: ('A' for Active; 'I' for Inactive)
REMARK    1  A    between atoms: C_1  and  C_2
REMARK    2  A    between atoms: C_4  and  C_5
REMARK    3  A    between atoms: N_8  and  C_9
REMARK    4  A    between atoms: C_9  and  C_10
REMARK    5  A    between atoms: C_13  and  C_14
REMARK    6  A    between atoms: C_14  and  O_16
REMARK    7  A    between atoms: C_21  and  C_22
REMARK    8  A    between atoms: N_24  and  C_25
REMARK    9  A    between atoms: C_25  and  C_26
REMARK                            x       y       z     vdW  Elec       q    Type
REMARK                         _______ _______ _______ _____ _____    ______ ____
ROOT
ATOM      1  C   UNL     1       1.209   2.867  20.933  0.00  0.00    +0.000 C 
ATOM      2  C   UNL     1       1.952   4.064  20.422  0.00  0.00    +0.000 A 
ATOM      3  C   UNL     1       1.430   5.346  20.570  0.00  0.00    +0.000 A 
ATOM      4  C   UNL     1       2.155   6.442  20.090  0.00  0.00    +0.000 A 
ATOM      5  C   UNL     1       3.385   6.214  19.470  0.00  0.00    +0.000 A 
ATOM      6  C   UNL     1       3.840   4.906  19.371  0.00  0.00    +0.000 A 
ATOM      7  N   UNL     1       3.146   3.827  19.830  0.00  0.00    +0.000 NA
ENDROOT
BRANCH   4   8
ATOM      8  C   UNL     1       1.626   7.793  20.242  0.00  0.00    +0.000 A 
ATOM      9  N   UNL     1       0.907   8.197  21.344  0.00  0.00    +0.000 NA
ATOM     10  N   UNL     1       0.556   9.459  21.137  0.00  0.00    +0.000 NA
ATOM     11  N   UNL     1       1.086   9.770  19.941  0.00  0.00    +0.000 N 
ATOM     12  N   UNL     1       1.755   8.770  19.326  0.00  0.00    +0.000 NA
BRANCH  11  13
ATOM     13  C   UNL     1       0.710  10.984  19.236  0.00  0.00    +0.000 C 
BRANCH  13  14
ATOM     14  C   UNL     1      -0.753  11.023  18.868  0.00  0.00    +0.000 A 
ATOM     15  C   UNL     1      -1.618  11.933  19.492  0.00  0.00    +0.000 A 
ATOM     16  C   UNL     1      -2.951  12.040  19.082  0.00  0.00    +0.000 A 
ATOM     17  C   UNL     1      -3.446  11.232  18.050  0.00  0.00    +0.000 A 
ATOM     18  C   UNL     1      -2.594  10.304  17.439  0.00  0.00    +0.000 A 
ATOM     19  C   UNL     1      -1.260  10.194  17.855  0.00  0.00    +0.000 A 
BRANCH  17  20
ATOM     20  C   UNL     1      -4.846  11.460  17.602  0.00  0.00    +0.000 C 
ATOM     21  O   UNL     1      -5.797  10.887  18.105  0.00  0.00    +0.000 OA
BRANCH  20  22
ATOM     22  O   UNL     1      -4.979  12.336  16.586  0.00  0.00    +0.000 OA
ATOM     23  H   UNL     1      -5.364  13.199  16.819  0.00  0.00    +0.000 HD
ENDBRANCH  20  22
ENDBRANCH  17  20
ENDBRANCH  13  14
ENDBRANCH  11  13
ENDBRANCH   4   8
BRANCH   6  24
ATOM     24  C   UNL     1       5.180   4.612  18.754  0.00  0.00    +0.000 C 
ATOM     25  O   UNL     1       5.844   3.644  19.107  0.00  0.00    +0.000 OA
ATOM     26  N   UNL     1       5.571   5.506  17.779  0.00  0.00    +0.000 N 
ATOM     27  H   UNL     1       4.937   6.276  17.588  0.00  0.00    +0.000 HD
BRANCH  26  28
ATOM     28  C   UNL     1       6.826   5.415  17.068  0.00  0.00    +0.000 C 
BRANCH  28  29
ATOM     29  C   UNL     1       6.645   4.965  15.638  0.00  0.00    +0.000 A 
ATOM     30  C   UNL     1       5.664   4.014  15.312  0.00  0.00    +0.000 A 
ATOM     31  C   UNL     1       5.530   3.540  14.003  0.00  0.00    +0.000 A 
ATOM     32  C   UNL     1       6.380   4.007  13.002  0.00  0.00    +0.000 A 
ATOM     33  C   UNL     1       7.351   4.949  13.321  0.00  0.00    +0.000 A 
ATOM     34  F   UNL     1       8.175   5.392  12.361  0.00  0.00    +0.000 F 
ATOM     35  C   UNL     1       7.491   5.431  14.621  0.00  0.00    +0.000 A 
ENDBRANCH  28  29
ENDBRANCH  26  28
ENDBRANCH   6  24
TORSDOF 8
ENDMDL
MODEL 2
REMARK VINA RESULT:      -8.5      4.261     10.914
REMARK  Name = 
REMARK  9 active torsions:
REMARK  status: ('A' for Active; 'I' for Inactive)
REMARK    1  A    between atoms: C_1  and  C_2
REMARK    2  A    between atoms: C_4  and  C_5
REMARK    3  A    between atoms: N_8  and  C_9
REMARK    4  A    between atoms: C_9  and  C_10
REMARK    5  A    between atoms: C_13  and  C_14
REMARK    6  A    between atoms: C_14  and  O_16
REMARK    7  A    between atoms: C_21  and  C_22
REMARK    8  A    between atoms: N_24  and  C_25
REMARK    9  A    between atoms: C_25  and  C_26
REMARK                            x       y       z     vdW  Elec       q    Type
REMARK                         _______ _______ _______ _____ _____    ______ ____
ROOT
ATOM      1  C   UNL     1       1.118  10.816  17.842  0.00  0.00    +0.000 C 
ATOM      2  C   UNL     1       1.115   9.907  19.033  0.00  0.00    +0.000 A 
ATOM      3  C   UNL     1       1.691   8.641  18.966  0.00  0.00    +0.000 A 
ATOM      4  C   UNL     1       1.678   7.821  20.100  0.00  0.00    +0.000 A 
ATOM      5  C   UNL     1       1.080   8.300  21.268  0.00  0.00    +0.000 A 
ATOM      6  C   UNL     1       0.537   9.576  21.254  0.00  0.00    +0.000 A 
ATOM      7  N   UNL     1       0.538  10.387  20.159  0.00  0.00    +0.000 NA
ENDROOT
BRANCH   4   8
ATOM      8  C   UNL     1       2.283   6.494  20.051  0.00  0.00    +0.000 A 
ATOM      9  N   UNL     1       1.657   5.367  20.534  0.00  0.00    +0.000 NA
ATOM     10  N   UNL     1       2.495   4.354  20.363  0.00  0.00    +0.000 NA
ATOM     11  N   UNL     1       3.575   4.899  19.773  0.00  0.00    +0.000 N 
ATOM     12  N   UNL     1       3.508   6.232  19.563  0.00  0.00    +0.000 NA
BRANCH  11  13
ATOM     13  C   UNL     1       4.824   4.168  19.653  0.00  0.00    +0.000 C 
BRANCH  13  14
ATOM     14  C   UNL     1       5.373   4.165  18.246  0.00  0.00    +0.000 A 
ATOM     15  C   UNL     1       4.538   3.873  17.159  0.00  0.00    +0.000 A 
ATOM     16  C   UNL     1       5.019   3.967  15.850  0.00  0.00    +0.000 A 
ATOM     17  C   UNL     1       6.347   4.342  15.604  0.00  0.00    +0.000 A 
ATOM     18  C   UNL     1       7.193   4.611  16.686  0.00  0.00    +0.000 A 
ATOM     19  C   UNL     1       6.711   4.510  17.998  0.00  0.00    +0.000 A 
BRANCH  17  20
ATOM     20  C   UNL     1       6.769   4.511  14.187  0.00  0.00    +0.000 C 
ATOM     21  O   UNL     1       7.421   5.467  13.807  0.00  0.00    +0.000 OA
BRANCH  20  22
ATOM     22  O   UNL     1       6.360   3.531  13.355  0.00  0.00    +0.000 OA
ATOM     23  H   UNL     1       5.815   3.817  12.602  0.00  0.00    +0.000 HD
ENDBRANCH  20  22
ENDBRANCH  17  20
ENDBRANCH  13  14
ENDBRANCH  11  13
ENDBRANCH   4   8
BRANCH   6  24
ATOM     24  C   UNL     1      -0.076  10.156  22.499  0.00  0.00    +0.000 C 
ATOM     25  O   UNL     1       0.037   9.596  23.584  0.00  0.00    +0.000 OA
ATOM     26  N   UNL     1      -0.749  11.345  22.307  0.00  0.00    +0.000 N 
ATOM     27  H   UNL     1      -0.783  11.698  21.356  0.00  0.00    +0.000 HD
BRANCH  26  28
ATOM     28  C   UNL     1      -1.421  12.064  23.366  0.00  0.00    +0.000 C 
BRANCH  28  29
ATOM     29  C   UNL     1      -2.830  12.454  22.991  0.00  0.00    +0.000 A 
ATOM     30  C   UNL     1      -3.815  12.594  23.983  0.00  0.00    +0.000 A 
ATOM     31  C   UNL     1      -5.139  12.891  23.644  0.00  0.00    +0.000 A 
ATOM     32  C   UNL     1      -5.498  13.046  22.306  0.00  0.00    +0.000 A 
ATOM     33  C   UNL     1      -4.526  12.910  21.322  0.00  0.00    +0.000 A 
ATOM     34  F   UNL     1      -4.871  13.050  20.035  0.00  0.00    +0.000 F 
ATOM     35  C   UNL     1      -3.203  12.618  21.649  0.00  0.00    +0.000 A 
ENDBRANCH  28  29
ENDBRANCH  26  28
ENDBRANCH   6  24
TORSDOF 8
ENDMDL
MODEL 3
REMARK VINA RESULT:      -8.4      4.277      6.610
REMARK  Name = 
REMARK  9 active torsions:
REMARK  status: ('A' for Active; 'I' for Inactive)
REMARK    1  A    between atoms: C_1  and  C_2
REMARK    2  A    between atoms: C_4  and  C_5
REMARK    3  A    between atoms: N_8  and  C_9
REMARK    4  A    between atoms: C_9  and  C_10
REMARK    5  A    between atoms: C_13  and  C_14
REMARK    6  A    between atoms: C_14  and  O_16
REMARK    7  A    between atoms: C_21  and  C_22
REMARK    8  A    between atoms: N_24  and  C_25
REMARK    9  A    between atoms: C_25  and  C_26
REMARK                            x       y       z     vdW  Elec       q    Type
REMARK                         _______ _______ _______ _____ _____    ______ ____
ROOT
ATOM      1  C   UNL     1      -2.278  10.259  16.813  0.00  0.00    +0.000 C 
ATOM      2  C   UNL     1      -1.177  10.339  17.827  0.00  0.00    +0.000 A 
ATOM      3  C   UNL     1      -1.223  11.271  18.860  0.00  0.00    +0.000 A 
ATOM      4  C   UNL     1      -0.183  11.311  19.795  0.00  0.00    +0.000 A 
ATOM      5  C   UNL     1       0.877  10.412  19.659  0.00  0.00    +0.000 A 
ATOM      6  C   UNL     1       0.842   9.508  18.607  0.00  0.00    +0.000 A 
ATOM      7  N   UNL     1      -0.161   9.457  17.686  0.00  0.00    +0.000 NA
ENDROOT
BRANCH   4   8
ATOM      8  C   UNL     1      -0.217  12.277  20.887  0.00  0.00    +0.000 A 
ATOM      9  N   UNL     1       0.877  13.023  21.263  0.00  0.00    +0.000 NA
ATOM     10  N   UNL     1       0.506  13.762  22.299  0.00  0.00    +0.000 NA
ATOM     11  N   UNL     1      -0.788  13.452  22.495  0.00  0.00    +0.000 N 
ATOM     12  N   UNL     1      -1.295  12.523  21.655  0.00  0.00    +0.000 NA
BRANCH  11  13
ATOM     13  C   UNL     1      -1.492  13.857  23.699  0.00  0.00    +0.000 C 
BRANCH  13  14
ATOM     14  C   UNL     1      -2.973  13.568  23.643  0.00  0.00    +0.000 A 
ATOM     15  C   UNL     1      -3.563  12.702  24.576  0.00  0.00    +0.000 A 
ATOM     16  C   UNL     1      -4.948  12.511  24.588  0.00  0.00    +0.000 A 
ATOM     17  C   UNL     1      -5.767  13.171  23.662  0.00  0.00    +0.000 A 
ATOM     18  C   UNL     1      -5.182  14.017  22.712  0.00  0.00    +0.000 A 
ATOM     19  C   UNL     1      -3.793  14.203  22.697  0.00  0.00    +0.000 A 
BRANCH  17  20
ATOM     20  C   UNL     1      -7.239  12.994  23.788  0.00  0.00    +0.000 C 
ATOM     21  O   UNL     1      -7.911  12.459  22.924  0.00  0.00    +0.000 OA
BRANCH  20  22
ATOM     22  O   UNL     1      -7.772  13.486  24.925  0.00  0.00    +0.000 OA
ATOM     23  H   UNL     1      -7.135  13.740  25.614  0.00  0.00    +0.000 HD
ENDBRANCH  20  22
ENDBRANCH  17  20
ENDBRANCH  13  14
ENDBRANCH  11  13
ENDBRANCH   4   8
BRANCH   6  24
ATOM     24  C   UNL     1       1.936   8.489  18.444  0.00  0.00    +0.000 C 
ATOM     25  O   UNL     1       2.734   8.553  17.516  0.00  0.00    +0.000 OA
ATOM     26  N   UNL     1       1.957   7.509  19.416  0.00  0.00    +0.000 N 
ATOM     27  H   UNL     1       1.231   7.558  20.125  0.00  0.00    +0.000 HD
BRANCH  26  28
ATOM     28  C   UNL     1       2.915   6.428  19.442  0.00  0.00    +0.000 C 
BRANCH  28  29
ATOM     29  C   UNL     1       2.297   5.122  19.877  0.00  0.00    +0.000 A 
ATOM     30  C   UNL     1       2.481   4.650  21.188  0.00  0.00    +0.000 A 
ATOM     31  C   UNL     1       1.968   3.411  21.584  0.00  0.00    +0.000 A 
ATOM     32  C   UNL     1       1.269   2.622  20.673  0.00  0.00    +0.000 A 
ATOM     33  C   UNL     1       1.082   3.086  19.376  0.00  0.00    +0.000 A 
ATOM     34  F   UNL     1       0.418   2.324  18.496  0.00  0.00    +0.000 F 
ATOM     35  C   UNL     1       1.585   4.321  18.971  0.00  0.00    +0.000 A 
ENDBRANCH  28  29
ENDBRANCH  26  28
ENDBRANCH   6  24
TORSDOF 8
ENDMDL
MODEL 4
REMARK VINA RESULT:      -8.4      1.674      2.009
REMARK  Name = 
REMARK  9 active torsions:
REMARK  status: ('A' for Active; 'I' for Inactive)
REMARK    1  A    between atoms: C_1  and  C_2
REMARK    2  A    between atoms: C_4  and  C_5
REMARK    3  A    between atoms: N_8  and  C_9
REMARK    4  A    between atoms: C_9  and  C_10
REMARK    5  A    between atoms: C_13  and  C_14
REMARK    6  A    between atoms: C_14  and  O_16
REMARK    7  A    between atoms: C_21  and  C_22
REMARK    8  A    between atoms: N_24  and  C_25
REMARK    9  A    between atoms: C_25  and  C_26
REMARK                            x       y       z     vdW  Elec       q    Type
REMARK                         _______ _______ _______ _____ _____    ______ ____
ROOT
ATOM      1  C   UNL     1       1.826   3.126  17.952  0.00  0.00    +0.000 C 
ATOM      2  C   UNL     1       2.444   4.486  18.076  0.00  0.00    +0.000 A 
ATOM      3  C   UNL     1       1.840   5.478  18.844  0.00  0.00    +0.000 A 
ATOM      4  C   UNL     1       2.449   6.733  18.945  0.00  0.00    +0.000 A 
ATOM      5  C   UNL     1       3.650   6.954  18.265  0.00  0.00    +0.000 A 
ATOM      6  C   UNL     1       4.190   5.910  17.529  0.00  0.00    +0.000 A 
ATOM      7  N   UNL     1       3.609   4.682  17.417  0.00  0.00    +0.000 NA
ENDROOT
BRANCH   4   8
ATOM      8  C   UNL     1       1.835   7.783  19.750  0.00  0.00    +0.000 A 
ATOM      9  N   UNL     1       1.357   7.568  21.023  0.00  0.00    +0.000 NA
ATOM     10  N   UNL     1       0.840   8.715  21.442  0.00  0.00    +0.000 NA
ATOM     11  N   UNL     1       1.039   9.572  20.425  0.00  0.00    +0.000 N 
ATOM     12  N   UNL     1       1.645   9.049  19.337  0.00  0.00    +0.000 NA
BRANCH  11  13
ATOM     13  C   UNL     1       0.386  10.869  20.386  0.00  0.00    +0.000 C 
BRANCH  13  14
ATOM     14  C   UNL     1      -0.786  10.912  19.434  0.00  0.00    +0.000 A 
ATOM     15  C   UNL     1      -1.820  11.839  19.623  0.00  0.00    +0.000 A 
ATOM     16  C   UNL     1      -2.854  11.947  18.688  0.00  0.00    +0.000 A 
ATOM     17  C   UNL     1      -2.879  11.123  17.555  0.00  0.00    +0.000 A 
ATOM     18  C   UNL     1      -1.863  10.178  17.373  0.00  0.00    +0.000 A 
ATOM     19  C   UNL     1      -0.831  10.067  18.315  0.00  0.00    +0.000 A 
BRANCH  17  20
ATOM     20  C   UNL     1      -3.957  11.352  16.555  0.00  0.00    +0.000 C 
ATOM     21  O   UNL     1      -5.139  11.328  16.848  0.00  0.00    +0.000 OA
BRANCH  20  22
ATOM     22  O   UNL     1      -3.524  11.572  15.297  0.00  0.00    +0.000 OA
ATOM     23  H   UNL     1      -4.186  11.922  14.677  0.00  0.00    +0.000 HD
ENDBRANCH  20  22
ENDBRANCH  17  20
ENDBRANCH  13  14
ENDBRANCH  11  13
ENDBRANCH   4   8
BRANCH   6  24
ATOM     24  C   UNL     1       5.504   6.082  16.817  0.00  0.00    +0.000 C 
ATOM     25  O   UNL     1       6.003   7.190  16.661  0.00  0.00    +0.000 OA
ATOM     26  N   UNL     1       6.077   4.906  16.378  0.00  0.00    +0.000 N 
ATOM     27  H   UNL     1       5.555   4.053  16.557  0.00  0.00    +0.000 HD
BRANCH  26  28
ATOM     28  C   UNL     1       7.330   4.845  15.661  0.00  0.00    +0.000 C 
BRANCH  28  29
ATOM     29  C   UNL     1       7.139   4.556  14.192  0.00  0.00    +0.000 A 
ATOM     30  C   UNL     1       7.885   5.255  13.229  0.00  0.00    +0.000 A 
ATOM     31  C   UNL     1       7.672   5.044  11.862  0.00  0.00    +0.000 A 
ATOM     32  C   UNL     1       6.704   4.135  11.441  0.00  0.00    +0.000 A 
ATOM     33  C   UNL     1       5.964   3.440  12.391  0.00  0.00    +0.000 A 
ATOM     34  F   UNL     1       5.026   2.572  11.987  0.00  0.00    +0.000 F 
ATOM     35  C   UNL     1       6.172   3.640  13.755  0.00  0.00    +0.000 A 
ENDBRANCH  28  29
ENDBRANCH  26  28
ENDBRANCH   6  24
TORSDOF 8
ENDMDL
MODEL 5
REMARK VINA RESULT:      -8.3      1.399      1.773
REMARK  Name = 
REMARK  9 active torsions:
REMARK  status: ('A' for Active; 'I' for Inactive)
REMARK    1  A    between atoms: C_1  and  C_2
REMARK    2  A    between atoms: C_4  and  C_5
REMARK    3  A    between atoms: N_8  and  C_9
REMARK    4  A    between atoms: C_9  and  C_10
REMARK    5  A    between atoms: C_13  and  C_14
REMARK    6  A    between atoms: C_14  and  O_16
REMARK    7  A    between atoms: C_21  and  C_22
REMARK    8  A    between atoms: N_24  and  C_25
REMARK    9  A    between atoms: C_25  and  C_26
REMARK                            x       y       z     vdW  Elec       q    Type
REMARK                         _______ _______ _______ _____ _____    ______ ____
ROOT
ATOM      1  C   UNL     1       1.171   2.794  18.418  0.00  0.00    +0.000 C 
ATOM      2  C   UNL     1       2.043   3.994  18.633  0.00  0.00    +0.000 A 
ATOM      3  C   UNL     1       1.537   5.147  19.226  0.00  0.00    +0.000 A 
ATOM      4  C   UNL     1       2.382   6.246  19.421  0.00  0.00    +0.000 A 
ATOM      5  C   UNL     1       3.713   6.151  19.008  0.00  0.00    +0.000 A 
ATOM      6  C   UNL     1       4.141   4.962  18.435  0.00  0.00    +0.000 A 
ATOM      7  N   UNL     1       3.331   3.884  18.235  0.00  0.00    +0.000 NA
ENDROOT
BRANCH   4   8
ATOM      8  C   UNL     1       1.871   7.460  20.046  0.00  0.00    +0.000 A 
ATOM      9  N   UNL     1       1.212   7.461  21.255  0.00  0.00    +0.000 NA
ATOM     10  N   UNL     1       0.860   8.715  21.505  0.00  0.00    +0.000 NA
ATOM     11  N   UNL     1       1.330   9.417  20.458  0.00  0.00    +0.000 N 
ATOM     12  N   UNL     1       1.960   8.690  19.509  0.00  0.00    +0.000 NA
BRANCH  11  13
ATOM     13  C   UNL     1       0.927  10.793  20.224  0.00  0.00    +0.000 C 
BRANCH  13  14
ATOM     14  C   UNL     1      -0.226  10.914  19.257  0.00  0.00    +0.000 A 
ATOM     15  C   UNL     1      -0.470  12.124  18.592  0.00  0.00    +0.000 A 
ATOM     16  C   UNL     1      -1.474  12.210  17.623  0.00  0.00    +0.000 A 
ATOM     17  C   UNL     1      -2.259  11.093  17.308  0.00  0.00    +0.000 A 
ATOM     18  C   UNL     1      -2.037   9.888  17.986  0.00  0.00    +0.000 A 
ATOM     19  C   UNL     1      -1.035   9.805  18.962  0.00  0.00    +0.000 A 
BRANCH  17  20
ATOM     20  C   UNL     1      -3.248  11.228  16.204  0.00  0.00    +0.000 C 
ATOM     21  O   UNL     1      -3.095  10.696  15.119  0.00  0.00    +0.000 OA
BRANCH  20  22
ATOM     22  O   UNL     1      -4.317  11.997  16.494  0.00  0.00    +0.000 OA
ATOM     23  H   UNL     1      -4.195  12.633  17.221  0.00  0.00    +0.000 HD
ENDBRANCH  20  22
ENDBRANCH  17  20
ENDBRANCH  13  14
ENDBRANCH  11  13
ENDBRANCH   4   8
BRANCH   6  24
ATOM     24  C   UNL     1       5.575   4.793  18.017  0.00  0.00    +0.000 C 
ATOM     25  O   UNL     1       6.425   4.395  18.804  0.00  0.00    +0.000 OA
ATOM     26  N   UNL     1       5.830   5.113  16.699  0.00  0.00    +0.000 N 
ATOM     27  H   UNL     1       5.042   5.445  16.152  0.00  0.00    +0.000 HD
BRANCH  26  28
ATOM     28  C   UNL     1       7.141   5.033  16.095  0.00  0.00    +0.000 C 
BRANCH  28  29
ATOM     29  C   UNL     1       7.076   4.729  14.618  0.00  0.00    +0.000 A 
ATOM     30  C   UNL     1       7.854   5.464  13.707  0.00  0.00    +0.000 A 
ATOM     31  C   UNL     1       7.754   5.237  12.331  0.00  0.00    +0.000 A 
ATOM     32  C   UNL     1       6.870   4.275  11.845  0.00  0.00    +0.000 A 
ATOM     33  C   UNL     1       6.100   3.546  12.743  0.00  0.00    +0.000 A 
ATOM     34  F   UNL     1       5.242   2.627  12.276  0.00  0.00    +0.000 F 
ATOM     35  C   UNL     1       6.194   3.761  14.116  0.00  0.00    +0.000 A 
ENDBRANCH  28  29
ENDBRANCH  26  28
ENDBRANCH   6  24
TORSDOF 8
ENDMDL
MODEL 6
REMARK VINA RESULT:      -8.2      1.126      1.529
REMARK  Name = 
REMARK  9 active torsions:
REMARK  status: ('A' for Active; 'I' for Inactive)
REMARK    1  A    between atoms: C_1  and  C_2
REMARK    2  A    between atoms: C_4  and  C_5
REMARK    3  A    between atoms: N_8  and  C_9
REMARK    4  A    between atoms: C_9  and  C_10
REMARK    5  A    between atoms: C_13  and  C_14
REMARK    6  A    between atoms: C_14  and  O_16
REMARK    7  A    between atoms: C_21  and  C_22
REMARK    8  A    between atoms: N_24  and  C_25
REMARK    9  A    between atoms: C_25  and  C_26
REMARK                            x       y       z     vdW  Elec       q    Type
REMARK                         _______ _______ _______ _____ _____    ______ ____
ROOT
ATOM      1  C   UNL     1       1.343   3.842  20.604  0.00  0.00    +0.000 C 
ATOM      2  C   UNL     1       2.159   4.844  19.844  0.00  0.00    +0.000 A 
ATOM      3  C   UNL     1       1.675   6.127  19.608  0.00  0.00    +0.000 A 
ATOM      4  C   UNL     1       2.468   7.040  18.902  0.00  0.00    +0.000 A 
ATOM      5  C   UNL     1       3.725   6.631  18.452  0.00  0.00    +0.000 A 
ATOM      6  C   UNL     1       4.137   5.337  18.739  0.00  0.00    +0.000 A 
ATOM      7  N   UNL     1       3.377   4.434  19.421  0.00  0.00    +0.000 NA
ENDROOT
BRANCH   4   8
ATOM      8  C   UNL     1       1.980   8.392  18.650  0.00  0.00    +0.000 A 
ATOM      9  N   UNL     1       2.283   9.096  17.507  0.00  0.00    +0.000 NA
ATOM     10  N   UNL     1       1.711  10.287  17.623  0.00  0.00    +0.000 NA
ATOM     11  N   UNL     1       1.077  10.249  18.809  0.00  0.00    +0.000 N 
ATOM     12  N   UNL     1       1.217   9.098  19.503  0.00  0.00    +0.000 NA
BRANCH  11  13
ATOM     13  C   UNL     1       0.543  11.452  19.424  0.00  0.00    +0.000 C 
BRANCH  13  14
ATOM     14  C   UNL     1      -0.953  11.580  19.271  0.00  0.00    +0.000 A 
ATOM     15  C   UNL     1      -1.702  12.315  20.201  0.00  0.00    +0.000 A 
ATOM     16  C   UNL     1      -3.071  12.518  20.007  0.00  0.00    +0.000 A 
ATOM     17  C   UNL     1      -3.720  11.980  18.887  0.00  0.00    +0.000 A 
ATOM     18  C   UNL     1      -2.983  11.224  17.967  0.00  0.00    +0.000 A 
ATOM     19  C   UNL     1      -1.612  11.017  18.167  0.00  0.00    +0.000 A 
BRANCH  17  20
ATOM     20  C   UNL     1      -5.158  12.310  18.694  0.00  0.00    +0.000 C 
ATOM     21  O   UNL     1      -5.694  12.292  17.600  0.00  0.00    +0.000 OA
BRANCH  20  22
ATOM     22  O   UNL     1      -5.817  12.645  19.822  0.00  0.00    +0.000 OA
ATOM     23  H   UNL     1      -5.439  13.384  20.329  0.00  0.00    +0.000 HD
ENDBRANCH  20  22
ENDBRANCH  17  20
ENDBRANCH  13  14
ENDBRANCH  11  13
ENDBRANCH   4   8
BRANCH   6  24
ATOM     24  C   UNL     1       5.500   4.862  18.317  0.00  0.00    +0.000 C 
ATOM     25  O   UNL     1       6.310   4.443  19.136  0.00  0.00    +0.000 OA
ATOM     26  N   UNL     1       5.740   4.937  16.960  0.00  0.00    +0.000 N 
ATOM     27  H   UNL     1       4.992   5.318  16.388  0.00  0.00    +0.000 HD
BRANCH  26  28
ATOM     28  C   UNL     1       6.987   4.544  16.345  0.00  0.00    +0.000 C 
BRANCH  28  29
ATOM     29  C   UNL     1       6.899   4.511  14.838  0.00  0.00    +0.000 A 
ATOM     30  C   UNL     1       6.063   3.583  14.196  0.00  0.00    +0.000 A 
ATOM     31  C   UNL     1       6.022   3.498  12.801  0.00  0.00    +0.000 A 
ATOM     32  C   UNL     1       6.822   4.337  12.028  0.00  0.00    +0.000 A 
ATOM     33  C   UNL     1       7.650   5.258  12.659  0.00  0.00    +0.000 A 
ATOM     34  F   UNL     1       8.427   6.059  11.917  0.00  0.00    +0.000 F 
ATOM     35  C   UNL     1       7.696   5.354  14.049  0.00  0.00    +0.000 A 
ENDBRANCH  28  29
ENDBRANCH  26  28
ENDBRANCH   6  24
TORSDOF 8
ENDMDL
MODEL 7
REMARK VINA RESULT:      -8.2      4.437     11.234
REMARK  Name = 
REMARK  9 active torsions:
REMARK  status: ('A' for Active; 'I' for Inactive)
REMARK    1  A    between atoms: C_1  and  C_2
REMARK    2  A    between atoms: C_4  and  C_5
REMARK    3  A    between atoms: N_8  and  C_9
REMARK    4  A    between atoms: C_9  and  C_10
REMARK    5  A    between atoms: C_13  and  C_14
REMARK    6  A    between atoms: C_14  and  O_16
REMARK    7  A    between atoms: C_21  and  C_22
REMARK    8  A    between atoms: N_24  and  C_25
REMARK    9  A    between atoms: C_25  and  C_26
REMARK                            x       y       z     vdW  Elec       q    Type
REMARK                         _______ _______ _______ _____ _____    ______ ____
ROOT
ATOM      1  C   UNL     1      -3.820  10.160  14.282  0.00  0.00    +0.000 C 
ATOM      2  C   UNL     1      -3.456  10.493  15.697  0.00  0.00    +0.000 A 
ATOM      3  C   UNL     1      -2.199  10.176  16.205  0.00  0.00    +0.000 A 
ATOM      4  C   UNL     1      -1.889  10.509  17.528  0.00  0.00    +0.000 A 
ATOM      5  C   UNL     1      -2.859  11.151  18.304  0.00  0.00    +0.000 A 
ATOM      6  C   UNL     1      -4.083  11.440  17.719  0.00  0.00    +0.000 A 
ATOM      7  N   UNL     1      -4.402  11.120  16.433  0.00  0.00    +0.000 NA
ENDROOT
BRANCH   4   8
ATOM      8  C   UNL     1      -0.576  10.190  18.076  0.00  0.00    +0.000 A 
ATOM      9  N   UNL     1       0.074  10.997  18.983  0.00  0.00    +0.000 NA
ATOM     10  N   UNL     1       1.246  10.429  19.237  0.00  0.00    +0.000 NA
ATOM     11  N   UNL     1       1.250   9.306  18.496  0.00  0.00    +0.000 N 
ATOM     12  N   UNL     1       0.148   9.107  17.741  0.00  0.00    +0.000 NA
BRANCH  11  13
ATOM     13  C   UNL     1       2.464   8.534  18.295  0.00  0.00    +0.000 C 
BRANCH  13  14
ATOM     14  C   UNL     1       2.336   7.102  18.755  0.00  0.00    +0.000 A 
ATOM     15  C   UNL     1       2.034   6.810  20.093  0.00  0.00    +0.000 A 
ATOM     16  C   UNL     1       1.817   5.490  20.499  0.00  0.00    +0.000 A 
ATOM     17  C   UNL     1       1.908   4.437  19.579  0.00  0.00    +0.000 A 
ATOM     18  C   UNL     1       2.234   4.719  18.247  0.00  0.00    +0.000 A 
ATOM     19  C   UNL     1       2.458   6.042  17.843  0.00  0.00    +0.000 A 
BRANCH  17  20
ATOM     20  C   UNL     1       1.577   3.068  20.057  0.00  0.00    +0.000 C 
ATOM     21  O   UNL     1       1.948   2.063  19.477  0.00  0.00    +0.000 OA
BRANCH  20  22
ATOM     22  O   UNL     1       0.819   3.026  21.172  0.00  0.00    +0.000 OA
ATOM     23  H   UNL     1       0.281   3.817  21.347  0.00  0.00    +0.000 HD
ENDBRANCH  20  22
ENDBRANCH  17  20
ENDBRANCH  13  14
ENDBRANCH  11  13
ENDBRANCH   4   8
BRANCH   6  24
ATOM     24  C   UNL     1      -5.143  12.171  18.496  0.00  0.00    +0.000 C 
ATOM     25  O   UNL     1      -6.088  12.710  17.933  0.00  0.00    +0.000 OA
ATOM     26  N   UNL     1      -4.955  12.169  19.863  0.00  0.00    +0.000 N 
ATOM     27  H   UNL     1      -4.123  11.699  20.206  0.00  0.00    +0.000 HD
BRANCH  26  28
ATOM     28  C   UNL     1      -5.848  12.822  20.794  0.00  0.00    +0.000 C 
BRANCH  28  29
ATOM     29  C   UNL     1      -5.124  13.352  22.008  0.00  0.00    +0.000 A 
ATOM     30  C   UNL     1      -5.691  14.380  22.780  0.00  0.00    +0.000 A 
ATOM     31  C   UNL     1      -5.001  14.925  23.868  0.00  0.00    +0.000 A 
ATOM     32  C   UNL     1      -3.732  14.454  24.196  0.00  0.00    +0.000 A 
ATOM     33  C   UNL     1      -3.168  13.436  23.435  0.00  0.00    +0.000 A 
ATOM     34  F   UNL     1      -1.943  12.989  23.744  0.00  0.00    +0.000 F 
ATOM     35  C   UNL     1      -3.847  12.883  22.352  0.00  0.00    +0.000 A 
ENDBRANCH  28  29
ENDBRANCH  26  28
ENDBRANCH   6  24
TORSDOF 8
ENDMDL
MODEL 8
REMARK VINA RESULT:      -8.1      4.576     11.539
REMARK  Name = 
REMARK  9 active torsions:
REMARK  status: ('A' for Active; 'I' for Inactive)
REMARK    1  A    between atoms: C_1  and  C_2
REMARK    2  A    between atoms: C_4  and  C_5
REMARK    3  A    between atoms: N_8  and  C_9
REMARK    4  A    between atoms: C_9  and  C_10
REMARK    5  A    between atoms: C_13  and  C_14
REMARK    6  A    between atoms: C_14  and  O_16
REMARK    7  A    between atoms: C_21  and  C_22
REMARK    8  A    between atoms: N_24  and  C_25
REMARK    9  A    between atoms: C_25  and  C_26
REMARK                            x       y       z     vdW  Elec       q    Type
REMARK                         _______ _______ _______ _____ _____    ______ ____
ROOT
ATOM      1  C   UNL     1      -3.287   9.939  14.559  0.00  0.00    +0.000 C 
ATOM      2  C   UNL     1      -3.182  10.360  15.994  0.00  0.00    +0.000 A 
ATOM      3  C   UNL     1      -2.003  10.172  16.709  0.00  0.00    +0.000 A 
ATOM      4  C   UNL     1      -1.936  10.586  18.044  0.00  0.00    +0.000 A 
ATOM      5  C   UNL     1      -3.063  11.175  18.621  0.00  0.00    +0.000 A 
ATOM      6  C   UNL     1      -4.196  11.335  17.837  0.00  0.00    +0.000 A 
ATOM      7  N   UNL     1      -4.280  10.936  16.537  0.00  0.00    +0.000 NA
ENDROOT
BRANCH   4   8
ATOM      8  C   UNL     1      -0.706  10.403  18.807  0.00  0.00    +0.000 A 
ATOM      9  N   UNL     1       0.390  11.224  18.670  0.00  0.00    +0.000 NA
ATOM     10  N   UNL     1       1.331  10.754  19.478  0.00  0.00    +0.000 NA
ATOM     11  N   UNL     1       0.765   9.691  20.079  0.00  0.00    +0.000 N 
ATOM     12  N   UNL     1      -0.500   9.413  19.694  0.00  0.00    +0.000 NA
BRANCH  11  13
ATOM     13  C   UNL     1       1.555   8.744  20.847  0.00  0.00    +0.000 C 
BRANCH  13  14
ATOM     14  C   UNL     1       1.848   7.469  20.093  0.00  0.00    +0.000 A 
ATOM     15  C   UNL     1       2.477   7.514  18.841  0.00  0.00    +0.000 A 
ATOM     16  C   UNL     1       2.839   6.333  18.187  0.00  0.00    +0.000 A 
ATOM     17  C   UNL     1       2.568   5.086  18.766  0.00  0.00    +0.000 A 
ATOM     18  C   UNL     1       1.918   5.034  20.005  0.00  0.00    +0.000 A 
ATOM     19  C   UNL     1       1.551   6.219  20.656  0.00  0.00    +0.000 A 
BRANCH  17  20
ATOM     20  C   UNL     1       3.060   3.872  18.061  0.00  0.00    +0.000 C 
ATOM     21  O   UNL     1       2.486   3.395  17.098  0.00  0.00    +0.000 OA
BRANCH  20  22
ATOM     22  O   UNL     1       4.182   3.332  18.580  0.00  0.00    +0.000 OA
ATOM     23  H   UNL     1       4.268   2.367  18.488  0.00  0.00    +0.000 HD
ENDBRANCH  20  22
ENDBRANCH  17  20
ENDBRANCH  13  14
ENDBRANCH  11  13
ENDBRANCH   4   8
BRANCH   6  24
ATOM     24  C   UNL     1      -5.420  12.006  18.398  0.00  0.00    +0.000 C 
ATOM     25  O   UNL     1      -5.823  13.073  17.950  0.00  0.00    +0.000 OA
ATOM     26  N   UNL     1      -6.030  11.319  19.428  0.00  0.00    +0.000 N 
ATOM     27  H   UNL     1      -5.589  10.451  19.717  0.00  0.00    +0.000 HD
BRANCH  26  28
ATOM     28  C   UNL     1      -7.210  11.791  20.115  0.00  0.00    +0.000 C 
BRANCH  28  29
ATOM     29  C   UNL     1      -6.922  12.196  21.541  0.00  0.00    +0.000 A 
ATOM     30  C   UNL     1      -7.916  12.083  22.526  0.00  0.00    +0.000 A 
ATOM     31  C   UNL     1      -7.683  12.515  23.835  0.00  0.00    +0.000 A 
ATOM     32  C   UNL     1      -6.453  13.073  24.176  0.00  0.00    +0.000 A 
ATOM     33  C   UNL     1      -5.465  13.186  23.204  0.00  0.00    +0.000 A 
ATOM     34  F   UNL     1      -4.284  13.731  23.528  0.00  0.00    +0.000 F 
ATOM     35  C   UNL     1      -5.685  12.754  21.898  0.00  0.00    +0.000 A 
ENDBRANCH  28  29
ENDBRANCH  26  28
ENDBRANCH   6  24
TORSDOF 8
ENDMDL
MODEL 9
REMARK VINA RESULT:      -8.1      4.690     11.385
REMARK  Name = 
REMARK  9 active torsions:
REMARK  status: ('A' for Active; 'I' for Inactive)
REMARK    1  A    between atoms: C_1  and  C_2
REMARK    2  A    between atoms: C_4  and  C_5
REMARK    3  A    between atoms: N_8  and  C_9
REMARK    4  A    between atoms: C_9  and  C_10
REMARK    5  A    between atoms: C_13  and  C_14
REMARK    6  A    between atoms: C_14  and  O_16
REMARK    7  A    between atoms: C_21  and  C_22
REMARK    8  A    between atoms: N_24  and  C_25
REMARK    9  A    between atoms: C_25  and  C_26
REMARK                            x       y       z     vdW  Elec       q    Type
REMARK                         _______ _______ _______ _____ _____    ______ ____
ROOT
ATOM      1  C   UNL     1      -3.540  10.231  14.800  0.00  0.00    +0.000 C 
ATOM      2  C   UNL     1      -3.142  10.535  16.213  0.00  0.00    +0.000 A 
ATOM      3  C   UNL     1      -1.921  10.101  16.720  0.00  0.00    +0.000 A 
ATOM      4  C   UNL     1      -1.577  10.411  18.041  0.00  0.00    +0.000 A 
ATOM      5  C   UNL     1      -2.478  11.147  18.814  0.00  0.00    +0.000 A 
ATOM      6  C   UNL     1      -3.670  11.550  18.229  0.00  0.00    +0.000 A 
ATOM      7  N   UNL     1      -4.022  11.255  16.946  0.00  0.00    +0.000 NA
ENDROOT
BRANCH   4   8
ATOM      8  C   UNL     1      -0.299   9.970  18.588  0.00  0.00    +0.000 A 
ATOM      9  N   UNL     1       0.910  10.264  17.998  0.00  0.00    +0.000 NA
ATOM     10  N   UNL     1       1.850   9.684  18.732  0.00  0.00    +0.000 NA
ATOM     11  N   UNL     1       1.182   9.086  19.734  0.00  0.00    +0.000 N 
ATOM     12  N   UNL     1      -0.162   9.217  19.694  0.00  0.00    +0.000 NA
BRANCH  11  13
ATOM     13  C   UNL     1       1.830   8.126  20.612  0.00  0.00    +0.000 C 
BRANCH  13  14
ATOM     14  C   UNL     1       1.867   6.730  20.037  0.00  0.00    +0.000 A 
ATOM     15  C   UNL     1       1.393   5.642  20.783  0.00  0.00    +0.000 A 
ATOM     16  C   UNL     1       1.334   4.366  20.216  0.00  0.00    +0.000 A 
ATOM     17  C   UNL     1       1.757   4.151  18.898  0.00  0.00    +0.000 A 
ATOM     18  C   UNL     1       2.254   5.229  18.155  0.00  0.00    +0.000 A 
ATOM     19  C   UNL     1       2.319   6.507  18.727  0.00  0.00    +0.000 A 
BRANCH  17  20
ATOM     20  C   UNL     1       1.583   2.789  18.326  0.00  0.00    +0.000 C 
ATOM     21  O   UNL     1       2.476   2.205  17.738  0.00  0.00    +0.000 OA
BRANCH  20  22
ATOM     22  O   UNL     1       0.355   2.258  18.496  0.00  0.00    +0.000 OA
ATOM     23  H   UNL     1      -0.124   2.031  17.680  0.00  0.00    +0.000 HD
ENDBRANCH  20  22
ENDBRANCH  17  20
ENDBRANCH  13  14
ENDBRANCH  11  13
ENDBRANCH   4   8
BRANCH   6  24
ATOM     24  C   UNL     1      -4.653  12.385  19.004  0.00  0.00    +0.000 C 
ATOM     25  O   UNL     1      -5.861  12.256  18.847  0.00  0.00    +0.000 OA
ATOM     26  N   UNL     1      -4.078  13.276  19.887  0.00  0.00    +0.000 N 
ATOM     27  H   UNL     1      -3.063  13.297  19.914  0.00  0.00    +0.000 HD
BRANCH  26  28
ATOM     28  C   UNL     1      -4.837  14.180  20.720  0.00  0.00    +0.000 C 
BRANCH  28  29
ATOM     29  C   UNL     1      -5.370  13.506  21.962  0.00  0.00    +0.000 A 
ATOM     30  C   UNL     1      -6.742  13.232  22.088  0.00  0.00    +0.000 A 
ATOM     31  C   UNL     1      -7.257  12.668  23.260  0.00  0.00    +0.000 A 
ATOM     32  C   UNL     1      -6.408  12.376  24.325  0.00  0.00    +0.000 A 
ATOM     33  C   UNL     1      -5.049  12.644  24.203  0.00  0.00    +0.000 A 
ATOM     34  F   UNL     1      -4.232  12.372  25.231  0.00  0.00    +0.000 F 
ATOM     35  C   UNL     1      -4.524  13.202  23.039  0.00  0.00    +0.000 A 
ENDBRANCH  28  29
ENDBRANCH  26  28
ENDBRANCH   6  24
TORSDOF 8
ENDMDL
