MODEL 1
REMARK VINA RESULT:      -7.6      0.000      0.000
REMARK  Name = 
REMARK  8 active torsions:
REMARK  status: ('A' for Active; 'I' for Inactive)
REMARK    1  A    between atoms: C_1  and  C_2
REMARK    2  A    between atoms: C_2  and  C_3
REMARK    3  A    between atoms: C_8  and  O_9
REMARK    4  A    between atoms: C_16  and  C_17
REMARK    5  A    between atoms: C_21  and  C_22
REMARK    6  A    between atoms: C_22  and  C_23
REMARK    7  A    between atoms: C_23  and  O_24
REMARK    8  A    between atoms: O_24  and  C_25
REMARK                            x       y       z     vdW  Elec       q    Type
REMARK                         _______ _______ _______ _____ _____    ______ ____
ROOT
ATOM      1  C   UNL     1      -0.025   9.856  21.285  0.00  0.00    +0.000 A 
ATOM      2  C   UNL     1       0.719   8.698  21.098  0.00  0.00    +0.000 A 
ATOM      3  C   UNL     1       1.430   8.429  19.911  0.00  0.00    +0.000 A 
ATOM      4  C   UNL     1       1.388   9.378  18.871  0.00  0.00    +0.000 A 
ATOM      5  C   UNL     1       0.603  10.532  19.033  0.00  0.00    +0.000 A 
ATOM      6  C   UNL     1      -0.093  10.769  20.226  0.00  0.00    +0.000 A 
ATOM      7  C   UNL     1       2.120   9.160  17.568  0.00  0.00    +0.000 C 
ATOM      8  C   UNL     1       3.156   8.031  17.604  0.00  0.00    +0.000 C 
ATOM      9  C   UNL     1       2.572   6.808  18.319  0.00  0.00    +0.000 C 
ATOM     10  C   UNL     1       2.298   7.191  19.800  0.00  0.00    +0.000 C 
ATOM     11  C   UNL     1       1.768   5.987  20.615  0.00  0.00    +0.000 C 
ATOM     12  C   UNL     1       2.622   4.726  20.466  0.00  0.00    +0.000 C 
ATOM     13  C   UNL     1       2.835   4.354  18.991  0.00  0.00    +0.000 C 
ATOM     14  C   UNL     1       1.493   3.932  18.340  0.00  0.00    +0.000 C 
ATOM     15  C   UNL     1       3.494   5.582  18.307  0.00  0.00    +0.000 C 
ATOM     16  C   UNL     1       3.985   5.027  16.978  0.00  0.00    +0.000 C 
ATOM     17  C   UNL     1       4.433   3.595  17.312  0.00  0.00    +0.000 C 
ATOM     18  C   UNL     1       3.937   3.288  18.750  0.00  0.00    +0.000 C 
ENDROOT
BRANCH   1  20
ATOM     19  C   UNL     1       0.015   9.485  23.785  0.00  0.00    +0.000 C 
ATOM     20  C   UNL     1      -0.726  10.090  22.603  0.00  0.00    +0.000 C 
ENDBRANCH   1  20
BRANCH   6  21
ATOM     21  O   UNL     1      -0.847  11.894  20.370  0.00  0.00    +0.000 OA
ATOM     22  H   UNL     1      -0.346  12.535  20.902  0.00  0.00    +0.000 HD
ENDBRANCH   6  21
BRANCH  18  23
ATOM     23  C   UNL     1       3.538   1.810  18.937  0.00  0.00    +0.000 C 
BRANCH  23  24
ATOM     24  C   UNL     1       4.655   0.993  19.595  0.00  0.00    +0.000 C 
BRANCH  24  25
ATOM     25  O   UNL     1       5.186   1.652  20.742  0.00  0.00    +0.000 OA
ATOM     26  C   UNL     1       5.669   0.689  21.679  0.00  0.00    +0.000 C 
ENDBRANCH  24  25
ENDBRANCH  23  24
ENDBRANCH  18  23
TORSDOF 5
ENDMDL
MODEL 2
REMARK VINA RESULT:      -7.4      1.897      8.172
REMARK  Name = 
REMARK  8 active torsions:
REMARK  status: ('A' for Active; 'I' for Inactive)
REMARK    1  A    between atoms: C_1  and  C_2
REMARK    2  A    between atoms: C_2  and  C_3
REMARK    3  A    between atoms: C_8  and  O_9
REMARK    4  A    between atoms: C_16  and  C_17
REMARK    5  A    between atoms: C_21  and  C_22
REMARK    6  A    between atoms: C_22  and  C_23
REMARK    7  A    between atoms: C_23  and  O_24
REMARK    8  A    between atoms: O_24  and  C_25
REMARK                            x       y       z     vdW  Elec       q    Type
REMARK                         _______ _______ _______ _____ _____    ______ ____
ROOT
ATOM      1  C   UNL     1       4.201   4.571  17.148  0.00  0.00    +0.000 A 
ATOM      2  C   UNL     1       3.786   5.859  17.461  0.00  0.00    +0.000 A 
ATOM      3  C   UNL     1       2.952   6.147  18.561  0.00  0.00    +0.000 A 
ATOM      4  C   UNL     1       2.524   5.084  19.379  0.00  0.00    +0.000 A 
ATOM      5  C   UNL     1       2.902   3.772  19.045  0.00  0.00    +0.000 A 
ATOM      6  C   UNL     1       3.731   3.520  17.944  0.00  0.00    +0.000 A 
ATOM      7  C   UNL     1       1.627   5.312  20.571  0.00  0.00    +0.000 C 
ATOM      8  C   UNL     1       1.511   6.777  21.007  0.00  0.00    +0.000 C 
ATOM      9  C   UNL     1       1.325   7.675  19.780  0.00  0.00    +0.000 C 
ATOM     10  C   UNL     1       2.607   7.583  18.906  0.00  0.00    +0.000 C 
ATOM     11  C   UNL     1       2.530   8.516  17.674  0.00  0.00    +0.000 C 
ATOM     12  C   UNL     1       2.138   9.954  18.022  0.00  0.00    +0.000 C 
ATOM     13  C   UNL     1       0.844  10.008  18.847  0.00  0.00    +0.000 C 
ATOM     14  C   UNL     1      -0.360   9.525  17.999  0.00  0.00    +0.000 C 
ATOM     15  C   UNL     1       1.085   9.151  20.119  0.00  0.00    +0.000 C 
ATOM     16  C   UNL     1      -0.074   9.532  21.029  0.00  0.00    +0.000 C 
ATOM     17  C   UNL     1      -0.296  11.026  20.747  0.00  0.00    +0.000 C 
ATOM     18  C   UNL     1       0.556  11.386  19.501  0.00  0.00    +0.000 C 
ENDROOT
BRANCH   1  20
ATOM     19  C   UNL     1       5.487   5.637  15.251  0.00  0.00    +0.000 C 
ATOM     20  C   UNL     1       5.129   4.348  15.976  0.00  0.00    +0.000 C 
ENDBRANCH   1  20
BRANCH   6  21
ATOM     21  O   UNL     1       4.093   2.243  17.634  0.00  0.00    +0.000 OA
ATOM     22  H   UNL     1       4.617   1.884  18.370  0.00  0.00    +0.000 HD
ENDBRANCH   6  21
BRANCH  18  23
ATOM     23  C   UNL     1      -0.110  12.458  18.615  0.00  0.00    +0.000 C 
BRANCH  23  24
ATOM     24  C   UNL     1       0.738  13.730  18.518  0.00  0.00    +0.000 C 
BRANCH  24  25
ATOM     25  O   UNL     1       2.050  13.455  18.037  0.00  0.00    +0.000 OA
ATOM     26  C   UNL     1       3.004  14.264  18.726  0.00  0.00    +0.000 C 
ENDBRANCH  24  25
ENDBRANCH  23  24
ENDBRANCH  18  23
TORSDOF 5
ENDMDL
MODEL 3
REMARK VINA RESULT:      -7.3      1.792      8.397
REMARK  Name = 
REMARK  8 active torsions:
REMARK  status: ('A' for Active; 'I' for Inactive)
REMARK    1  A    between atoms: C_1  and  C_2
REMARK    2  A    between atoms: C_2  and  C_3
REMARK    3  A    between atoms: C_8  and  O_9
REMARK    4  A    between atoms: C_16  and  C_17
REMARK    5  A    between atoms: C_21  and  C_22
REMARK    6  A    between atoms: C_22  and  C_23
REMARK    7  A    between atoms: C_23  and  O_24
REMARK    8  A    between atoms: O_24  and  C_25
REMARK                            x       y       z     vdW  Elec       q    Type
REMARK                         _______ _______ _______ _____ _____    ______ ____
ROOT
ATOM      1  C   UNL     1       4.200   4.508  17.119  0.00  0.00    +0.000 A 
ATOM      2  C   UNL     1       3.801   5.800  17.439  0.00  0.00    +0.000 A 
ATOM      3  C   UNL     1       2.971   6.092  18.541  0.00  0.00    +0.000 A 
ATOM      4  C   UNL     1       2.531   5.029  19.354  0.00  0.00    +0.000 A 
ATOM      5  C   UNL     1       2.893   3.716  19.013  0.00  0.00    +0.000 A 
ATOM      6  C   UNL     1       3.719   3.459  17.910  0.00  0.00    +0.000 A 
ATOM      7  C   UNL     1       1.637   5.262  20.548  0.00  0.00    +0.000 C 
ATOM      8  C   UNL     1       1.539   6.726  20.991  0.00  0.00    +0.000 C 
ATOM      9  C   UNL     1       1.363   7.632  19.769  0.00  0.00    +0.000 C 
ATOM     10  C   UNL     1       2.643   7.530  18.894  0.00  0.00    +0.000 C 
ATOM     11  C   UNL     1       2.577   8.470  17.668  0.00  0.00    +0.000 C 
ATOM     12  C   UNL     1       2.202   9.911  18.023  0.00  0.00    +0.000 C 
ATOM     13  C   UNL     1       0.909   9.976  18.849  0.00  0.00    +0.000 C 
ATOM     14  C   UNL     1      -0.301   9.512  17.999  0.00  0.00    +0.000 C 
ATOM     15  C   UNL     1       1.140   9.110  20.117  0.00  0.00    +0.000 C 
ATOM     16  C   UNL     1      -0.013   9.499  21.029  0.00  0.00    +0.000 C 
ATOM     17  C   UNL     1      -0.218  10.998  20.755  0.00  0.00    +0.000 C 
ATOM     18  C   UNL     1       0.638  11.354  19.511  0.00  0.00    +0.000 C 
ENDROOT
BRANCH   1  20
ATOM     19  C   UNL     1       5.495   5.568  15.225  0.00  0.00    +0.000 C 
ATOM     20  C   UNL     1       5.125   4.281  15.945  0.00  0.00    +0.000 C 
ENDBRANCH   1  20
BRANCH   6  21
ATOM     21  O   UNL     1       4.065   2.179  17.593  0.00  0.00    +0.000 OA
ATOM     22  H   UNL     1       3.886   2.037  16.648  0.00  0.00    +0.000 HD
ENDBRANCH   6  21
BRANCH  18  23
ATOM     23  C   UNL     1      -0.016  12.438  18.631  0.00  0.00    +0.000 C 
BRANCH  23  24
ATOM     24  C   UNL     1      -1.259  13.041  19.293  0.00  0.00    +0.000 C 
BRANCH  24  25
ATOM     25  O   UNL     1      -1.037  14.387  19.707  0.00  0.00    +0.000 OA
ATOM     26  C   UNL     1      -0.041  14.993  18.884  0.00  0.00    +0.000 C 
ENDBRANCH  24  25
ENDBRANCH  23  24
ENDBRANCH  18  23
TORSDOF 5
ENDMDL
MODEL 4
REMARK VINA RESULT:      -7.3      1.804      8.283
REMARK  Name = 
REMARK  8 active torsions:
REMARK  status: ('A' for Active; 'I' for Inactive)
REMARK    1  A    between atoms: C_1  and  C_2
REMARK    2  A    between atoms: C_2  and  C_3
REMARK    3  A    between atoms: C_8  and  O_9
REMARK    4  A    between atoms: C_16  and  C_17
REMARK    5  A    between atoms: C_21  and  C_22
REMARK    6  A    between atoms: C_22  and  C_23
REMARK    7  A    between atoms: C_23  and  O_24
REMARK    8  A    between atoms: O_24  and  C_25
REMARK                            x       y       z     vdW  Elec       q    Type
REMARK                         _______ _______ _______ _____ _____    ______ ____
ROOT
ATOM      1  C   UNL     1       4.375   4.603  17.072  0.00  0.00    +0.000 A 
ATOM      2  C   UNL     1       3.918   5.874  17.396  0.00  0.00    +0.000 A 
ATOM      3  C   UNL     1       3.073   6.124  18.497  0.00  0.00    +0.000 A 
ATOM      4  C   UNL     1       2.679   5.039  19.304  0.00  0.00    +0.000 A 
ATOM      5  C   UNL     1       3.100   3.744  18.958  0.00  0.00    +0.000 A 
ATOM      6  C   UNL     1       3.938   3.529  17.856  0.00  0.00    +0.000 A 
ATOM      7  C   UNL     1       1.772   5.226  20.497  0.00  0.00    +0.000 C 
ATOM      8  C   UNL     1       1.608   6.682  20.947  0.00  0.00    +0.000 C 
ATOM      9  C   UNL     1       1.394   7.585  19.728  0.00  0.00    +0.000 C 
ATOM     10  C   UNL     1       2.681   7.544  18.856  0.00  0.00    +0.000 C 
ATOM     11  C   UNL     1       2.575   8.486  17.634  0.00  0.00    +0.000 C 
ATOM     12  C   UNL     1       2.136   9.907  17.994  0.00  0.00    +0.000 C 
ATOM     13  C   UNL     1       0.839   9.910  18.817  0.00  0.00    +0.000 C 
ATOM     14  C   UNL     1      -0.346   9.397  17.962  0.00  0.00    +0.000 C 
ATOM     15  C   UNL     1       1.106   9.050  20.082  0.00  0.00    +0.000 C 
ATOM     16  C   UNL     1      -0.066   9.383  20.993  0.00  0.00    +0.000 C 
ATOM     17  C   UNL     1      -0.336  10.873  20.725  0.00  0.00    +0.000 C 
ATOM     18  C   UNL     1       0.506  11.272  19.484  0.00  0.00    +0.000 C 
ENDROOT
BRANCH   1  20
ATOM     19  C   UNL     1       6.776   4.565  16.284  0.00  0.00    +0.000 C 
ATOM     20  C   UNL     1       5.312   4.422  15.899  0.00  0.00    +0.000 C 
ENDBRANCH   1  20
BRANCH   6  21
ATOM     21  O   UNL     1       4.342   2.268  17.534  0.00  0.00    +0.000 OA
ATOM     22  H   UNL     1       5.269   2.161  17.808  0.00  0.00    +0.000 HD
ENDBRANCH   6  21
BRANCH  18  23
ATOM     23  C   UNL     1      -0.194  12.330  18.608  0.00  0.00    +0.000 C 
BRANCH  23  24
ATOM     24  C   UNL     1      -1.637  12.583  19.056  0.00  0.00    +0.000 C 
BRANCH  24  25
ATOM     25  O   UNL     1      -2.578  11.988  18.166  0.00  0.00    +0.000 OA
ATOM     26  C   UNL     1      -3.844  11.853  18.812  0.00  0.00    +0.000 C 
ENDBRANCH  24  25
ENDBRANCH  23  24
ENDBRANCH  18  23
TORSDOF 5
ENDMDL
MODEL 5
REMARK VINA RESULT:      -7.2      2.460      4.286
REMARK  Name = 
REMARK  8 active torsions:
REMARK  status: ('A' for Active; 'I' for Inactive)
REMARK    1  A    between atoms: C_1  and  C_2
REMARK    2  A    between atoms: C_2  and  C_3
REMARK    3  A    between atoms: C_8  and  O_9
REMARK    4  A    between atoms: C_16  and  C_17
REMARK    5  A    between atoms: C_21  and  C_22
REMARK    6  A    between atoms: C_22  and  C_23
REMARK    7  A    between atoms: C_23  and  O_24
REMARK    8  A    between atoms: O_24  and  C_25
REMARK                            x       y       z     vdW  Elec       q    Type
REMARK                         _______ _______ _______ _____ _____    ______ ____
ROOT
ATOM      1  C   UNL     1       1.020  10.188  19.794  0.00  0.00    +0.000 A 
ATOM      2  C   UNL     1       1.715   9.365  18.917  0.00  0.00    +0.000 A 
ATOM      3  C   UNL     1       1.960   8.001  19.182  0.00  0.00    +0.000 A 
ATOM      4  C   UNL     1       1.474   7.450  20.384  0.00  0.00    +0.000 A 
ATOM      5  C   UNL     1       0.809   8.286  21.296  0.00  0.00    +0.000 A 
ATOM      6  C   UNL     1       0.583   9.637  21.004  0.00  0.00    +0.000 A 
ATOM      7  C   UNL     1       1.700   6.000  20.739  0.00  0.00    +0.000 C 
ATOM      8  C   UNL     1       2.175   5.128  19.572  0.00  0.00    +0.000 C 
ATOM      9  C   UNL     1       3.268   5.857  18.784  0.00  0.00    +0.000 C 
ATOM     10  C   UNL     1       2.645   7.131  18.147  0.00  0.00    +0.000 C 
ATOM     11  C   UNL     1       3.668   7.894  17.273  0.00  0.00    +0.000 C 
ATOM     12  C   UNL     1       4.390   7.003  16.260  0.00  0.00    +0.000 C 
ATOM     13  C   UNL     1       5.030   5.779  16.931  0.00  0.00    +0.000 C 
ATOM     14  C   UNL     1       6.179   6.218  17.874  0.00  0.00    +0.000 C 
ATOM     15  C   UNL     1       3.890   5.018  17.661  0.00  0.00    +0.000 C 
ATOM     16  C   UNL     1       4.516   3.671  17.991  0.00  0.00    +0.000 C 
ATOM     17  C   UNL     1       5.428   3.377  16.789  0.00  0.00    +0.000 C 
ATOM     18  C   UNL     1       5.500   4.677  15.944  0.00  0.00    +0.000 C 
ENDROOT
BRANCH   1  20
ATOM     19  C   UNL     1      -0.555  11.826  18.685  0.00  0.00    +0.000 C 
ATOM     20  C   UNL     1       0.763  11.630  19.419  0.00  0.00    +0.000 C 
ENDBRANCH   1  20
BRANCH   6  21
ATOM     21  O   UNL     1      -0.068  10.435  21.897  0.00  0.00    +0.000 OA
ATOM     22  H   UNL     1       0.523  10.599  22.651  0.00  0.00    +0.000 HD
ENDBRANCH   6  21
BRANCH  18  23
ATOM     23  C   UNL     1       6.876   4.874  15.275  0.00  0.00    +0.000 C 
BRANCH  23  24
ATOM     24  C   UNL     1       6.854   4.483  13.794  0.00  0.00    +0.000 C 
BRANCH  24  25
ATOM     25  O   UNL     1       5.601   3.922  13.414  0.00  0.00    +0.000 OA
ATOM     26  C   UNL     1       5.740   3.196  12.192  0.00  0.00    +0.000 C 
ENDBRANCH  24  25
ENDBRANCH  23  24
ENDBRANCH  18  23
TORSDOF 5
ENDMDL
MODEL 6
REMARK VINA RESULT:      -7.0      2.449      4.265
REMARK  Name = 
REMARK  8 active torsions:
REMARK  status: ('A' for Active; 'I' for Inactive)
REMARK    1  A    between atoms: C_1  and  C_2
REMARK    2  A    between atoms: C_2  and  C_3
REMARK    3  A    between atoms: C_8  and  O_9
REMARK    4  A    between atoms: C_16  and  C_17
REMARK    5  A    between atoms: C_21  and  C_22
REMARK    6  A    between atoms: C_22  and  C_23
REMARK    7  A    between atoms: C_23  and  O_24
REMARK    8  A    between atoms: O_24  and  C_25
REMARK                            x       y       z     vdW  Elec       q    Type
REMARK                         _______ _______ _______ _____ _____    ______ ____
ROOT
ATOM      1  C   UNL     1       1.182  10.673  19.434  0.00  0.00    +0.000 A 
ATOM      2  C   UNL     1       1.809   9.668  18.709  0.00  0.00    +0.000 A 
ATOM      3  C   UNL     1       1.909   8.339  19.173  0.00  0.00    +0.000 A 
ATOM      4  C   UNL     1       1.346   8.018  20.422  0.00  0.00    +0.000 A 
ATOM      5  C   UNL     1       0.748   9.037  21.183  0.00  0.00    +0.000 A 
ATOM      6  C   UNL     1       0.666  10.347  20.694  0.00  0.00    +0.000 A 
ATOM      7  C   UNL     1       1.416   6.620  20.988  0.00  0.00    +0.000 C 
ATOM      8  C   UNL     1       1.825   5.546  19.974  0.00  0.00    +0.000 C 
ATOM      9  C   UNL     1       3.002   6.044  19.129  0.00  0.00    +0.000 C 
ATOM     10  C   UNL     1       2.525   7.266  18.296  0.00  0.00    +0.000 C 
ATOM     11  C   UNL     1       3.638   7.792  17.360  0.00  0.00    +0.000 C 
ATOM     12  C   UNL     1       4.288   6.698  16.509  0.00  0.00    +0.000 C 
ATOM     13  C   UNL     1       4.786   5.528  17.370  0.00  0.00    +0.000 C 
ATOM     14  C   UNL     1       5.954   5.985  18.281  0.00  0.00    +0.000 C 
ATOM     15  C   UNL     1       3.561   4.995  18.159  0.00  0.00    +0.000 C 
ATOM     16  C   UNL     1       4.040   3.655  18.699  0.00  0.00    +0.000 C 
ATOM     17  C   UNL     1       4.943   3.104  17.584  0.00  0.00    +0.000 C 
ATOM     18  C   UNL     1       5.164   4.255  16.567  0.00  0.00    +0.000 C 
ENDROOT
BRANCH   1  20
ATOM     19  C   UNL     1       2.388  12.550  18.247  0.00  0.00    +0.000 C 
ATOM     20  C   UNL     1       1.080  12.063  18.850  0.00  0.00    +0.000 C 
ENDBRANCH   1  20
BRANCH   6  21
ATOM     21  O   UNL     1       0.081  11.325  21.441  0.00  0.00    +0.000 OA
ATOM     22  H   UNL     1      -0.884  11.253  21.341  0.00  0.00    +0.000 HD
ENDBRANCH   6  21
BRANCH  18  23
ATOM     23  C   UNL     1       6.566   4.219  15.926  0.00  0.00    +0.000 C 
BRANCH  23  24
ATOM     24  C   UNL     1       6.546   4.708  14.473  0.00  0.00    +0.000 C 
BRANCH  24  25
ATOM     25  O   UNL     1       7.709   5.467  14.155  0.00  0.00    +0.000 OA
ATOM     26  C   UNL     1       8.004   5.349  12.763  0.00  0.00    +0.000 C 
ENDBRANCH  24  25
ENDBRANCH  23  24
ENDBRANCH  18  23
TORSDOF 5
ENDMDL
MODEL 7
REMARK VINA RESULT:      -7.0      1.801      7.919
REMARK  Name = 
REMARK  8 active torsions:
REMARK  status: ('A' for Active; 'I' for Inactive)
REMARK    1  A    between atoms: C_1  and  C_2
REMARK    2  A    between atoms: C_2  and  C_3
REMARK    3  A    between atoms: C_8  and  O_9
REMARK    4  A    between atoms: C_16  and  C_17
REMARK    5  A    between atoms: C_21  and  C_22
REMARK    6  A    between atoms: C_22  and  C_23
REMARK    7  A    between atoms: C_23  and  O_24
REMARK    8  A    between atoms: O_24  and  C_25
REMARK                            x       y       z     vdW  Elec       q    Type
REMARK                         _______ _______ _______ _____ _____    ______ ____
ROOT
ATOM      1  C   UNL     1       3.074   4.088  20.146  0.00  0.00    +0.000 A 
ATOM      2  C   UNL     1       2.214   5.151  20.389  0.00  0.00    +0.000 A 
ATOM      3  C   UNL     1       2.233   6.338  19.627  0.00  0.00    +0.000 A 
ATOM      4  C   UNL     1       3.162   6.447  18.573  0.00  0.00    +0.000 A 
ATOM      5  C   UNL     1       4.065   5.395  18.349  0.00  0.00    +0.000 A 
ATOM      6  C   UNL     1       4.020   4.229  19.125  0.00  0.00    +0.000 A 
ATOM      7  C   UNL     1       3.246   7.687  17.716  0.00  0.00    +0.000 C 
ATOM      8  C   UNL     1       2.051   8.637  17.856  0.00  0.00    +0.000 C 
ATOM      9  C   UNL     1       1.685   8.804  19.334  0.00  0.00    +0.000 C 
ATOM     10  C   UNL     1       1.210   7.428  19.879  0.00  0.00    +0.000 C 
ATOM     11  C   UNL     1       0.754   7.522  21.354  0.00  0.00    +0.000 C 
ATOM     12  C   UNL     1      -0.245   8.651  21.614  0.00  0.00    +0.000 C 
ATOM     13  C   UNL     1       0.277  10.002  21.102  0.00  0.00    +0.000 C 
ATOM     14  C   UNL     1       1.514  10.450  21.921  0.00  0.00    +0.000 C 
ATOM     15  C   UNL     1       0.571   9.827  19.588  0.00  0.00    +0.000 C 
ATOM     16  C   UNL     1       0.738  11.255  19.090  0.00  0.00    +0.000 C 
ATOM     17  C   UNL     1      -0.276  12.061  19.918  0.00  0.00    +0.000 C 
ATOM     18  C   UNL     1      -0.795  11.123  21.040  0.00  0.00    +0.000 C 
ENDROOT
BRANCH   1  20
ATOM     19  C   UNL     1       1.589   2.658  21.611  0.00  0.00    +0.000 C 
ATOM     20  C   UNL     1       2.963   2.832  20.981  0.00  0.00    +0.000 C 
ENDBRANCH   1  20
BRANCH   6  21
ATOM     21  O   UNL     1       4.900   3.214  18.894  0.00  0.00    +0.000 OA
ATOM     22  H   UNL     1       5.802   3.551  19.029  0.00  0.00    +0.000 HD
ENDBRANCH   6  21
BRANCH  18  23
ATOM     23  C   UNL     1      -1.098  11.877  22.351  0.00  0.00    +0.000 C 
BRANCH  23  24
ATOM     24  C   UNL     1      -2.579  12.254  22.466  0.00  0.00    +0.000 C 
BRANCH  24  25
ATOM     25  O   UNL     1      -3.164  11.738  23.659  0.00  0.00    +0.000 OA
ATOM     26  C   UNL     1      -4.112  12.669  24.181  0.00  0.00    +0.000 C 
ENDBRANCH  24  25
ENDBRANCH  23  24
ENDBRANCH  18  23
TORSDOF 5
ENDMDL
MODEL 8
REMARK VINA RESULT:      -6.9      1.806      7.917
REMARK  Name = 
REMARK  8 active torsions:
REMARK  status: ('A' for Active; 'I' for Inactive)
REMARK    1  A    between atoms: C_1  and  C_2
REMARK    2  A    between atoms: C_2  and  C_3
REMARK    3  A    between atoms: C_8  and  O_9
REMARK    4  A    between atoms: C_16  and  C_17
REMARK    5  A    between atoms: C_21  and  C_22
REMARK    6  A    between atoms: C_22  and  C_23
REMARK    7  A    between atoms: C_23  and  O_24
REMARK    8  A    between atoms: O_24  and  C_25
REMARK                            x       y       z     vdW  Elec       q    Type
REMARK                         _______ _______ _______ _____ _____    ______ ____
ROOT
ATOM      1  C   UNL     1       3.128   3.935  20.195  0.00  0.00    +0.000 A 
ATOM      2  C   UNL     1       2.268   5.006  20.399  0.00  0.00    +0.000 A 
ATOM      3  C   UNL     1       2.325   6.188  19.632  0.00  0.00    +0.000 A 
ATOM      4  C   UNL     1       3.292   6.284  18.613  0.00  0.00    +0.000 A 
ATOM      5  C   UNL     1       4.195   5.224  18.429  0.00  0.00    +0.000 A 
ATOM      6  C   UNL     1       4.112   4.063  19.209  0.00  0.00    +0.000 A 
ATOM      7  C   UNL     1       3.419   7.519  17.753  0.00  0.00    +0.000 C 
ATOM      8  C   UNL     1       2.227   8.478  17.842  0.00  0.00    +0.000 C 
ATOM      9  C   UNL     1       1.807   8.657  19.305  0.00  0.00    +0.000 C 
ATOM     10  C   UNL     1       1.301   7.287  19.840  0.00  0.00    +0.000 C 
ATOM     11  C   UNL     1       0.791   7.393  21.296  0.00  0.00    +0.000 C 
ATOM     12  C   UNL     1      -0.208   8.532  21.511  0.00  0.00    +0.000 C 
ATOM     13  C   UNL     1       0.343   9.876  21.012  0.00  0.00    +0.000 C 
ATOM     14  C   UNL     1       1.551  10.319  21.874  0.00  0.00    +0.000 C 
ATOM     15  C   UNL     1       0.691   9.690  19.511  0.00  0.00    +0.000 C 
ATOM     16  C   UNL     1       0.888  11.113  19.012  0.00  0.00    +0.000 C 
ATOM     17  C   UNL     1      -0.150  11.931  19.797  0.00  0.00    +0.000 C 
ATOM     18  C   UNL     1      -0.718  11.004  20.904  0.00  0.00    +0.000 C 
ENDROOT
BRANCH   1  20
ATOM     19  C   UNL     1       1.587   2.541  21.635  0.00  0.00    +0.000 C 
ATOM     20  C   UNL     1       2.976   2.685  21.033  0.00  0.00    +0.000 C 
ENDBRANCH   1  20
BRANCH   6  21
ATOM     21  O   UNL     1       4.993   3.041  19.017  0.00  0.00    +0.000 OA
ATOM     22  H   UNL     1       4.712   2.535  18.235  0.00  0.00    +0.000 HD
ENDBRANCH   6  21
BRANCH  18  23
ATOM     23  C   UNL     1      -1.064  11.768  22.198  0.00  0.00    +0.000 C 
BRANCH  23  24
ATOM     24  C   UNL     1      -0.666  13.246  22.115  0.00  0.00    +0.000 C 
BRANCH  24  25
ATOM     25  O   UNL     1      -0.322  13.772  23.394  0.00  0.00    +0.000 OA
ATOM     26  C   UNL     1      -1.400  14.554  23.908  0.00  0.00    +0.000 C 
ENDBRANCH  24  25
ENDBRANCH  23  24
ENDBRANCH  18  23
TORSDOF 5
ENDMDL
MODEL 9
REMARK VINA RESULT:      -6.8      1.047      1.217
REMARK  Name = 
REMARK  8 active torsions:
REMARK  status: ('A' for Active; 'I' for Inactive)
REMARK    1  A    between atoms: C_1  and  C_2
REMARK    2  A    between atoms: C_2  and  C_3
REMARK    3  A    between atoms: C_8  and  O_9
REMARK    4  A    between atoms: C_16  and  C_17
REMARK    5  A    between atoms: C_21  and  C_22
REMARK    6  A    between atoms: C_22  and  C_23
REMARK    7  A    between atoms: C_23  and  O_24
REMARK    8  A    between atoms: O_24  and  C_25
REMARK                            x       y       z     vdW  Elec       q    Type
REMARK                         _______ _______ _______ _____ _____    ______ ____
ROOT
ATOM      1  C   UNL     1      -0.193  10.134  21.312  0.00  0.00    +0.000 A 
ATOM      2  C   UNL     1       0.603   9.020  21.080  0.00  0.00    +0.000 A 
ATOM      3  C   UNL     1       1.327   8.833  19.884  0.00  0.00    +0.000 A 
ATOM      4  C   UNL     1       1.241   9.821  18.884  0.00  0.00    +0.000 A 
ATOM      5  C   UNL     1       0.404  10.929  19.091  0.00  0.00    +0.000 A 
ATOM      6  C   UNL     1      -0.303  11.085  20.290  0.00  0.00    +0.000 A 
ATOM      7  C   UNL     1       1.982   9.690  17.575  0.00  0.00    +0.000 C 
ATOM      8  C   UNL     1       3.069   8.609  17.567  0.00  0.00    +0.000 C 
ATOM      9  C   UNL     1       2.543   7.332  18.230  0.00  0.00    +0.000 C 
ATOM     10  C   UNL     1       2.251   7.642  19.726  0.00  0.00    +0.000 C 
ATOM     11  C   UNL     1       1.778   6.383  20.490  0.00  0.00    +0.000 C 
ATOM     12  C   UNL     1       2.689   5.170  20.291  0.00  0.00    +0.000 C 
ATOM     13  C   UNL     1       2.919   4.868  18.803  0.00  0.00    +0.000 C 
ATOM     14  C   UNL     1       1.599   4.411  18.133  0.00  0.00    +0.000 C 
ATOM     15  C   UNL     1       3.521   6.151  18.171  0.00  0.00    +0.000 C 
ATOM     16  C   UNL     1       4.038   5.675  16.821  0.00  0.00    +0.000 C 
ATOM     17  C   UNL     1       4.551   4.253  17.099  0.00  0.00    +0.000 C 
ATOM     18  C   UNL     1       4.070   3.865  18.522  0.00  0.00    +0.000 C 
ENDROOT
BRANCH   1  20
ATOM     19  C   UNL     1      -0.190   9.571  23.776  0.00  0.00    +0.000 C 
ATOM     20  C   UNL     1      -0.905  10.282  22.637  0.00  0.00    +0.000 C 
ENDBRANCH   1  20
BRANCH   6  21
ATOM     21  O   UNL     1      -1.109  12.168  20.479  0.00  0.00    +0.000 OA
ATOM     22  H   UNL     1      -1.057  12.431  21.413  0.00  0.00    +0.000 HD
ENDBRANCH   6  21
BRANCH  18  23
ATOM     23  C   UNL     1       3.740   2.364  18.648  0.00  0.00    +0.000 C 
BRANCH  23  24
ATOM     24  C   UNL     1       3.435   1.963  20.096  0.00  0.00    +0.000 C 
BRANCH  24  25
ATOM     25  O   UNL     1       2.035   1.828  20.322  0.00  0.00    +0.000 OA
ATOM     26  C   UNL     1       1.689   2.381  21.592  0.00  0.00    +0.000 C 
ENDBRANCH  24  25
ENDBRANCH  23  24
ENDBRANCH  18  23
TORSDOF 5
ENDMDL
