MODEL 1
REMARK VINA RESULT:      -7.8      0.000      0.000
REMARK  Name = 
REMARK  6 active torsions:
REMARK  status: ('A' for Active; 'I' for Inactive)
REMARK    1  A    between atoms: C_1  and  C_2
REMARK    2  A    between atoms: C_5  and  C_6
REMARK    3  A    between atoms: C_7  and  C_8
REMARK    4  A    between atoms: C_8  and  N_9
REMARK    5  A    between atoms: C_10  and  C_12
REMARK    6  A    between atoms: N_14  and  C_15
REMARK                            x       y       z     vdW  Elec       q    Type
REMARK                         _______ _______ _______ _____ _____    ______ ____
ROOT
ATOM      1  N   UNL     1       4.063   4.441  17.271  0.00  0.00    +0.000 N 
ATOM      2  C   UNL     1       3.842   4.424  18.629  0.00  0.00    +0.000 C 
ATOM      3  O   UNL     1       4.460   3.786  19.467  0.00  0.00    +0.000 OA
ATOM      4  H   UNL     1       3.400   4.980  16.717  0.00  0.00    +0.000 HD
ENDROOT
BRANCH   2   5
ATOM      5  C   UNL     1       2.670   5.338  19.043  0.00  0.00    +0.000 C 
ATOM      6  O   UNL     1       1.590   4.800  19.256  0.00  0.00    +0.000 OA
ATOM      7  N   UNL     1       2.984   6.684  19.090  0.00  0.00    +0.000 N 
ATOM      8  H   UNL     1       3.926   6.925  18.792  0.00  0.00    +0.000 HD
BRANCH   7   9
ATOM      9  C   UNL     1       2.091   7.725  19.429  0.00  0.00    +0.000 A 
ATOM     10  C   UNL     1       1.722   8.730  18.525  0.00  0.00    +0.000 A 
ATOM     11  C   UNL     1       0.856   9.761  18.902  0.00  0.00    +0.000 A 
ATOM     12  C   UNL     1       0.347   9.798  20.196  0.00  0.00    +0.000 A 
ATOM     13 CL   UNL     1      -0.704  11.081  20.653  0.00  0.00    +0.000 Cl
ATOM     14  C   UNL     1       0.697   8.795  21.095  0.00  0.00    +0.000 A 
ATOM     15  F   UNL     1       0.222   8.815  22.350  0.00  0.00    +0.000 F 
ATOM     16  C   UNL     1       1.554   7.756  20.719  0.00  0.00    +0.000 A 
ENDBRANCH   7   9
ENDBRANCH   2   5
BRANCH   1  17
ATOM     17  C   UNL     1       4.997   3.585  16.596  0.00  0.00    +0.000 C 
BRANCH  17  24
ATOM     18  C   UNL     1       5.783   3.738  13.475  0.00  0.00    +0.000 C 
ATOM     19  C   UNL     1       6.390   4.498  14.596  0.00  0.00    +0.000 A 
ATOM     20  N   UNL     1       7.376   5.369  14.358  0.00  0.00    +0.000 NA
ATOM     21  N   UNL     1       7.681   5.856  15.564  0.00  0.00    +0.000 N 
ATOM     22  C   UNL     1       6.932   5.327  16.579  0.00  0.00    +0.000 A 
ATOM     23  C   UNL     1       7.138   5.746  17.986  0.00  0.00    +0.000 C 
ATOM     24  C   UNL     1       6.057   4.433  15.979  0.00  0.00    +0.000 A 
ATOM     25  H   UNL     1       8.415   6.554  15.625  0.00  0.00    +0.000 HD
ENDBRANCH  17  24
ENDBRANCH   1  17
TORSDOF 4
ENDMDL
MODEL 2
REMARK VINA RESULT:      -7.6      0.338      1.762
REMARK  Name = 
REMARK  6 active torsions:
REMARK  status: ('A' for Active; 'I' for Inactive)
REMARK    1  A    between atoms: C_1  and  C_2
REMARK    2  A    between atoms: C_5  and  C_6
REMARK    3  A    between atoms: C_7  and  C_8
REMARK    4  A    between atoms: C_8  and  N_9
REMARK    5  A    between atoms: C_10  and  C_12
REMARK    6  A    between atoms: N_14  and  C_15
REMARK                            x       y       z     vdW  Elec       q    Type
REMARK                         _______ _______ _______ _____ _____    ______ ____
ROOT
ATOM      1  N   UNL     1       4.171   4.351  17.114  0.00  0.00    +0.000 N 
ATOM      2  C   UNL     1       3.861   4.288  18.453  0.00  0.00    +0.000 C 
ATOM      3  O   UNL     1       4.383   3.577  19.297  0.00  0.00    +0.000 OA
ATOM      4  H   UNL     1       3.578   4.955  16.546  0.00  0.00    +0.000 HD
ENDROOT
BRANCH   2   5
ATOM      5  C   UNL     1       2.721   5.256  18.836  0.00  0.00    +0.000 C 
ATOM      6  O   UNL     1       1.631   4.759  19.096  0.00  0.00    +0.000 OA
ATOM      7  N   UNL     1       3.071   6.593  18.805  0.00  0.00    +0.000 N 
ATOM      8  H   UNL     1       4.015   6.791  18.478  0.00  0.00    +0.000 HD
BRANCH   7   9
ATOM      9  C   UNL     1       2.213   7.675  19.101  0.00  0.00    +0.000 A 
ATOM     10  C   UNL     1       1.814   8.611  18.139  0.00  0.00    +0.000 A 
ATOM     11  C   UNL     1       0.984   9.685  18.473  0.00  0.00    +0.000 A 
ATOM     12  C   UNL     1       0.542   9.836  19.783  0.00  0.00    +0.000 A 
ATOM     13 CL   UNL     1      -0.465  11.171  20.185  0.00  0.00    +0.000 Cl
ATOM     14  C   UNL     1       0.922   8.901  20.743  0.00  0.00    +0.000 A 
ATOM     15  F   UNL     1       0.512   9.032  22.013  0.00  0.00    +0.000 F 
ATOM     16  C   UNL     1       1.742   7.819  20.410  0.00  0.00    +0.000 A 
ENDBRANCH   7   9
ENDBRANCH   2   5
BRANCH   1  17
ATOM     17  C   UNL     1       5.094   3.468  16.459  0.00  0.00    +0.000 C 
BRANCH  17  24
ATOM     18  C   UNL     1       7.181   5.576  17.718  0.00  0.00    +0.000 C 
ATOM     19  C   UNL     1       7.017   5.215  16.287  0.00  0.00    +0.000 A 
ATOM     20  N   UNL     1       7.793   5.784  15.359  0.00  0.00    +0.000 NA
ATOM     21  N   UNL     1       7.377   5.244  14.210  0.00  0.00    +0.000 N 
ATOM     22  C   UNL     1       6.353   4.349  14.357  0.00  0.00    +0.000 A 
ATOM     23  C   UNL     1       5.762   3.658  13.187  0.00  0.00    +0.000 C 
ATOM     24  C   UNL     1       6.092   4.291  15.719  0.00  0.00    +0.000 A 
ATOM     25  H   UNL     1       7.840   5.532  13.353  0.00  0.00    +0.000 HD
ENDBRANCH  17  24
ENDBRANCH   1  17
TORSDOF 4
ENDMDL
MODEL 3
REMARK VINA RESULT:      -7.6      1.339      1.695
REMARK  Name = 
REMARK  6 active torsions:
REMARK  status: ('A' for Active; 'I' for Inactive)
REMARK    1  A    between atoms: C_1  and  C_2
REMARK    2  A    between atoms: C_5  and  C_6
REMARK    3  A    between atoms: C_7  and  C_8
REMARK    4  A    between atoms: C_8  and  N_9
REMARK    5  A    between atoms: C_10  and  C_12
REMARK    6  A    between atoms: N_14  and  C_15
REMARK                            x       y       z     vdW  Elec       q    Type
REMARK                         _______ _______ _______ _____ _____    ______ ____
ROOT
ATOM      1  N   UNL     1       4.239   4.056  16.867  0.00  0.00    +0.000 N 
ATOM      2  C   UNL     1       3.534   3.569  17.944  0.00  0.00    +0.000 C 
ATOM      3  O   UNL     1       3.605   2.449  18.424  0.00  0.00    +0.000 OA
ATOM      4  H   UNL     1       3.996   4.997  16.562  0.00  0.00    +0.000 HD
ENDROOT
BRANCH   2   5
ATOM      5  C   UNL     1       2.578   4.623  18.542  0.00  0.00    +0.000 C 
ATOM      6  O   UNL     1       1.472   4.233  18.899  0.00  0.00    +0.000 OA
ATOM      7  N   UNL     1       3.088   5.908  18.570  0.00  0.00    +0.000 N 
ATOM      8  H   UNL     1       4.004   6.025  18.142  0.00  0.00    +0.000 HD
BRANCH   7   9
ATOM      9  C   UNL     1       2.413   7.049  19.055  0.00  0.00    +0.000 A 
ATOM     10  C   UNL     1       1.954   7.154  20.374  0.00  0.00    +0.000 A 
ATOM     11  C   UNL     1       1.267   8.290  20.815  0.00  0.00    +0.000 A 
ATOM     12  C   UNL     1       1.030   9.339  19.934  0.00  0.00    +0.000 A 
ATOM     13 CL   UNL     1       0.168  10.723  20.482  0.00  0.00    +0.000 Cl
ATOM     14  C   UNL     1       1.497   9.250  18.625  0.00  0.00    +0.000 A 
ATOM     15  F   UNL     1       1.273  10.248  17.757  0.00  0.00    +0.000 F 
ATOM     16  C   UNL     1       2.194   8.121  18.184  0.00  0.00    +0.000 A 
ENDBRANCH   7   9
ENDBRANCH   2   5
BRANCH   1  17
ATOM     17  C   UNL     1       5.095   3.257  16.037  0.00  0.00    +0.000 C 
BRANCH  17  24
ATOM     18  C   UNL     1       5.723   3.547  12.889  0.00  0.00    +0.000 C 
ATOM     19  C   UNL     1       6.371   4.275  14.009  0.00  0.00    +0.000 A 
ATOM     20  N   UNL     1       7.329   5.173  13.758  0.00  0.00    +0.000 NA
ATOM     21  N   UNL     1       7.684   5.619  14.967  0.00  0.00    +0.000 N 
ATOM     22  C   UNL     1       6.996   5.036  15.995  0.00  0.00    +0.000 A 
ATOM     23  C   UNL     1       7.264   5.404  17.406  0.00  0.00    +0.000 C 
ATOM     24  C   UNL     1       6.108   4.149  15.403  0.00  0.00    +0.000 A 
ATOM     25  H   UNL     1       8.408   6.329  15.019  0.00  0.00    +0.000 HD
ENDBRANCH  17  24
ENDBRANCH   1  17
TORSDOF 4
ENDMDL
MODEL 4
REMARK VINA RESULT:      -7.6      1.200      1.447
REMARK  Name = 
REMARK  6 active torsions:
REMARK  status: ('A' for Active; 'I' for Inactive)
REMARK    1  A    between atoms: C_1  and  C_2
REMARK    2  A    between atoms: C_5  and  C_6
REMARK    3  A    between atoms: C_7  and  C_8
REMARK    4  A    between atoms: C_8  and  N_9
REMARK    5  A    between atoms: C_10  and  C_12
REMARK    6  A    between atoms: N_14  and  C_15
REMARK                            x       y       z     vdW  Elec       q    Type
REMARK                         _______ _______ _______ _____ _____    ______ ____
ROOT
ATOM      1  N   UNL     1       4.655   5.223  19.429  0.00  0.00    +0.000 N 
ATOM      2  C   UNL     1       3.490   4.562  19.743  0.00  0.00    +0.000 C 
ATOM      3  O   UNL     1       3.328   3.355  19.827  0.00  0.00    +0.000 OA
ATOM      4  H   UNL     1       4.583   6.235  19.337  0.00  0.00    +0.000 HD
ENDROOT
BRANCH   2   5
ATOM      5  C   UNL     1       2.317   5.532  20.001  0.00  0.00    +0.000 C 
ATOM      6  O   UNL     1       1.229   5.034  20.263  0.00  0.00    +0.000 OA
ATOM      7  N   UNL     1       2.642   6.869  19.868  0.00  0.00    +0.000 N 
ATOM      8  H   UNL     1       3.593   7.061  19.560  0.00  0.00    +0.000 HD
BRANCH   7   9
ATOM      9  C   UNL     1       1.752   7.953  20.040  0.00  0.00    +0.000 A 
ATOM     10  C   UNL     1       1.503   8.895  19.034  0.00  0.00    +0.000 A 
ATOM     11  C   UNL     1       0.635   9.971  19.248  0.00  0.00    +0.000 A 
ATOM     12  C   UNL     1       0.003  10.115  20.478  0.00  0.00    +0.000 A 
ATOM     13 CL   UNL     1      -1.049  11.452  20.734  0.00  0.00    +0.000 Cl
ATOM     14  C   UNL     1       0.233   9.174  21.478  0.00  0.00    +0.000 A 
ATOM     15  F   UNL     1      -0.361   9.299  22.674  0.00  0.00    +0.000 F 
ATOM     16  C   UNL     1       1.092   8.091  21.265  0.00  0.00    +0.000 A 
ENDBRANCH   7   9
ENDBRANCH   2   5
BRANCH   1  17
ATOM     17  C   UNL     1       5.863   4.570  19.010  0.00  0.00    +0.000 C 
BRANCH  17  24
ATOM     18  C   UNL     1       4.996   3.990  15.961  0.00  0.00    +0.000 C 
ATOM     19  C   UNL     1       5.975   4.995  16.444  0.00  0.00    +0.000 A 
ATOM     20  N   UNL     1       6.602   5.791  15.572  0.00  0.00    +0.000 NA
ATOM     21  N   UNL     1       7.396   6.550  16.334  0.00  0.00    +0.000 N 
ATOM     22  C   UNL     1       7.311   6.270  17.671  0.00  0.00    +0.000 A 
ATOM     23  C   UNL     1       8.125   7.010  18.664  0.00  0.00    +0.000 C 
ATOM     24  C   UNL     1       6.372   5.255  17.788  0.00  0.00    +0.000 A 
ATOM     25  H   UNL     1       7.973   7.247  15.875  0.00  0.00    +0.000 HD
ENDBRANCH  17  24
ENDBRANCH   1  17
TORSDOF 4
ENDMDL
MODEL 5
REMARK VINA RESULT:      -7.6      1.525      1.982
REMARK  Name = 
REMARK  6 active torsions:
REMARK  status: ('A' for Active; 'I' for Inactive)
REMARK    1  A    between atoms: C_1  and  C_2
REMARK    2  A    between atoms: C_5  and  C_6
REMARK    3  A    between atoms: C_7  and  C_8
REMARK    4  A    between atoms: C_8  and  N_9
REMARK    5  A    between atoms: C_10  and  C_12
REMARK    6  A    between atoms: N_14  and  C_15
REMARK                            x       y       z     vdW  Elec       q    Type
REMARK                         _______ _______ _______ _____ _____    ______ ____
ROOT
ATOM      1  N   UNL     1       4.615   5.139  19.328  0.00  0.00    +0.000 N 
ATOM      2  C   UNL     1       3.503   4.500  19.826  0.00  0.00    +0.000 C 
ATOM      3  O   UNL     1       3.379   3.307  20.052  0.00  0.00    +0.000 OA
ATOM      4  H   UNL     1       4.510   6.134  19.137  0.00  0.00    +0.000 HD
ENDROOT
BRANCH   2   5
ATOM      5  C   UNL     1       2.339   5.477  20.098  0.00  0.00    +0.000 C 
ATOM      6  O   UNL     1       1.253   4.985  20.382  0.00  0.00    +0.000 OA
ATOM      7  N   UNL     1       2.667   6.812  19.950  0.00  0.00    +0.000 N 
ATOM      8  H   UNL     1       3.613   6.997  19.624  0.00  0.00    +0.000 HD
BRANCH   7   9
ATOM      9  C   UNL     1       1.784   7.900  20.131  0.00  0.00    +0.000 A 
ATOM     10  C   UNL     1       1.154   8.169  21.352  0.00  0.00    +0.000 A 
ATOM     11  C   UNL     1       0.266   9.241  21.488  0.00  0.00    +0.000 A 
ATOM     12  C   UNL     1      -0.003  10.059  20.396  0.00  0.00    +0.000 A 
ATOM     13 CL   UNL     1      -1.111  11.363  20.571  0.00  0.00    +0.000 Cl
ATOM     14  C   UNL     1       0.631   9.807  19.182  0.00  0.00    +0.000 A 
ATOM     15  F   UNL     1       0.380  10.580  18.115  0.00  0.00    +0.000 F 
ATOM     16  C   UNL     1       1.528   8.743  19.045  0.00  0.00    +0.000 A 
ENDBRANCH   7   9
ENDBRANCH   2   5
BRANCH   1  17
ATOM     17  C   UNL     1       5.791   4.461  18.859  0.00  0.00    +0.000 C 
BRANCH  17  24
ATOM     18  C   UNL     1       4.972   4.117  15.761  0.00  0.00    +0.000 C 
ATOM     19  C   UNL     1       5.965   5.061  16.332  0.00  0.00    +0.000 A 
ATOM     20  N   UNL     1       6.630   5.899  15.530  0.00  0.00    +0.000 NA
ATOM     21  N   UNL     1       7.426   6.582  16.358  0.00  0.00    +0.000 N 
ATOM     22  C   UNL     1       7.307   6.212  17.669  0.00  0.00    +0.000 A 
ATOM     23  C   UNL     1       8.119   6.859  18.727  0.00  0.00    +0.000 C 
ATOM     24  C   UNL     1       6.341   5.216  17.697  0.00  0.00    +0.000 A 
ATOM     25  H   UNL     1       8.030   7.294  15.959  0.00  0.00    +0.000 HD
ENDBRANCH  17  24
ENDBRANCH   1  17
TORSDOF 4
ENDMDL
MODEL 6
REMARK VINA RESULT:      -7.5      1.277      2.397
REMARK  Name = 
REMARK  6 active torsions:
REMARK  status: ('A' for Active; 'I' for Inactive)
REMARK    1  A    between atoms: C_1  and  C_2
REMARK    2  A    between atoms: C_5  and  C_6
REMARK    3  A    between atoms: C_7  and  C_8
REMARK    4  A    between atoms: C_8  and  N_9
REMARK    5  A    between atoms: C_10  and  C_12
REMARK    6  A    between atoms: N_14  and  C_15
REMARK                            x       y       z     vdW  Elec       q    Type
REMARK                         _______ _______ _______ _____ _____    ______ ____
ROOT
ATOM      1  N   UNL     1       4.232   4.128  16.588  0.00  0.00    +0.000 N 
ATOM      2  C   UNL     1       3.766   3.929  17.867  0.00  0.00    +0.000 C 
ATOM      3  O   UNL     1       4.123   3.066  18.654  0.00  0.00    +0.000 OA
ATOM      4  H   UNL     1       3.764   4.857  16.051  0.00  0.00    +0.000 HD
ENDROOT
BRANCH   2   5
ATOM      5  C   UNL     1       2.681   4.953  18.261  0.00  0.00    +0.000 C 
ATOM      6  O   UNL     1       1.521   4.672  17.984  0.00  0.00    +0.000 OA
ATOM      7  N   UNL     1       3.168   6.100  18.861  0.00  0.00    +0.000 N 
ATOM      8  H   UNL     1       4.182   6.167  18.921  0.00  0.00    +0.000 HD
BRANCH   7   9
ATOM      9  C   UNL     1       2.388   7.191  19.304  0.00  0.00    +0.000 A 
ATOM     10  C   UNL     1       1.833   7.253  20.588  0.00  0.00    +0.000 A 
ATOM     11  C   UNL     1       1.044   8.337  20.985  0.00  0.00    +0.000 A 
ATOM     12  C   UNL     1       0.800   9.377  20.095  0.00  0.00    +0.000 A 
ATOM     13 CL   UNL     1      -0.187  10.697  20.589  0.00  0.00    +0.000 Cl
ATOM     14  C   UNL     1       1.360   9.330  18.821  0.00  0.00    +0.000 A 
ATOM     15  F   UNL     1       1.131  10.320  17.944  0.00  0.00    +0.000 F 
ATOM     16  C   UNL     1       2.159   8.254  18.424  0.00  0.00    +0.000 A 
ENDBRANCH   7   9
ENDBRANCH   2   5
BRANCH   1  17
ATOM     17  C   UNL     1       5.141   3.244  15.915  0.00  0.00    +0.000 C 
BRANCH  17  24
ATOM     18  C   UNL     1       7.268   5.371  17.071  0.00  0.00    +0.000 C 
ATOM     19  C   UNL     1       7.047   4.998  15.652  0.00  0.00    +0.000 A 
ATOM     20  N   UNL     1       7.783   5.562  14.689  0.00  0.00    +0.000 NA
ATOM     21  N   UNL     1       7.324   5.011  13.561  0.00  0.00    +0.000 N 
ATOM     22  C   UNL     1       6.310   4.113  13.757  0.00  0.00    +0.000 A 
ATOM     23  C   UNL     1       5.675   3.410  12.617  0.00  0.00    +0.000 C 
ATOM     24  C   UNL     1       6.105   4.065  15.129  0.00  0.00    +0.000 A 
ATOM     25  H   UNL     1       7.751   5.294  12.685  0.00  0.00    +0.000 HD
ENDBRANCH  17  24
ENDBRANCH   1  17
TORSDOF 4
ENDMDL
MODEL 7
REMARK VINA RESULT:      -7.5      1.457      2.543
REMARK  Name = 
REMARK  6 active torsions:
REMARK  status: ('A' for Active; 'I' for Inactive)
REMARK    1  A    between atoms: C_1  and  C_2
REMARK    2  A    between atoms: C_5  and  C_6
REMARK    3  A    between atoms: C_7  and  C_8
REMARK    4  A    between atoms: C_8  and  N_9
REMARK    5  A    between atoms: C_10  and  C_12
REMARK    6  A    between atoms: N_14  and  C_15
REMARK                            x       y       z     vdW  Elec       q    Type
REMARK                         _______ _______ _______ _____ _____    ______ ____
ROOT
ATOM      1  N   UNL     1       4.786   5.140  19.287  0.00  0.00    +0.000 N 
ATOM      2  C   UNL     1       3.663   4.489  19.745  0.00  0.00    +0.000 C 
ATOM      3  O   UNL     1       3.554   3.300  19.997  0.00  0.00    +0.000 OA
ATOM      4  H   UNL     1       4.670   6.127  19.064  0.00  0.00    +0.000 HD
ENDROOT
BRANCH   2   5
ATOM      5  C   UNL     1       2.466   5.446  19.930  0.00  0.00    +0.000 C 
ATOM      6  O   UNL     1       1.358   4.936  20.046  0.00  0.00    +0.000 OA
ATOM      7  N   UNL     1       2.798   6.788  19.908  0.00  0.00    +0.000 N 
ATOM      8  H   UNL     1       3.776   6.994  19.714  0.00  0.00    +0.000 HD
BRANCH   7   9
ATOM      9  C   UNL     1       1.891   7.861  20.044  0.00  0.00    +0.000 A 
ATOM     10  C   UNL     1       1.234   8.150  21.247  0.00  0.00    +0.000 A 
ATOM     11  C   UNL     1       0.321   9.206  21.340  0.00  0.00    +0.000 A 
ATOM     12  C   UNL     1       0.055   9.989  20.222  0.00  0.00    +0.000 A 
ATOM     13 CL   UNL     1      -1.082  11.274  20.344  0.00  0.00    +0.000 Cl
ATOM     14  C   UNL     1       0.715   9.719  19.026  0.00  0.00    +0.000 A 
ATOM     15  F   UNL     1       0.468  10.458  17.934  0.00  0.00    +0.000 F 
ATOM     16  C   UNL     1       1.637   8.671  18.932  0.00  0.00    +0.000 A 
ENDBRANCH   7   9
ENDBRANCH   2   5
BRANCH   1  17
ATOM     17  C   UNL     1       5.999   4.478  18.898  0.00  0.00    +0.000 C 
BRANCH  17  24
ATOM     18  C   UNL     1       8.035   6.970  18.722  0.00  0.00    +0.000 C 
ATOM     19  C   UNL     1       7.423   6.224  17.594  0.00  0.00    +0.000 A 
ATOM     20  N   UNL     1       7.709   6.564  16.333  0.00  0.00    +0.000 NA
ATOM     21  N   UNL     1       6.998   5.708  15.594  0.00  0.00    +0.000 N 
ATOM     22  C   UNL     1       6.253   4.827  16.331  0.00  0.00    +0.000 A 
ATOM     23  C   UNL     1       5.397   3.810  15.676  0.00  0.00    +0.000 C 
ATOM     24  C   UNL     1       6.516   5.127  17.660  0.00  0.00    +0.000 A 
ATOM     25  H   UNL     1       7.067   5.778  14.584  0.00  0.00    +0.000 HD
ENDBRANCH  17  24
ENDBRANCH   1  17
TORSDOF 4
ENDMDL
MODEL 8
REMARK VINA RESULT:      -7.4      0.860      1.963
REMARK  Name = 
REMARK  6 active torsions:
REMARK  status: ('A' for Active; 'I' for Inactive)
REMARK    1  A    between atoms: C_1  and  C_2
REMARK    2  A    between atoms: C_5  and  C_6
REMARK    3  A    between atoms: C_7  and  C_8
REMARK    4  A    between atoms: C_8  and  N_9
REMARK    5  A    between atoms: C_10  and  C_12
REMARK    6  A    between atoms: N_14  and  C_15
REMARK                            x       y       z     vdW  Elec       q    Type
REMARK                         _______ _______ _______ _____ _____    ______ ____
ROOT
ATOM      1  N   UNL     1       4.205   4.708  18.476  0.00  0.00    +0.000 N 
ATOM      2  C   UNL     1       3.471   4.331  19.577  0.00  0.00    +0.000 C 
ATOM      3  O   UNL     1       3.627   3.329  20.256  0.00  0.00    +0.000 OA
ATOM      4  H   UNL     1       3.884   5.545  17.991  0.00  0.00    +0.000 HD
ENDROOT
BRANCH   2   5
ATOM      5  C   UNL     1       2.357   5.344  19.914  0.00  0.00    +0.000 C 
ATOM      6  O   UNL     1       1.272   4.888  20.253  0.00  0.00    +0.000 OA
ATOM      7  N   UNL     1       2.721   6.669  19.754  0.00  0.00    +0.000 N 
ATOM      8  H   UNL     1       3.654   6.824  19.379  0.00  0.00    +0.000 HD
BRANCH   7   9
ATOM      9  C   UNL     1       1.886   7.784  19.985  0.00  0.00    +0.000 A 
ATOM     10  C   UNL     1       1.602   8.735  18.996  0.00  0.00    +0.000 A 
ATOM     11  C   UNL     1       0.792   9.842  19.266  0.00  0.00    +0.000 A 
ATOM     12  C   UNL     1       0.254  10.011  20.537  0.00  0.00    +0.000 A 
ATOM     13 CL   UNL     1      -0.727  11.386  20.863  0.00  0.00    +0.000 Cl
ATOM     14  C   UNL     1       0.519   9.063  21.522  0.00  0.00    +0.000 A 
ATOM     15  F   UNL     1       0.016   9.210  22.757  0.00  0.00    +0.000 F 
ATOM     16  C   UNL     1       1.319   7.948  21.253  0.00  0.00    +0.000 A 
ENDBRANCH   7   9
ENDBRANCH   2   5
BRANCH   1  17
ATOM     17  C   UNL     1       5.211   3.891  17.859  0.00  0.00    +0.000 C 
BRANCH  17  24
ATOM     18  C   UNL     1       7.448   5.915  18.993  0.00  0.00    +0.000 C 
ATOM     19  C   UNL     1       7.103   5.656  17.573  0.00  0.00    +0.000 A 
ATOM     20  N   UNL     1       7.758   6.294  16.598  0.00  0.00    +0.000 NA
ATOM     21  N   UNL     1       7.200   5.835  15.474  0.00  0.00    +0.000 N 
ATOM     22  C   UNL     1       6.199   4.927  15.685  0.00  0.00    +0.000 A 
ATOM     23  C   UNL     1       5.463   4.318  14.551  0.00  0.00    +0.000 C 
ATOM     24  C   UNL     1       6.111   4.770  17.061  0.00  0.00    +0.000 A 
ATOM     25  H   UNL     1       7.553   6.186  14.589  0.00  0.00    +0.000 HD
ENDBRANCH  17  24
ENDBRANCH   1  17
TORSDOF 4
ENDMDL
MODEL 9
REMARK VINA RESULT:      -7.3      0.978      1.065
REMARK  Name = 
REMARK  6 active torsions:
REMARK  status: ('A' for Active; 'I' for Inactive)
REMARK    1  A    between atoms: C_1  and  C_2
REMARK    2  A    between atoms: C_5  and  C_6
REMARK    3  A    between atoms: C_7  and  C_8
REMARK    4  A    between atoms: C_8  and  N_9
REMARK    5  A    between atoms: C_10  and  C_12
REMARK    6  A    between atoms: N_14  and  C_15
REMARK                            x       y       z     vdW  Elec       q    Type
REMARK                         _______ _______ _______ _____ _____    ______ ____
ROOT
ATOM      1  N   UNL     1       4.715   4.667  18.507  0.00  0.00    +0.000 N 
ATOM      2  C   UNL     1       3.493   4.437  17.919  0.00  0.00    +0.000 C 
ATOM      3  O   UNL     1       3.225   3.582  17.089  0.00  0.00    +0.000 OA
ATOM      4  H   UNL     1       4.767   5.473  19.129  0.00  0.00    +0.000 HD
ENDROOT
BRANCH   2   5
ATOM      5  C   UNL     1       2.407   5.410  18.425  0.00  0.00    +0.000 C 
ATOM      6  O   UNL     1       1.271   4.965  18.542  0.00  0.00    +0.000 OA
ATOM      7  N   UNL     1       2.855   6.697  18.656  0.00  0.00    +0.000 N 
ATOM      8  H   UNL     1       3.827   6.873  18.412  0.00  0.00    +0.000 HD
BRANCH   7   9
ATOM      9  C   UNL     1       2.063   7.775  19.109  0.00  0.00    +0.000 A 
ATOM     10  C   UNL     1       1.658   8.823  18.272  0.00  0.00    +0.000 A 
ATOM     11  C   UNL     1       0.895   9.888  18.761  0.00  0.00    +0.000 A 
ATOM     12  C   UNL     1       0.527   9.916  20.102  0.00  0.00    +0.000 A 
ATOM     13 CL   UNL     1      -0.397  11.239  20.696  0.00  0.00    +0.000 Cl
ATOM     14  C   UNL     1       0.912   8.870  20.937  0.00  0.00    +0.000 A 
ATOM     15  F   UNL     1       0.573   8.881  22.235  0.00  0.00    +0.000 F 
ATOM     16  C   UNL     1       1.665   7.798  20.450  0.00  0.00    +0.000 A 
ENDBRANCH   7   9
ENDBRANCH   2   5
BRANCH   1  17
ATOM     17  C   UNL     1       5.930   4.004  18.127  0.00  0.00    +0.000 C 
BRANCH  17  24
ATOM     18  C   UNL     1       5.993   3.631  14.926  0.00  0.00    +0.000 C 
ATOM     19  C   UNL     1       6.661   4.689  15.724  0.00  0.00    +0.000 A 
ATOM     20  N   UNL     1       7.383   5.634  15.112  0.00  0.00    +0.000 NA
ATOM     21  N   UNL     1       7.834   6.399  16.110  0.00  0.00    +0.000 N 
ATOM     22  C   UNL     1       7.435   5.981  17.350  0.00  0.00    +0.000 A 
ATOM     23  C   UNL     1       7.847   6.708  18.575  0.00  0.00    +0.000 C 
ATOM     24  C   UNL     1       6.647   4.859  17.138  0.00  0.00    +0.000 A 
ATOM     25  H   UNL     1       8.412   7.199  15.874  0.00  0.00    +0.000 HD
ENDBRANCH  17  24
ENDBRANCH   1  17
TORSDOF 4
ENDMDL
