MODEL 1
REMARK VINA RESULT:      -7.2      0.000      0.000
REMARK  Name = 
REMARK  7 active torsions:
REMARK  status: ('A' for Active; 'I' for Inactive)
REMARK    1  A    between atoms: C_1  and  C_2
REMARK    2  A    between atoms: C_2  and  C_3
REMARK    3  A    between atoms: C_3  and  C_4
REMARK    4  A    between atoms: C_4  and  C_5
REMARK    5  A    between atoms: N_18  and  C_19
REMARK    6  A    between atoms: C_22  and  O_23
REMARK    7  A    between atoms: O_23  and  C_24
REMARK                            x       y       z     vdW  Elec       q    Type
REMARK                         _______ _______ _______ _____ _____    ______ ____
ROOT
ATOM      1  C   UNL     1       0.674  15.421  19.085  0.00  0.00    +0.000 C 
ATOM      2  O   UNL     1       1.773  15.965  18.974  0.00  0.00    +0.000 OA
ATOM      3  N   UNL     1       0.544  14.048  19.228  0.00  0.00    +0.000 N 
ATOM      4  C   UNL     1       1.750  13.247  19.393  0.00  0.00    +0.000 C 
ATOM      5  C   UNL     1       1.625  12.360  20.631  0.00  0.00    +0.000 C 
ATOM      6  C   UNL     1       0.346  11.490  20.598  0.00  0.00    +0.000 C 
ATOM      7  C   UNL     1      -0.879  12.394  20.357  0.00  0.00    +0.000 C 
ATOM      8  C   UNL     1      -0.708  13.297  19.141  0.00  0.00    +0.000 C 
ATOM      9  C   UNL     1       0.181  10.733  21.944  0.00  0.00    +0.000 C 
ATOM     10  C   UNL     1       0.224   9.257  21.595  0.00  0.00    +0.000 C 
ATOM     11  N   UNL     1       0.893   9.219  20.316  0.00  0.00    +0.000 N 
ATOM     12  C   UNL     1       1.606   8.100  19.970  0.00  0.00    +0.000 C 
ATOM     13  O   UNL     1       1.644   7.142  20.747  0.00  0.00    +0.000 OA
ATOM     14  N   UNL     1       2.279   8.150  18.772  0.00  0.00    +0.000 N 
ATOM     15  C   UNL     1       0.498  10.375  19.538  0.00  0.00    +0.000 C 
ATOM     16  H   UNL     1       2.433   9.061  18.380  0.00  0.00    +0.000 HD
ENDROOT
BRANCH  14  17
ATOM     17  C   UNL     1       3.052   7.092  18.234  0.00  0.00    +0.000 A 
ATOM     18  C   UNL     1       4.401   7.233  17.902  0.00  0.00    +0.000 A 
ATOM     19  C   UNL     1       5.118   6.172  17.349  0.00  0.00    +0.000 A 
ATOM     20  C   UNL     1       4.511   4.936  17.145  0.00  0.00    +0.000 A 
ATOM     21  C   UNL     1       3.157   4.791  17.447  0.00  0.00    +0.000 A 
ATOM     22  C   UNL     1       2.438   5.855  18.014  0.00  0.00    +0.000 A 
BRANCH  20  23
ATOM     23  O   UNL     1       5.313   3.993  16.583  0.00  0.00    +0.000 OA
BRANCH  23  24
ATOM     24  C   UNL     1       5.855   4.216  15.290  0.00  0.00    +0.000 C 
ATOM     25  F   UNL     1       6.108   3.095  14.584  0.00  0.00    +0.000 F 
ATOM     26  F   UNL     1       4.992   4.981  14.584  0.00  0.00    +0.000 F 
ATOM     27  F   UNL     1       7.015   4.898  15.416  0.00  0.00    +0.000 F 
ENDBRANCH  23  24
ENDBRANCH  20  23
ENDBRANCH  14  17
BRANCH   1  28
ATOM     28  C   UNL     1      -0.609  16.233  19.117  0.00  0.00    +0.000 C 
BRANCH  28  29
ATOM     29  C   UNL     1      -0.753  17.106  17.871  0.00  0.00    +0.000 C 
BRANCH  29  31
ATOM     30  C   UNL     1       0.926  18.631  16.800  0.00  0.00    +0.000 C 
ATOM     31  C   UNL     1       0.030  18.409  18.007  0.00  0.00    +0.000 C 
ENDBRANCH  29  31
ENDBRANCH  28  29
ENDBRANCH   1  28
TORSDOF 6
ENDMDL
MODEL 2
REMARK VINA RESULT:      -7.1      2.183      2.608
REMARK  Name = 
REMARK  7 active torsions:
REMARK  status: ('A' for Active; 'I' for Inactive)
REMARK    1  A    between atoms: C_1  and  C_2
REMARK    2  A    between atoms: C_2  and  C_3
REMARK    3  A    between atoms: C_3  and  C_4
REMARK    4  A    between atoms: C_4  and  C_5
REMARK    5  A    between atoms: N_18  and  C_19
REMARK    6  A    between atoms: C_22  and  O_23
REMARK    7  A    between atoms: O_23  and  C_24
REMARK                            x       y       z     vdW  Elec       q    Type
REMARK                         _______ _______ _______ _____ _____    ______ ____
ROOT
ATOM      1  C   UNL     1       2.276  15.651  18.592  0.00  0.00    +0.000 C 
ATOM      2  O   UNL     1       3.477  15.870  18.750  0.00  0.00    +0.000 OA
ATOM      3  N   UNL     1       1.711  14.416  18.873  0.00  0.00    +0.000 N 
ATOM      4  C   UNL     1       2.539  13.397  19.505  0.00  0.00    +0.000 C 
ATOM      5  C   UNL     1       1.843  12.857  20.754  0.00  0.00    +0.000 C 
ATOM      6  C   UNL     1       0.415  12.343  20.448  0.00  0.00    +0.000 C 
ATOM      7  C   UNL     1      -0.379  13.447  19.725  0.00  0.00    +0.000 C 
ATOM      8  C   UNL     1       0.358  13.995  18.509  0.00  0.00    +0.000 C 
ATOM      9  C   UNL     1      -0.306  11.958  21.769  0.00  0.00    +0.000 C 
ATOM     10  C   UNL     1      -0.617  10.478  21.652  0.00  0.00    +0.000 C 
ATOM     11  N   UNL     1       0.315  10.001  20.657  0.00  0.00    +0.000 N 
ATOM     12  C   UNL     1       0.725   8.694  20.700  0.00  0.00    +0.000 C 
ATOM     13  O   UNL     1       0.275   7.946  21.574  0.00  0.00    +0.000 OA
ATOM     14  N   UNL     1       1.665   8.317  19.771  0.00  0.00    +0.000 N 
ATOM     15  C   UNL     1       0.495  11.023  19.647  0.00  0.00    +0.000 C 
ATOM     16  H   UNL     1       2.179   9.056  19.326  0.00  0.00    +0.000 HD
ENDROOT
BRANCH  14  17
ATOM     17  C   UNL     1       2.199   7.011  19.644  0.00  0.00    +0.000 A 
ATOM     18  C   UNL     1       2.958   6.608  18.544  0.00  0.00    +0.000 A 
ATOM     19  C   UNL     1       3.442   5.303  18.447  0.00  0.00    +0.000 A 
ATOM     20  C   UNL     1       3.203   4.381  19.461  0.00  0.00    +0.000 A 
ATOM     21  C   UNL     1       2.421   4.764  20.551  0.00  0.00    +0.000 A 
ATOM     22  C   UNL     1       1.944   6.080  20.655  0.00  0.00    +0.000 A 
BRANCH  20  23
ATOM     23  O   UNL     1       3.712   3.140  19.235  0.00  0.00    +0.000 OA
BRANCH  23  24
ATOM     24  C   UNL     1       3.037   2.258  18.351  0.00  0.00    +0.000 C 
ATOM     25  F   UNL     1       3.145   2.577  17.045  0.00  0.00    +0.000 F 
ATOM     26  F   UNL     1       3.524   1.009  18.529  0.00  0.00    +0.000 F 
ATOM     27  F   UNL     1       1.724   2.245  18.669  0.00  0.00    +0.000 F 
ENDBRANCH  23  24
ENDBRANCH  20  23
ENDBRANCH  14  17
BRANCH   1  28
ATOM     28  C   UNL     1       1.331  16.741  18.120  0.00  0.00    +0.000 C 
BRANCH  28  29
ATOM     29  C   UNL     1       1.912  17.516  16.938  0.00  0.00    +0.000 C 
BRANCH  29  31
ATOM     30  C   UNL     1      -0.476  18.269  16.774  0.00  0.00    +0.000 C 
ATOM     31  C   UNL     1       0.972  18.630  16.483  0.00  0.00    +0.000 C 
ENDBRANCH  29  31
ENDBRANCH  28  29
ENDBRANCH   1  28
TORSDOF 6
ENDMDL
MODEL 3
REMARK VINA RESULT:      -7.0      7.329     10.379
REMARK  Name = 
REMARK  7 active torsions:
REMARK  status: ('A' for Active; 'I' for Inactive)
REMARK    1  A    between atoms: C_1  and  C_2
REMARK    2  A    between atoms: C_2  and  C_3
REMARK    3  A    between atoms: C_3  and  C_4
REMARK    4  A    between atoms: C_4  and  C_5
REMARK    5  A    between atoms: N_18  and  C_19
REMARK    6  A    between atoms: C_22  and  O_23
REMARK    7  A    between atoms: O_23  and  C_24
REMARK                            x       y       z     vdW  Elec       q    Type
REMARK                         _______ _______ _______ _____ _____    ______ ____
ROOT
ATOM      1  C   UNL     1       2.011   4.140  20.208  0.00  0.00    +0.000 C 
ATOM      2  O   UNL     1       2.216   4.009  21.415  0.00  0.00    +0.000 OA
ATOM      3  N   UNL     1       2.896   4.816  19.381  0.00  0.00    +0.000 N 
ATOM      4  C   UNL     1       4.169   5.259  19.936  0.00  0.00    +0.000 C 
ATOM      5  C   UNL     1       5.321   4.768  19.059  0.00  0.00    +0.000 C 
ATOM      6  C   UNL     1       5.148   5.190  17.580  0.00  0.00    +0.000 C 
ATOM      7  C   UNL     1       3.759   4.746  17.083  0.00  0.00    +0.000 C 
ATOM      8  C   UNL     1       2.634   5.215  17.998  0.00  0.00    +0.000 C 
ATOM      9  C   UNL     1       6.252   4.533  16.706  0.00  0.00    +0.000 C 
ATOM     10  C   UNL     1       7.039   5.681  16.104  0.00  0.00    +0.000 C 
ATOM     11  N   UNL     1       6.763   6.794  16.982  0.00  0.00    +0.000 N 
ATOM     12  C   UNL     1       7.696   7.791  17.108  0.00  0.00    +0.000 C 
ATOM     13  O   UNL     1       8.742   7.727  16.455  0.00  0.00    +0.000 OA
ATOM     14  N   UNL     1       7.408   8.786  18.011  0.00  0.00    +0.000 N 
ATOM     15  C   UNL     1       5.391   6.710  17.438  0.00  0.00    +0.000 C 
ATOM     16  H   UNL     1       6.703   8.583  18.695  0.00  0.00    +0.000 HD
ENDROOT
BRANCH  14  17
ATOM     17  C   UNL     1       8.235   9.908  18.269  0.00  0.00    +0.000 A 
ATOM     18  C   UNL     1       8.123  11.108  17.565  0.00  0.00    +0.000 A 
ATOM     19  C   UNL     1       8.975  12.179  17.834  0.00  0.00    +0.000 A 
ATOM     20  C   UNL     1       9.940  12.083  18.833  0.00  0.00    +0.000 A 
ATOM     21  C   UNL     1      10.080  10.880  19.523  0.00  0.00    +0.000 A 
ATOM     22  C   UNL     1       9.214   9.806  19.261  0.00  0.00    +0.000 A 
BRANCH  20  23
ATOM     23  O   UNL     1      10.717  13.189  18.982  0.00  0.00    +0.000 OA
BRANCH  23  24
ATOM     24  C   UNL     1      10.272  14.251  19.813  0.00  0.00    +0.000 C 
ATOM     25  F   UNL     1       9.316  13.908  20.701  0.00  0.00    +0.000 F 
ATOM     26  F   UNL     1      11.331  14.744  20.492  0.00  0.00    +0.000 F 
ATOM     27  F   UNL     1       9.778  15.236  19.031  0.00  0.00    +0.000 F 
ENDBRANCH  23  24
ENDBRANCH  20  23
ENDBRANCH  14  17
BRANCH   1  28
ATOM     28  C   UNL     1       0.792   3.525  19.543  0.00  0.00    +0.000 C 
BRANCH  28  29
ATOM     29  C   UNL     1       1.032   2.062  19.173  0.00  0.00    +0.000 C 
BRANCH  29  31
ATOM     30  C   UNL     1       3.371   1.393  18.559  0.00  0.00    +0.000 C 
ATOM     31  C   UNL     1       2.047   1.931  18.041  0.00  0.00    +0.000 C 
ENDBRANCH  29  31
ENDBRANCH  28  29
ENDBRANCH   1  28
TORSDOF 6
ENDMDL
MODEL 4
REMARK VINA RESULT:      -6.9      1.027      1.689
REMARK  Name = 
REMARK  7 active torsions:
REMARK  status: ('A' for Active; 'I' for Inactive)
REMARK    1  A    between atoms: C_1  and  C_2
REMARK    2  A    between atoms: C_2  and  C_3
REMARK    3  A    between atoms: C_3  and  C_4
REMARK    4  A    between atoms: C_4  and  C_5
REMARK    5  A    between atoms: N_18  and  C_19
REMARK    6  A    between atoms: C_22  and  O_23
REMARK    7  A    between atoms: O_23  and  C_24
REMARK                            x       y       z     vdW  Elec       q    Type
REMARK                         _______ _______ _______ _____ _____    ______ ____
ROOT
ATOM      1  C   UNL     1       0.366  15.165  19.227  0.00  0.00    +0.000 C 
ATOM      2  O   UNL     1       1.439  15.759  19.124  0.00  0.00    +0.000 OA
ATOM      3  N   UNL     1       0.298  13.785  19.341  0.00  0.00    +0.000 N 
ATOM      4  C   UNL     1       1.540  13.035  19.484  0.00  0.00    +0.000 C 
ATOM      5  C   UNL     1       1.460  12.116  20.703  0.00  0.00    +0.000 C 
ATOM      6  C   UNL     1       0.220  11.191  20.655  0.00  0.00    +0.000 C 
ATOM      7  C   UNL     1      -1.044  12.045  20.438  0.00  0.00    +0.000 C 
ATOM      8  C   UNL     1      -0.919  12.980  19.241  0.00  0.00    +0.000 C 
ATOM      9  C   UNL     1       0.094  10.398  21.985  0.00  0.00    +0.000 C 
ATOM     10  C   UNL     1       0.202   8.934  21.603  0.00  0.00    +0.000 C 
ATOM     11  N   UNL     1       0.867   8.953  20.321  0.00  0.00    +0.000 N 
ATOM     12  C   UNL     1       1.627   7.875  19.949  0.00  0.00    +0.000 C 
ATOM     13  O   UNL     1       1.711   6.903  20.705  0.00  0.00    +0.000 OA
ATOM     14  N   UNL     1       2.292   7.981  18.751  0.00  0.00    +0.000 N 
ATOM     15  C   UNL     1       0.418  10.107  19.570  0.00  0.00    +0.000 C 
ATOM     16  H   UNL     1       2.404   8.906  18.378  0.00  0.00    +0.000 HD
ENDROOT
BRANCH  14  17
ATOM     17  C   UNL     1       3.110   6.971  18.187  0.00  0.00    +0.000 A 
ATOM     18  C   UNL     1       4.432   7.195  17.799  0.00  0.00    +0.000 A 
ATOM     19  C   UNL     1       5.193   6.177  17.224  0.00  0.00    +0.000 A 
ATOM     20  C   UNL     1       4.659   4.904  17.051  0.00  0.00    +0.000 A 
ATOM     21  C   UNL     1       3.330   4.675  17.408  0.00  0.00    +0.000 A 
ATOM     22  C   UNL     1       2.568   5.695  17.999  0.00  0.00    +0.000 A 
BRANCH  20  23
ATOM     23  O   UNL     1       5.497   4.010  16.462  0.00  0.00    +0.000 OA
BRANCH  23  24
ATOM     24  C   UNL     1       6.029   4.292  15.176  0.00  0.00    +0.000 C 
ATOM     25  F   UNL     1       6.187   3.214  14.382  0.00  0.00    +0.000 F 
ATOM     26  F   UNL     1       5.212   5.169  14.551  0.00  0.00    +0.000 F 
ATOM     27  F   UNL     1       7.238   4.878  15.325  0.00  0.00    +0.000 F 
ENDBRANCH  23  24
ENDBRANCH  20  23
ENDBRANCH  14  17
BRANCH   1  28
ATOM     28  C   UNL     1      -0.951  15.918  19.282  0.00  0.00    +0.000 C 
BRANCH  28  29
ATOM     29  C   UNL     1      -1.203  16.511  20.667  0.00  0.00    +0.000 C 
BRANCH  29  31
ATOM     30  C   UNL     1      -3.416  16.084  21.769  0.00  0.00    +0.000 C 
ATOM     31  C   UNL     1      -2.008  15.557  21.546  0.00  0.00    +0.000 C 
ENDBRANCH  29  31
ENDBRANCH  28  29
ENDBRANCH   1  28
TORSDOF 6
ENDMDL
MODEL 5
REMARK VINA RESULT:      -6.9      1.227      2.148
REMARK  Name = 
REMARK  7 active torsions:
REMARK  status: ('A' for Active; 'I' for Inactive)
REMARK    1  A    between atoms: C_1  and  C_2
REMARK    2  A    between atoms: C_2  and  C_3
REMARK    3  A    between atoms: C_3  and  C_4
REMARK    4  A    between atoms: C_4  and  C_5
REMARK    5  A    between atoms: N_18  and  C_19
REMARK    6  A    between atoms: C_22  and  O_23
REMARK    7  A    between atoms: O_23  and  C_24
REMARK                            x       y       z     vdW  Elec       q    Type
REMARK                         _______ _______ _______ _____ _____    ______ ____
ROOT
ATOM      1  C   UNL     1       0.068  15.096  19.493  0.00  0.00    +0.000 C 
ATOM      2  O   UNL     1       1.118  15.711  19.303  0.00  0.00    +0.000 OA
ATOM      3  N   UNL     1       0.036  13.714  19.601  0.00  0.00    +0.000 N 
ATOM      4  C   UNL     1       1.298  12.986  19.630  0.00  0.00    +0.000 C 
ATOM      5  C   UNL     1       1.340  12.058  20.844  0.00  0.00    +0.000 C 
ATOM      6  C   UNL     1       0.118  11.111  20.895  0.00  0.00    +0.000 C 
ATOM      7  C   UNL     1      -1.176  11.942  20.795  0.00  0.00    +0.000 C 
ATOM      8  C   UNL     1      -1.171  12.887  19.599  0.00  0.00    +0.000 C 
ATOM      9  C   UNL     1       0.121  10.307  22.224  0.00  0.00    +0.000 C 
ATOM     10  C   UNL     1       0.222   8.847  21.823  0.00  0.00    +0.000 C 
ATOM     11  N   UNL     1       0.774   8.888  20.489  0.00  0.00    +0.000 N 
ATOM     12  C   UNL     1       1.520   7.826  20.044  0.00  0.00    +0.000 C 
ATOM     13  O   UNL     1       1.686   6.851  20.782  0.00  0.00    +0.000 OA
ATOM     14  N   UNL     1       2.077   7.953  18.794  0.00  0.00    +0.000 N 
ATOM     15  C   UNL     1       0.241  10.037  19.789  0.00  0.00    +0.000 C 
ATOM     16  H   UNL     1       2.139   8.883  18.421  0.00  0.00    +0.000 HD
ENDROOT
BRANCH  14  17
ATOM     17  C   UNL     1       2.861   6.962  18.154  0.00  0.00    +0.000 A 
ATOM     18  C   UNL     1       2.509   5.611  18.141  0.00  0.00    +0.000 A 
ATOM     19  C   UNL     1       3.325   4.664  17.521  0.00  0.00    +0.000 A 
ATOM     20  C   UNL     1       4.495   5.050  16.875  0.00  0.00    +0.000 A 
ATOM     21  C   UNL     1       4.872   6.393  16.906  0.00  0.00    +0.000 A 
ATOM     22  C   UNL     1       4.045   7.348  17.519  0.00  0.00    +0.000 A 
BRANCH  20  23
ATOM     23  O   UNL     1       5.208   4.029  16.328  0.00  0.00    +0.000 OA
BRANCH  23  24
ATOM     24  C   UNL     1       6.190   4.312  15.343  0.00  0.00    +0.000 C 
ATOM     25  F   UNL     1       5.935   5.400  14.587  0.00  0.00    +0.000 F 
ATOM     26  F   UNL     1       7.383   4.486  15.955  0.00  0.00    +0.000 F 
ATOM     27  F   UNL     1       6.295   3.248  14.515  0.00  0.00    +0.000 F 
ENDBRANCH  23  24
ENDBRANCH  20  23
ENDBRANCH  14  17
BRANCH   1  28
ATOM     28  C   UNL     1      -1.253  15.824  19.666  0.00  0.00    +0.000 C 
BRANCH  28  29
ATOM     29  C   UNL     1      -1.505  16.190  21.128  0.00  0.00    +0.000 C 
BRANCH  29  31
ATOM     30  C   UNL     1      -0.802  14.800  23.095  0.00  0.00    +0.000 C 
ATOM     31  C   UNL     1      -0.339  15.769  22.019  0.00  0.00    +0.000 C 
ENDBRANCH  29  31
ENDBRANCH  28  29
ENDBRANCH   1  28
TORSDOF 6
ENDMDL
MODEL 6
REMARK VINA RESULT:      -6.9      0.957      1.441
REMARK  Name = 
REMARK  7 active torsions:
REMARK  status: ('A' for Active; 'I' for Inactive)
REMARK    1  A    between atoms: C_1  and  C_2
REMARK    2  A    between atoms: C_2  and  C_3
REMARK    3  A    between atoms: C_3  and  C_4
REMARK    4  A    between atoms: C_4  and  C_5
REMARK    5  A    between atoms: N_18  and  C_19
REMARK    6  A    between atoms: C_22  and  O_23
REMARK    7  A    between atoms: O_23  and  C_24
REMARK                            x       y       z     vdW  Elec       q    Type
REMARK                         _______ _______ _______ _____ _____    ______ ____
ROOT
ATOM      1  C   UNL     1       0.264  15.183  19.213  0.00  0.00    +0.000 C 
ATOM      2  O   UNL     1       1.324  15.786  19.052  0.00  0.00    +0.000 OA
ATOM      3  N   UNL     1       0.215  13.802  19.336  0.00  0.00    +0.000 N 
ATOM      4  C   UNL     1       1.469  13.064  19.416  0.00  0.00    +0.000 C 
ATOM      5  C   UNL     1       1.461  12.150  20.642  0.00  0.00    +0.000 C 
ATOM      6  C   UNL     1       0.229  11.214  20.662  0.00  0.00    +0.000 C 
ATOM      7  C   UNL     1      -1.053  12.056  20.509  0.00  0.00    +0.000 C 
ATOM      8  C   UNL     1      -0.999  12.987  19.303  0.00  0.00    +0.000 C 
ATOM      9  C   UNL     1       0.181  10.426  22.000  0.00  0.00    +0.000 C 
ATOM     10  C   UNL     1       0.281   8.961  21.619  0.00  0.00    +0.000 C 
ATOM     11  N   UNL     1       0.878   8.981  20.304  0.00  0.00    +0.000 N 
ATOM     12  C   UNL     1       1.628   7.908  19.897  0.00  0.00    +0.000 C 
ATOM     13  O   UNL     1       1.761   6.940  20.651  0.00  0.00    +0.000 OA
ATOM     14  N   UNL     1       2.228   8.015  18.665  0.00  0.00    +0.000 N 
ATOM     15  C   UNL     1       0.380  10.127  19.573  0.00  0.00    +0.000 C 
ATOM     16  H   UNL     1       2.312   8.939  18.283  0.00  0.00    +0.000 HD
ENDROOT
BRANCH  14  17
ATOM     17  C   UNL     1       3.024   7.009  18.063  0.00  0.00    +0.000 A 
ATOM     18  C   UNL     1       2.603   5.684  17.939  0.00  0.00    +0.000 A 
ATOM     19  C   UNL     1       3.430   4.719  17.363  0.00  0.00    +0.000 A 
ATOM     20  C   UNL     1       4.685   5.064  16.871  0.00  0.00    +0.000 A 
ATOM     21  C   UNL     1       5.129   6.379  17.015  0.00  0.00    +0.000 A 
ATOM     22  C   UNL     1       4.292   7.352  17.583  0.00  0.00    +0.000 A 
BRANCH  20  23
ATOM     23  O   UNL     1       5.398   4.029  16.353  0.00  0.00    +0.000 OA
BRANCH  23  24
ATOM     24  C   UNL     1       6.029   4.178  15.089  0.00  0.00    +0.000 C 
ATOM     25  F   UNL     1       6.117   3.043  14.366  0.00  0.00    +0.000 F 
ATOM     26  F   UNL     1       5.344   5.094  14.368  0.00  0.00    +0.000 F 
ATOM     27  F   UNL     1       7.282   4.646  15.281  0.00  0.00    +0.000 F 
ENDBRANCH  23  24
ENDBRANCH  20  23
ENDBRANCH  14  17
BRANCH   1  28
ATOM     28  C   UNL     1      -1.056  15.924  19.333  0.00  0.00    +0.000 C 
BRANCH  28  29
ATOM     29  C   UNL     1      -1.392  16.240  20.790  0.00  0.00    +0.000 C 
BRANCH  29  31
ATOM     30  C   UNL     1      -0.863  18.625  20.221  0.00  0.00    +0.000 C 
ATOM     31  C   UNL     1      -0.711  17.524  21.256  0.00  0.00    +0.000 C 
ENDBRANCH  29  31
ENDBRANCH  28  29
ENDBRANCH   1  28
TORSDOF 6
ENDMDL
MODEL 7
REMARK VINA RESULT:      -6.8      2.088      2.494
REMARK  Name = 
REMARK  7 active torsions:
REMARK  status: ('A' for Active; 'I' for Inactive)
REMARK    1  A    between atoms: C_1  and  C_2
REMARK    2  A    between atoms: C_2  and  C_3
REMARK    3  A    between atoms: C_3  and  C_4
REMARK    4  A    between atoms: C_4  and  C_5
REMARK    5  A    between atoms: N_18  and  C_19
REMARK    6  A    between atoms: C_22  and  O_23
REMARK    7  A    between atoms: O_23  and  C_24
REMARK                            x       y       z     vdW  Elec       q    Type
REMARK                         _______ _______ _______ _____ _____    ______ ____
ROOT
ATOM      1  C   UNL     1       1.441  15.327  18.434  0.00  0.00    +0.000 C 
ATOM      2  O   UNL     1       2.629  15.632  18.326  0.00  0.00    +0.000 OA
ATOM      3  N   UNL     1       1.041  14.062  18.838  0.00  0.00    +0.000 N 
ATOM      4  C   UNL     1       2.058  13.117  19.283  0.00  0.00    +0.000 C 
ATOM      5  C   UNL     1       1.689  12.557  20.656  0.00  0.00    +0.000 C 
ATOM      6  C   UNL     1       0.270  11.939  20.671  0.00  0.00    +0.000 C 
ATOM      7  C   UNL     1      -0.740  12.969  20.130  0.00  0.00    +0.000 C 
ATOM      8  C   UNL     1      -0.324  13.541  18.779  0.00  0.00    +0.000 C 
ATOM      9  C   UNL     1      -0.120  11.535  22.119  0.00  0.00    +0.000 C 
ATOM     10  C   UNL     1      -0.341  10.034  22.082  0.00  0.00    +0.000 C 
ATOM     11  N   UNL     1       0.386   9.601  20.912  0.00  0.00    +0.000 N 
ATOM     12  C   UNL     1       0.890   8.327  20.873  0.00  0.00    +0.000 C 
ATOM     13  O   UNL     1       0.695   7.569  21.829  0.00  0.00    +0.000 OA
ATOM     14  N   UNL     1       1.632   7.996  19.765  0.00  0.00    +0.000 N 
ATOM     15  C   UNL     1       0.270  10.611  19.880  0.00  0.00    +0.000 C 
ATOM     16  H   UNL     1       1.983   8.758  19.214  0.00  0.00    +0.000 HD
ENDROOT
BRANCH  14  17
ATOM     17  C   UNL     1       2.219   6.727  19.533  0.00  0.00    +0.000 A 
ATOM     18  C   UNL     1       2.000   5.629  20.367  0.00  0.00    +0.000 A 
ATOM     19  C   UNL     1       2.619   4.404  20.116  0.00  0.00    +0.000 A 
ATOM     20  C   UNL     1       3.447   4.242  19.010  0.00  0.00    +0.000 A 
ATOM     21  C   UNL     1       3.696   5.340  18.186  0.00  0.00    +0.000 A 
ATOM     22  C   UNL     1       3.064   6.569  18.431  0.00  0.00    +0.000 A 
BRANCH  20  23
ATOM     23  O   UNL     1       4.003   3.007  18.890  0.00  0.00    +0.000 OA
BRANCH  23  24
ATOM     24  C   UNL     1       3.241   1.949  18.326  0.00  0.00    +0.000 C 
ATOM     25  F   UNL     1       2.510   2.295  17.247  0.00  0.00    +0.000 F 
ATOM     26  F   UNL     1       4.081   0.950  17.973  0.00  0.00    +0.000 F 
ATOM     27  F   UNL     1       2.394   1.474  19.266  0.00  0.00    +0.000 F 
ENDBRANCH  23  24
ENDBRANCH  20  23
ENDBRANCH  14  17
BRANCH   1  28
ATOM     28  C   UNL     1       0.340  16.338  18.171  0.00  0.00    +0.000 C 
BRANCH  28  29
ATOM     29  C   UNL     1       0.719  17.727  18.682  0.00  0.00    +0.000 C 
BRANCH  29  31
ATOM     30  C   UNL     1       0.413  18.353  16.272  0.00  0.00    +0.000 C 
ATOM     31  C   UNL     1       1.192  18.631  17.546  0.00  0.00    +0.000 C 
ENDBRANCH  29  31
ENDBRANCH  28  29
ENDBRANCH   1  28
TORSDOF 6
ENDMDL
MODEL 8
REMARK VINA RESULT:      -6.8      3.737      4.719
REMARK  Name = 
REMARK  7 active torsions:
REMARK  status: ('A' for Active; 'I' for Inactive)
REMARK    1  A    between atoms: C_1  and  C_2
REMARK    2  A    between atoms: C_2  and  C_3
REMARK    3  A    between atoms: C_3  and  C_4
REMARK    4  A    between atoms: C_4  and  C_5
REMARK    5  A    between atoms: N_18  and  C_19
REMARK    6  A    between atoms: C_22  and  O_23
REMARK    7  A    between atoms: O_23  and  C_24
REMARK                            x       y       z     vdW  Elec       q    Type
REMARK                         _______ _______ _______ _____ _____    ______ ____
ROOT
ATOM      1  C   UNL     1      -2.666  13.630  23.921  0.00  0.00    +0.000 C 
ATOM      2  O   UNL     1      -3.623  12.950  24.292  0.00  0.00    +0.000 OA
ATOM      3  N   UNL     1      -1.732  13.150  23.014  0.00  0.00    +0.000 N 
ATOM      4  C   UNL     1      -1.974  11.860  22.381  0.00  0.00    +0.000 C 
ATOM      5  C   UNL     1      -1.867  11.994  20.862  0.00  0.00    +0.000 C 
ATOM      6  C   UNL     1      -0.519  12.617  20.425  0.00  0.00    +0.000 C 
ATOM      7  C   UNL     1      -0.302  13.942  21.181  0.00  0.00    +0.000 C 
ATOM      8  C   UNL     1      -0.455  13.786  22.689  0.00  0.00    +0.000 C 
ATOM      9  C   UNL     1      -0.526  12.882  18.895  0.00  0.00    +0.000 C 
ATOM     10  C   UNL     1       0.599  12.039  18.325  0.00  0.00    +0.000 C 
ATOM     11  N   UNL     1       0.815  11.020  19.326  0.00  0.00    +0.000 N 
ATOM     12  C   UNL     1       1.307   9.800  18.940  0.00  0.00    +0.000 C 
ATOM     13  O   UNL     1       1.575   9.604  17.751  0.00  0.00    +0.000 OA
ATOM     14  N   UNL     1       1.424   8.849  19.925  0.00  0.00    +0.000 N 
ATOM     15  C   UNL     1       0.622  11.597  20.640  0.00  0.00    +0.000 C 
ATOM     16  H   UNL     1       0.900   9.006  20.767  0.00  0.00    +0.000 HD
ENDROOT
BRANCH  14  17
ATOM     17  C   UNL     1       1.928   7.539  19.729  0.00  0.00    +0.000 A 
ATOM     18  C   UNL     1       2.764   7.202  18.663  0.00  0.00    +0.000 A 
ATOM     19  C   UNL     1       3.216   5.893  18.493  0.00  0.00    +0.000 A 
ATOM     20  C   UNL     1       2.866   4.899  19.402  0.00  0.00    +0.000 A 
ATOM     21  C   UNL     1       2.009   5.218  20.455  0.00  0.00    +0.000 A 
ATOM     22  C   UNL     1       1.564   6.537  20.633  0.00  0.00    +0.000 A 
BRANCH  20  23
ATOM     23  O   UNL     1       3.356   3.664  19.111  0.00  0.00    +0.000 OA
BRANCH  23  24
ATOM     24  C   UNL     1       2.521   2.715  18.464  0.00  0.00    +0.000 C 
ATOM     25  F   UNL     1       1.659   3.240  17.569  0.00  0.00    +0.000 F 
ATOM     26  F   UNL     1       3.302   1.812  17.829  0.00  0.00    +0.000 F 
ATOM     27  F   UNL     1       1.799   2.061  19.401  0.00  0.00    +0.000 F 
ENDBRANCH  23  24
ENDBRANCH  20  23
ENDBRANCH  14  17
BRANCH   1  28
ATOM     28  C   UNL     1      -2.476  15.057  24.402  0.00  0.00    +0.000 C 
BRANCH  28  29
ATOM     29  C   UNL     1      -3.483  16.007  23.755  0.00  0.00    +0.000 C 
BRANCH  29  31
ATOM     30  C   UNL     1      -5.930  16.464  24.067  0.00  0.00    +0.000 C 
ATOM     31  C   UNL     1      -4.568  16.429  24.741  0.00  0.00    +0.000 C 
ENDBRANCH  29  31
ENDBRANCH  28  29
ENDBRANCH   1  28
TORSDOF 6
ENDMDL
MODEL 9
REMARK VINA RESULT:      -6.8      3.759      4.719
REMARK  Name = 
REMARK  7 active torsions:
REMARK  status: ('A' for Active; 'I' for Inactive)
REMARK    1  A    between atoms: C_1  and  C_2
REMARK    2  A    between atoms: C_2  and  C_3
REMARK    3  A    between atoms: C_3  and  C_4
REMARK    4  A    between atoms: C_4  and  C_5
REMARK    5  A    between atoms: N_18  and  C_19
REMARK    6  A    between atoms: C_22  and  O_23
REMARK    7  A    between atoms: O_23  and  C_24
REMARK                            x       y       z     vdW  Elec       q    Type
REMARK                         _______ _______ _______ _____ _____    ______ ____
ROOT
ATOM      1  C   UNL     1      -2.846  13.836  23.327  0.00  0.00    +0.000 C 
ATOM      2  O   UNL     1      -3.912  13.235  23.458  0.00  0.00    +0.000 OA
ATOM      3  N   UNL     1      -1.808  13.330  22.559  0.00  0.00    +0.000 N 
ATOM      4  C   UNL     1      -2.042  12.124  21.776  0.00  0.00    +0.000 C 
ATOM      5  C   UNL     1      -1.645  12.360  20.319  0.00  0.00    +0.000 C 
ATOM      6  C   UNL     1      -0.189  12.869  20.187  0.00  0.00    +0.000 C 
ATOM      7  C   UNL     1       0.003  14.103  21.089  0.00  0.00    +0.000 C 
ATOM      8  C   UNL     1      -0.441  13.851  22.526  0.00  0.00    +0.000 C 
ATOM      9  C   UNL     1       0.112  13.248  18.711  0.00  0.00    +0.000 C 
ATOM     10  C   UNL     1       1.243  12.336  18.274  0.00  0.00    +0.000 C 
ATOM     11  N   UNL     1       1.177  11.228  19.198  0.00  0.00    +0.000 N 
ATOM     12  C   UNL     1       1.621   9.996  18.793  0.00  0.00    +0.000 C 
ATOM     13  O   UNL     1       2.087   9.863  17.658  0.00  0.00    +0.000 OA
ATOM     14  N   UNL     1       1.468   8.966  19.691  0.00  0.00    +0.000 N 
ATOM     15  C   UNL     1       0.797  11.722  20.505  0.00  0.00    +0.000 C 
ATOM     16  H   UNL     1       0.813   9.113  20.437  0.00  0.00    +0.000 HD
ENDROOT
BRANCH  14  17
ATOM     17  C   UNL     1       1.880   7.630  19.466  0.00  0.00    +0.000 A 
ATOM     18  C   UNL     1       2.420   7.198  18.253  0.00  0.00    +0.000 A 
ATOM     19  C   UNL     1       2.788   5.865  18.066  0.00  0.00    +0.000 A 
ATOM     20  C   UNL     1       2.652   4.941  19.097  0.00  0.00    +0.000 A 
ATOM     21  C   UNL     1       2.088   5.354  20.304  0.00  0.00    +0.000 A 
ATOM     22  C   UNL     1       1.729   6.697  20.497  0.00  0.00    +0.000 A 
BRANCH  20  23
ATOM     23  O   UNL     1       3.029   3.674  18.780  0.00  0.00    +0.000 OA
BRANCH  23  24
ATOM     24  C   UNL     1       2.036   2.696  18.510  0.00  0.00    +0.000 C 
ATOM     25  F   UNL     1       1.799   1.837  19.522  0.00  0.00    +0.000 F 
ATOM     26  F   UNL     1       0.879   3.325  18.202  0.00  0.00    +0.000 F 
ATOM     27  F   UNL     1       2.419   1.973  17.434  0.00  0.00    +0.000 F 
ENDBRANCH  23  24
ENDBRANCH  20  23
ENDBRANCH  14  17
BRANCH   1  28
ATOM     28  C   UNL     1      -2.622  15.195  23.965  0.00  0.00    +0.000 C 
BRANCH  28  29
ATOM     29  C   UNL     1      -3.674  15.495  25.032  0.00  0.00    +0.000 C 
BRANCH  29  31
ATOM     30  C   UNL     1      -3.347  17.961  25.360  0.00  0.00    +0.000 C 
ATOM     31  C   UNL     1      -4.283  16.882  24.843  0.00  0.00    +0.000 C 
ENDBRANCH  29  31
ENDBRANCH  28  29
ENDBRANCH   1  28
TORSDOF 6
ENDMDL
