MODEL 1
REMARK VINA RESULT:      -6.4      0.000      0.000
REMARK  Name = 
REMARK  8 active torsions:
REMARK  status: ('A' for Active; 'I' for Inactive)
REMARK    1  A    between atoms: C_1  and  N_2
REMARK    2  A    between atoms: N_2  and  C_3
REMARK    3  A    between atoms: C_3  and  C_4
REMARK    4  A    between atoms: C_3  and  C_5
REMARK    5  A    between atoms: N_7  and  C_8
REMARK    6  A    between atoms: N_17  and  C_18
REMARK    7  A    between atoms: C_18  and  C_19
REMARK    8  A    between atoms: C_19  and  C_20
REMARK                            x       y       z     vdW  Elec       q    Type
REMARK                         _______ _______ _______ _____ _____    ______ ____
ROOT
ATOM      1  C   UNL     1      -0.747  13.024  21.148  0.00  0.00    +0.000 C 
ATOM      2  C   UNL     1       0.543  13.577  21.746  0.00  0.00    +0.000 C 
ATOM      3  C   UNL     1       1.749  13.693  20.810  0.00  0.00    +0.000 C 
ATOM      4  C   UNL     1       2.078  12.597  19.794  0.00  0.00    +0.000 C 
ATOM      5  C   UNL     1       0.929  11.824  19.137  0.00  0.00    +0.000 C 
ATOM      6  C   UNL     1       1.473  10.819  18.107  0.00  0.00    +0.000 C 
ATOM      7  C   UNL     1       0.643   9.548  18.340  0.00  0.00    +0.000 C 
ATOM      8  C   UNL     1       1.319   8.269  17.865  0.00  0.00    +0.000 C 
ATOM      9  C   UNL     1       2.516   7.891  18.737  0.00  0.00    +0.000 C 
ATOM     10  N   UNL     1       2.187   7.767  20.162  0.00  0.00    +0.000 NA
ATOM     11  C   UNL     1       1.570   9.000  20.674  0.00  0.00    +0.000 C 
ATOM     12  C   UNL     1       0.386   9.572  19.850  0.00  0.00    +0.000 C 
ATOM     13  N   UNL     1       0.205  11.002  20.098  0.00  0.00    +0.000 N 
ATOM     14  C   UNL     1      -0.649  11.489  21.064  0.00  0.00    +0.000 C 
ATOM     15  O   UNL     1      -1.257  10.754  21.842  0.00  0.00    +0.000 OA
ENDROOT
BRANCH   1  18
ATOM     16  C   UNL     1      -3.164  13.442  21.553  0.00  0.00    +0.000 C 
ATOM     17  O   UNL     1      -3.439  13.378  20.352  0.00  0.00    +0.000 OA
ATOM     18  N   UNL     1      -1.872  13.355  22.023  0.00  0.00    +0.000 N 
ATOM     19  H   UNL     1      -1.766  13.049  22.983  0.00  0.00    +0.000 HD
BRANCH  16  20
ATOM     20  C   UNL     1      -4.238  13.770  22.613  0.00  0.00    +0.000 C 
ATOM     21  C   UNL     1      -3.611  14.672  23.675  0.00  0.00    +0.000 C 
BRANCH  20  23
ATOM     22  C   UNL     1      -4.372  12.457  24.679  0.00  0.00    +0.000 C 
ATOM     23  N   UNL     1      -4.788  12.574  23.290  0.00  0.00    +0.000 NA
ATOM     24  H   UNL     1      -5.797  12.519  23.189  0.00  0.00    +0.000 HD
ENDBRANCH  20  23
ENDBRANCH  16  20
ENDBRANCH   1  18
BRANCH  10  25
ATOM     25  C   UNL     1       1.413   6.570  20.494  0.00  0.00    +0.000 C 
BRANCH  25  26
ATOM     26  C   UNL     1       2.166   5.263  20.191  0.00  0.00    +0.000 C 
BRANCH  26  27
ATOM     27  C   UNL     1       1.363   4.228  19.362  0.00  0.00    +0.000 C 
ATOM     28  C   UNL     1       1.588   4.361  17.848  0.00  0.00    +0.000 C 
ATOM     29  C   UNL     1       3.016   3.999  17.445  0.00  0.00    +0.000 C 
ATOM     30  C   UNL     1       3.399   2.601  17.930  0.00  0.00    +0.000 C 
ATOM     31  C   UNL     1       3.124   2.389  19.417  0.00  0.00    +0.000 C 
ATOM     32  C   UNL     1       1.702   2.794  19.800  0.00  0.00    +0.000 C 
ENDBRANCH  26  27
ENDBRANCH  25  26
ENDBRANCH  10  25
TORSDOF 6
ENDMDL
MODEL 2
REMARK VINA RESULT:      -6.3      4.163      7.240
REMARK  Name = 
REMARK  8 active torsions:
REMARK  status: ('A' for Active; 'I' for Inactive)
REMARK    1  A    between atoms: C_1  and  N_2
REMARK    2  A    between atoms: N_2  and  C_3
REMARK    3  A    between atoms: C_3  and  C_4
REMARK    4  A    between atoms: C_3  and  C_5
REMARK    5  A    between atoms: N_7  and  C_8
REMARK    6  A    between atoms: N_17  and  C_18
REMARK    7  A    between atoms: C_18  and  C_19
REMARK    8  A    between atoms: C_19  and  C_20
REMARK                            x       y       z     vdW  Elec       q    Type
REMARK                         _______ _______ _______ _____ _____    ______ ____
ROOT
ATOM      1  C   UNL     1       2.231   7.226  20.023  0.00  0.00    +0.000 C 
ATOM      2  C   UNL     1       1.316   6.030  20.262  0.00  0.00    +0.000 C 
ATOM      3  C   UNL     1       1.973   4.743  20.769  0.00  0.00    +0.000 C 
ATOM      4  C   UNL     1       3.318   4.264  20.217  0.00  0.00    +0.000 C 
ATOM      5  C   UNL     1       4.364   5.304  19.804  0.00  0.00    +0.000 C 
ATOM      6  C   UNL     1       5.659   4.614  19.340  0.00  0.00    +0.000 C 
ATOM      7  C   UNL     1       6.085   5.402  18.094  0.00  0.00    +0.000 C 
ATOM      8  C   UNL     1       6.985   4.624  17.143  0.00  0.00    +0.000 C 
ATOM      9  C   UNL     1       6.233   3.503  16.425  0.00  0.00    +0.000 C 
ATOM     10  N   UNL     1       5.044   3.967  15.700  0.00  0.00    +0.000 NA
ATOM     11  C   UNL     1       4.125   4.689  16.593  0.00  0.00    +0.000 C 
ATOM     12  C   UNL     1       4.750   5.810  17.465  0.00  0.00    +0.000 C 
ATOM     13  N   UNL     1       3.934   6.082  18.649  0.00  0.00    +0.000 N 
ATOM     14  C   UNL     1       2.954   7.049  18.673  0.00  0.00    +0.000 C 
ATOM     15  O   UNL     1       2.637   7.697  17.675  0.00  0.00    +0.000 OA
ENDROOT
BRANCH   1  18
ATOM     16  C   UNL     1       1.118   9.192  21.063  0.00  0.00    +0.000 C 
ATOM     17  O   UNL     1       1.380   8.812  22.207  0.00  0.00    +0.000 OA
ATOM     18  N   UNL     1       1.429   8.448  19.946  0.00  0.00    +0.000 N 
ATOM     19  H   UNL     1       1.525   8.964  19.079  0.00  0.00    +0.000 HD
BRANCH  16  20
ATOM     20  C   UNL     1       0.291  10.469  20.803  0.00  0.00    +0.000 C 
ATOM     21  C   UNL     1       0.182  10.677  19.294  0.00  0.00    +0.000 C 
BRANCH  20  23
ATOM     22  C   UNL     1       1.368  12.634  20.402  0.00  0.00    +0.000 C 
ATOM     23  N   UNL     1       0.882  11.690  21.395  0.00  0.00    +0.000 NA
ATOM     24  H   UNL     1       0.249  12.127  22.058  0.00  0.00    +0.000 HD
ENDBRANCH  20  23
ENDBRANCH  16  20
ENDBRANCH   1  18
BRANCH  10  25
ATOM     25  C   UNL     1       5.344   4.714  14.477  0.00  0.00    +0.000 C 
BRANCH  25  26
ATOM     26  C   UNL     1       6.397   4.023  13.593  0.00  0.00    +0.000 C 
BRANCH  26  27
ATOM     27  C   UNL     1       6.168   4.179  12.069  0.00  0.00    +0.000 C 
ATOM     28  C   UNL     1       7.380   3.751  11.228  0.00  0.00    +0.000 C 
ATOM     29  C   UNL     1       7.644   2.250  11.322  0.00  0.00    +0.000 C 
ATOM     30  C   UNL     1       6.407   1.437  10.942  0.00  0.00    +0.000 C 
ATOM     31  C   UNL     1       5.153   1.873  11.695  0.00  0.00    +0.000 C 
ATOM     32  C   UNL     1       4.933   3.383  11.617  0.00  0.00    +0.000 C 
ENDBRANCH  26  27
ENDBRANCH  25  26
ENDBRANCH  10  25
TORSDOF 6
ENDMDL
MODEL 3
REMARK VINA RESULT:      -6.2      3.341      4.720
REMARK  Name = 
REMARK  8 active torsions:
REMARK  status: ('A' for Active; 'I' for Inactive)
REMARK    1  A    between atoms: C_1  and  N_2
REMARK    2  A    between atoms: N_2  and  C_3
REMARK    3  A    between atoms: C_3  and  C_4
REMARK    4  A    between atoms: C_3  and  C_5
REMARK    5  A    between atoms: N_7  and  C_8
REMARK    6  A    between atoms: N_17  and  C_18
REMARK    7  A    between atoms: C_18  and  C_19
REMARK    8  A    between atoms: C_19  and  C_20
REMARK                            x       y       z     vdW  Elec       q    Type
REMARK                         _______ _______ _______ _____ _____    ______ ____
ROOT
ATOM      1  C   UNL     1       0.233  13.045  18.960  0.00  0.00    +0.000 C 
ATOM      2  C   UNL     1      -0.805  12.789  17.873  0.00  0.00    +0.000 C 
ATOM      3  C   UNL     1      -1.802  11.653  18.118  0.00  0.00    +0.000 C 
ATOM      4  C   UNL     1      -1.361  10.324  18.736  0.00  0.00    +0.000 C 
ATOM      5  C   UNL     1      -0.243  10.327  19.784  0.00  0.00    +0.000 C 
ATOM      6  C   UNL     1       0.000   8.905  20.319  0.00  0.00    +0.000 C 
ATOM      7  C   UNL     1       1.529   8.781  20.389  0.00  0.00    +0.000 C 
ATOM      8  C   UNL     1       2.039   7.347  20.350  0.00  0.00    +0.000 C 
ATOM      9  C   UNL     1       1.847   6.704  18.977  0.00  0.00    +0.000 C 
ATOM     10  N   UNL     1       2.459   7.468  17.882  0.00  0.00    +0.000 NA
ATOM     11  C   UNL     1       1.960   8.851  17.857  0.00  0.00    +0.000 C 
ATOM     12  C   UNL     1       2.002   9.624  19.201  0.00  0.00    +0.000 C 
ATOM     13  N   UNL     1       1.038  10.725  19.215  0.00  0.00    +0.000 N 
ATOM     14  C   UNL     1       1.366  12.007  18.834  0.00  0.00    +0.000 C 
ATOM     15  O   UNL     1       2.470  12.301  18.375  0.00  0.00    +0.000 OA
ENDROOT
BRANCH   1  18
ATOM     16  C   UNL     1       0.313  15.491  19.400  0.00  0.00    +0.000 C 
ATOM     17  O   UNL     1      -0.736  15.470  20.049  0.00  0.00    +0.000 OA
ATOM     18  N   UNL     1       0.818  14.373  18.773  0.00  0.00    +0.000 N 
ATOM     19  H   UNL     1       1.816  14.375  18.594  0.00  0.00    +0.000 HD
BRANCH  16  20
ATOM     20  C   UNL     1       1.067  16.809  19.121  0.00  0.00    +0.000 C 
ATOM     21  C   UNL     1       0.416  17.494  17.920  0.00  0.00    +0.000 C 
BRANCH  20  23
ATOM     22  C   UNL     1       2.841  16.878  17.431  0.00  0.00    +0.000 C 
ATOM     23  N   UNL     1       2.503  16.620  18.821  0.00  0.00    +0.000 NA
ATOM     24  H   UNL     1       3.090  17.149  19.459  0.00  0.00    +0.000 HD
ENDBRANCH  20  23
ENDBRANCH  16  20
ENDBRANCH   1  18
BRANCH  10  25
ATOM     25  C   UNL     1       3.920   7.395  17.847  0.00  0.00    +0.000 C 
BRANCH  25  26
ATOM     26  C   UNL     1       4.448   6.396  16.802  0.00  0.00    +0.000 C 
BRANCH  26  27
ATOM     27  C   UNL     1       4.650   4.952  17.329  0.00  0.00    +0.000 C 
ATOM     28  C   UNL     1       5.472   4.071  16.377  0.00  0.00    +0.000 C 
ATOM     29  C   UNL     1       6.922   4.538  16.270  0.00  0.00    +0.000 C 
ATOM     30  C   UNL     1       7.588   4.622  17.642  0.00  0.00    +0.000 C 
ATOM     31  C   UNL     1       6.773   5.426  18.653  0.00  0.00    +0.000 C 
ATOM     32  C   UNL     1       5.319   4.964  18.713  0.00  0.00    +0.000 C 
ENDBRANCH  26  27
ENDBRANCH  25  26
ENDBRANCH  10  25
TORSDOF 6
ENDMDL
MODEL 4
REMARK VINA RESULT:      -6.2      4.936     10.901
REMARK  Name = 
REMARK  8 active torsions:
REMARK  status: ('A' for Active; 'I' for Inactive)
REMARK    1  A    between atoms: C_1  and  N_2
REMARK    2  A    between atoms: N_2  and  C_3
REMARK    3  A    between atoms: C_3  and  C_4
REMARK    4  A    between atoms: C_3  and  C_5
REMARK    5  A    between atoms: N_7  and  C_8
REMARK    6  A    between atoms: N_17  and  C_18
REMARK    7  A    between atoms: C_18  and  C_19
REMARK    8  A    between atoms: C_19  and  C_20
REMARK                            x       y       z     vdW  Elec       q    Type
REMARK                         _______ _______ _______ _____ _____    ______ ____
ROOT
ATOM      1  C   UNL     1       6.095   3.888  16.250  0.00  0.00    +0.000 C 
ATOM      2  C   UNL     1       7.296   4.730  16.670  0.00  0.00    +0.000 C 
ATOM      3  C   UNL     1       7.513   4.932  18.172  0.00  0.00    +0.000 C 
ATOM      4  C   UNL     1       6.339   5.198  19.118  0.00  0.00    +0.000 C 
ATOM      5  C   UNL     1       4.988   4.535  18.829  0.00  0.00    +0.000 C 
ATOM      6  C   UNL     1       3.970   4.881  19.930  0.00  0.00    +0.000 C 
ATOM      7  C   UNL     1       2.670   5.176  19.168  0.00  0.00    +0.000 C 
ATOM      8  C   UNL     1       1.688   6.055  19.931  0.00  0.00    +0.000 C 
ATOM      9  C   UNL     1       2.181   7.497  20.055  0.00  0.00    +0.000 C 
ATOM     10  N   UNL     1       2.492   8.122  18.764  0.00  0.00    +0.000 NA
ATOM     11  C   UNL     1       3.473   7.325  18.010  0.00  0.00    +0.000 C 
ATOM     12  C   UNL     1       3.166   5.811  17.866  0.00  0.00    +0.000 C 
ATOM     13  N   UNL     1       4.383   5.043  17.604  0.00  0.00    +0.000 N 
ATOM     14  C   UNL     1       4.820   4.750  16.331  0.00  0.00    +0.000 C 
ATOM     15  O   UNL     1       4.264   5.185  15.322  0.00  0.00    +0.000 OA
ENDROOT
BRANCH   1  18
ATOM     16  C   UNL     1       6.843   4.265  13.909  0.00  0.00    +0.000 C 
ATOM     17  O   UNL     1       7.142   5.442  14.129  0.00  0.00    +0.000 OA
ATOM     18  N   UNL     1       6.260   3.459  14.862  0.00  0.00    +0.000 N 
ATOM     19  H   UNL     1       6.388   2.461  14.740  0.00  0.00    +0.000 HD
BRANCH  16  20
ATOM     20  C   UNL     1       6.970   3.648  12.500  0.00  0.00    +0.000 C 
ATOM     21  C   UNL     1       7.424   4.740  11.532  0.00  0.00    +0.000 C 
BRANCH  20  23
ATOM     22  C   UNL     1       5.865   1.750  11.410  0.00  0.00    +0.000 C 
ATOM     23  N   UNL     1       5.705   3.075  11.987  0.00  0.00    +0.000 NA
ATOM     24  H   UNL     1       4.973   3.098  12.691  0.00  0.00    +0.000 HD
ENDBRANCH  20  23
ENDBRANCH  16  20
ENDBRANCH   1  18
BRANCH  10  25
ATOM     25  C   UNL     1       1.314   8.465  17.966  0.00  0.00    +0.000 C 
BRANCH  25  26
ATOM     26  C   UNL     1       0.789   9.884  18.248  0.00  0.00    +0.000 C 
BRANCH  26  27
ATOM     27  C   UNL     1      -0.483   9.942  19.131  0.00  0.00    +0.000 C 
ATOM     28  C   UNL     1      -0.274  10.714  20.442  0.00  0.00    +0.000 C 
ATOM     29  C   UNL     1      -0.029  12.202  20.201  0.00  0.00    +0.000 C 
ATOM     30  C   UNL     1      -1.151  12.830  19.376  0.00  0.00    +0.000 C 
ATOM     31  C   UNL     1      -1.454  12.057  18.094  0.00  0.00    +0.000 C 
ATOM     32  C   UNL     1      -1.657  10.566  18.358  0.00  0.00    +0.000 C 
ENDBRANCH  26  27
ENDBRANCH  25  26
ENDBRANCH  10  25
TORSDOF 6
ENDMDL
MODEL 5
REMARK VINA RESULT:      -6.2      0.984      1.430
REMARK  Name = 
REMARK  8 active torsions:
REMARK  status: ('A' for Active; 'I' for Inactive)
REMARK    1  A    between atoms: C_1  and  N_2
REMARK    2  A    between atoms: N_2  and  C_3
REMARK    3  A    between atoms: C_3  and  C_4
REMARK    4  A    between atoms: C_3  and  C_5
REMARK    5  A    between atoms: N_7  and  C_8
REMARK    6  A    between atoms: N_17  and  C_18
REMARK    7  A    between atoms: C_18  and  C_19
REMARK    8  A    between atoms: C_19  and  C_20
REMARK                            x       y       z     vdW  Elec       q    Type
REMARK                         _______ _______ _______ _____ _____    ______ ____
ROOT
ATOM      1  C   UNL     1      -1.349  12.927  21.721  0.00  0.00    +0.000 C 
ATOM      2  C   UNL     1      -0.099  13.595  22.284  0.00  0.00    +0.000 C 
ATOM      3  C   UNL     1       1.018  13.928  21.291  0.00  0.00    +0.000 C 
ATOM      4  C   UNL     1       1.408  12.957  20.175  0.00  0.00    +0.000 C 
ATOM      5  C   UNL     1       0.319  12.094  19.527  0.00  0.00    +0.000 C 
ATOM      6  C   UNL     1       0.910  11.240  18.391  0.00  0.00    +0.000 C 
ATOM      7  C   UNL     1       0.259   9.862  18.572  0.00  0.00    +0.000 C 
ATOM      8  C   UNL     1       1.051   8.715  17.959  0.00  0.00    +0.000 C 
ATOM      9  C   UNL     1       2.342   8.430  18.727  0.00  0.00    +0.000 C 
ATOM     10  N   UNL     1       2.128   8.165  20.155  0.00  0.00    +0.000 NA
ATOM     11  C   UNL     1       1.401   9.271  20.797  0.00  0.00    +0.000 C 
ATOM     12  C   UNL     1       0.104   9.746  20.091  0.00  0.00    +0.000 C 
ATOM     13  N   UNL     1      -0.233  11.121  20.462  0.00  0.00    +0.000 N 
ATOM     14  C   UNL     1      -1.072  11.426  21.511  0.00  0.00    +0.000 C 
ATOM     15  O   UNL     1      -1.532  10.567  22.264  0.00  0.00    +0.000 OA
ENDROOT
BRANCH   1  18
ATOM     16  C   UNL     1      -3.765  13.079  22.292  0.00  0.00    +0.000 C 
ATOM     17  O   UNL     1      -4.104  13.135  21.107  0.00  0.00    +0.000 OA
ATOM     18  N   UNL     1      -2.445  13.051  22.684  0.00  0.00    +0.000 N 
ATOM     19  H   UNL     1      -2.258  12.643  23.593  0.00  0.00    +0.000 HD
BRANCH  16  20
ATOM     20  C   UNL     1      -4.798  13.181  23.435  0.00  0.00    +0.000 C 
ATOM     21  C   UNL     1      -4.196  12.549  24.689  0.00  0.00    +0.000 C 
BRANCH  20  23
ATOM     22  C   UNL     1      -7.154  13.413  22.800  0.00  0.00    +0.000 C 
ATOM     23  N   UNL     1      -6.077  12.498  23.142  0.00  0.00    +0.000 NA
ATOM     24  H   UNL     1      -5.960  11.770  22.443  0.00  0.00    +0.000 HD
ENDBRANCH  20  23
ENDBRANCH  16  20
ENDBRANCH   1  18
BRANCH  10  25
ATOM     25  C   UNL     1       1.529   6.860  20.437  0.00  0.00    +0.000 C 
BRANCH  25  26
ATOM     26  C   UNL     1       2.216   5.708  19.682  0.00  0.00    +0.000 C 
BRANCH  26  27
ATOM     27  C   UNL     1       2.447   4.427  20.524  0.00  0.00    +0.000 C 
ATOM     28  C   UNL     1       1.173   3.590  20.714  0.00  0.00    +0.000 C 
ATOM     29  C   UNL     1       0.684   2.982  19.403  0.00  0.00    +0.000 C 
ATOM     30  C   UNL     1       1.777   2.158  18.723  0.00  0.00    +0.000 C 
ATOM     31  C   UNL     1       3.093   2.918  18.576  0.00  0.00    +0.000 C 
ATOM     32  C   UNL     1       3.540   3.549  19.894  0.00  0.00    +0.000 C 
ENDBRANCH  26  27
ENDBRANCH  25  26
ENDBRANCH  10  25
TORSDOF 6
ENDMDL
MODEL 6
REMARK VINA RESULT:      -6.2      3.365      4.803
REMARK  Name = 
REMARK  8 active torsions:
REMARK  status: ('A' for Active; 'I' for Inactive)
REMARK    1  A    between atoms: C_1  and  N_2
REMARK    2  A    between atoms: N_2  and  C_3
REMARK    3  A    between atoms: C_3  and  C_4
REMARK    4  A    between atoms: C_3  and  C_5
REMARK    5  A    between atoms: N_7  and  C_8
REMARK    6  A    between atoms: N_17  and  C_18
REMARK    7  A    between atoms: C_18  and  C_19
REMARK    8  A    between atoms: C_19  and  C_20
REMARK                            x       y       z     vdW  Elec       q    Type
REMARK                         _______ _______ _______ _____ _____    ______ ____
ROOT
ATOM      1  C   UNL     1      -0.110  13.049  18.910  0.00  0.00    +0.000 C 
ATOM      2  C   UNL     1      -1.158  12.706  17.857  0.00  0.00    +0.000 C 
ATOM      3  C   UNL     1      -2.123  11.563  18.183  0.00  0.00    +0.000 C 
ATOM      4  C   UNL     1      -1.639  10.283  18.869  0.00  0.00    +0.000 C 
ATOM      5  C   UNL     1      -0.507  10.373  19.897  0.00  0.00    +0.000 C 
ATOM      6  C   UNL     1      -0.220   8.990  20.509  0.00  0.00    +0.000 C 
ATOM      7  C   UNL     1       1.312   8.907  20.561  0.00  0.00    +0.000 C 
ATOM      8  C   UNL     1       1.857   7.486  20.596  0.00  0.00    +0.000 C 
ATOM      9  C   UNL     1       1.660   6.760  19.265  0.00  0.00    +0.000 C 
ATOM     10  N   UNL     1       2.236   7.473  18.118  0.00  0.00    +0.000 NA
ATOM     11  C   UNL     1       1.703   8.841  18.021  0.00  0.00    +0.000 C 
ATOM     12  C   UNL     1       1.746   9.691  19.318  0.00  0.00    +0.000 C 
ATOM     13  N   UNL     1       0.756  10.767  19.284  0.00  0.00    +0.000 N 
ATOM     14  C   UNL     1       1.046  12.033  18.825  0.00  0.00    +0.000 C 
ATOM     15  O   UNL     1       2.136  12.326  18.333  0.00  0.00    +0.000 OA
ENDROOT
BRANCH   1  18
ATOM     16  C   UNL     1       0.032  15.496  19.332  0.00  0.00    +0.000 C 
ATOM     17  O   UNL     1      -0.910  15.474  20.129  0.00  0.00    +0.000 OA
ATOM     18  N   UNL     1       0.440  14.378  18.638  0.00  0.00    +0.000 N 
ATOM     19  H   UNL     1       1.400  14.380  18.313  0.00  0.00    +0.000 HD
BRANCH  16  20
ATOM     20  C   UNL     1       0.734  16.815  18.943  0.00  0.00    +0.000 C 
ATOM     21  C   UNL     1      -0.092  17.501  17.856  0.00  0.00    +0.000 C 
BRANCH  20  23
ATOM     22  C   UNL     1       3.132  16.773  19.451  0.00  0.00    +0.000 C 
ATOM     23  N   UNL     1       2.108  16.626  18.428  0.00  0.00    +0.000 NA
ATOM     24  H   UNL     1       2.200  15.750  17.922  0.00  0.00    +0.000 HD
ENDBRANCH  20  23
ENDBRANCH  16  20
ENDBRANCH   1  18
BRANCH  10  25
ATOM     25  C   UNL     1       3.698   7.433  18.063  0.00  0.00    +0.000 C 
BRANCH  25  26
ATOM     26  C   UNL     1       4.237   6.248  17.243  0.00  0.00    +0.000 C 
BRANCH  26  27
ATOM     27  C   UNL     1       5.491   6.567  16.389  0.00  0.00    +0.000 C 
ATOM     28  C   UNL     1       6.715   6.952  17.233  0.00  0.00    +0.000 C 
ATOM     29  C   UNL     1       7.230   5.781  18.067  0.00  0.00    +0.000 C 
ATOM     30  C   UNL     1       7.534   4.563  17.196  0.00  0.00    +0.000 C 
ATOM     31  C   UNL     1       6.375   4.181  16.279  0.00  0.00    +0.000 C 
ATOM     32  C   UNL     1       5.854   5.378  15.486  0.00  0.00    +0.000 C 
ENDBRANCH  26  27
ENDBRANCH  25  26
ENDBRANCH  10  25
TORSDOF 6
ENDMDL
MODEL 7
REMARK VINA RESULT:      -6.2      5.301      7.913
REMARK  Name = 
REMARK  8 active torsions:
REMARK  status: ('A' for Active; 'I' for Inactive)
REMARK    1  A    between atoms: C_1  and  N_2
REMARK    2  A    between atoms: N_2  and  C_3
REMARK    3  A    between atoms: C_3  and  C_4
REMARK    4  A    between atoms: C_3  and  C_5
REMARK    5  A    between atoms: N_7  and  C_8
REMARK    6  A    between atoms: N_17  and  C_18
REMARK    7  A    between atoms: C_18  and  C_19
REMARK    8  A    between atoms: C_19  and  C_20
REMARK                            x       y       z     vdW  Elec       q    Type
REMARK                         _______ _______ _______ _____ _____    ______ ____
ROOT
ATOM      1  C   UNL     1       0.866  14.485  20.468  0.00  0.00    +0.000 C 
ATOM      2  C   UNL     1       0.608  15.953  20.790  0.00  0.00    +0.000 C 
ATOM      3  C   UNL     1       0.923  16.971  19.691  0.00  0.00    +0.000 C 
ATOM      4  C   UNL     1       2.176  16.844  18.821  0.00  0.00    +0.000 C 
ATOM      5  C   UNL     1       2.688  15.447  18.456  0.00  0.00    +0.000 C 
ATOM      6  C   UNL     1       3.913  15.545  17.530  0.00  0.00    +0.000 C 
ATOM      7  C   UNL     1       4.884  14.486  18.069  0.00  0.00    +0.000 C 
ATOM      8  C   UNL     1       6.342  14.739  17.710  0.00  0.00    +0.000 C 
ATOM      9  C   UNL     1       6.920  15.941  18.457  0.00  0.00    +0.000 C 
ATOM     10  N   UNL     1       6.788  15.842  19.916  0.00  0.00    +0.000 NA
ATOM     11  C   UNL     1       5.386  15.640  20.310  0.00  0.00    +0.000 C 
ATOM     12  C   UNL     1       4.620  14.507  19.578  0.00  0.00    +0.000 C 
ATOM     13  N   UNL     1       3.174  14.722  19.624  0.00  0.00    +0.000 N 
ATOM     14  C   UNL     1       2.372  14.192  20.610  0.00  0.00    +0.000 C 
ATOM     15  O   UNL     1       2.826  13.568  21.570  0.00  0.00    +0.000 OA
ENDROOT
BRANCH   1  18
ATOM     16  C   UNL     1      -0.347  12.404  21.085  0.00  0.00    +0.000 C 
ATOM     17  O   UNL     1      -0.342  11.984  19.925  0.00  0.00    +0.000 OA
ATOM     18  N   UNL     1       0.152  13.642  21.427  0.00  0.00    +0.000 N 
ATOM     19  H   UNL     1       0.446  13.753  22.391  0.00  0.00    +0.000 HD
BRANCH  16  20
ATOM     20  C   UNL     1      -1.046  11.629  22.223  0.00  0.00    +0.000 C 
ATOM     21  C   UNL     1      -1.618  12.640  23.216  0.00  0.00    +0.000 C 
BRANCH  20  23
ATOM     22  C   UNL     1      -0.384   9.312  22.670  0.00  0.00    +0.000 C 
ATOM     23  N   UNL     1      -0.145  10.717  22.961  0.00  0.00    +0.000 NA
ATOM     24  H   UNL     1       0.830  10.971  22.833  0.00  0.00    +0.000 HD
ENDBRANCH  20  23
ENDBRANCH  16  20
ENDBRANCH   1  18
BRANCH  10  25
ATOM     25  C   UNL     1       7.692  14.871  20.533  0.00  0.00    +0.000 C 
BRANCH  25  26
ATOM     26  C   UNL     1       9.130  14.959  19.991  0.00  0.00    +0.000 C 
BRANCH  26  27
ATOM     27  C   UNL     1       9.966  13.665  20.157  0.00  0.00    +0.000 C 
ATOM     28  C   UNL     1       9.346  12.450  19.450  0.00  0.00    +0.000 C 
ATOM     29  C   UNL     1       9.358  12.601  17.931  0.00  0.00    +0.000 C 
ATOM     30  C   UNL     1      10.766  12.874  17.404  0.00  0.00    +0.000 C 
ATOM     31  C   UNL     1      11.460  14.027  18.126  0.00  0.00    +0.000 C 
ATOM     32  C   UNL     1      11.401  13.870  19.644  0.00  0.00    +0.000 C 
ENDBRANCH  26  27
ENDBRANCH  25  26
ENDBRANCH  10  25
TORSDOF 6
ENDMDL
MODEL 8
REMARK VINA RESULT:      -6.1      2.041      9.305
REMARK  Name = 
REMARK  8 active torsions:
REMARK  status: ('A' for Active; 'I' for Inactive)
REMARK    1  A    between atoms: C_1  and  N_2
REMARK    2  A    between atoms: N_2  and  C_3
REMARK    3  A    between atoms: C_3  and  C_4
REMARK    4  A    between atoms: C_3  and  C_5
REMARK    5  A    between atoms: N_7  and  C_8
REMARK    6  A    between atoms: N_17  and  C_18
REMARK    7  A    between atoms: C_18  and  C_19
REMARK    8  A    between atoms: C_19  and  C_20
REMARK                            x       y       z     vdW  Elec       q    Type
REMARK                         _______ _______ _______ _____ _____    ______ ____
ROOT
ATOM      1  C   UNL     1       1.611   8.720  20.177  0.00  0.00    +0.000 C 
ATOM      2  C   UNL     1       1.461   8.809  18.662  0.00  0.00    +0.000 C 
ATOM      3  C   UNL     1       1.784  10.156  18.010  0.00  0.00    +0.000 C 
ATOM      4  C   UNL     1       1.350  11.477  18.652  0.00  0.00    +0.000 C 
ATOM      5  C   UNL     1       1.320  11.585  20.180  0.00  0.00    +0.000 C 
ATOM      6  C   UNL     1       0.920  13.007  20.613  0.00  0.00    +0.000 C 
ATOM      7  C   UNL     1      -0.060  12.789  21.775  0.00  0.00    +0.000 C 
ATOM      8  C   UNL     1      -1.007  13.957  22.016  0.00  0.00    +0.000 C 
ATOM      9  C   UNL     1      -2.043  14.100  20.901  0.00  0.00    +0.000 C 
ATOM     10  N   UNL     1      -2.825  12.879  20.670  0.00  0.00    +0.000 NA
ATOM     11  C   UNL     1      -1.949  11.731  20.390  0.00  0.00    +0.000 C 
ATOM     12  C   UNL     1      -0.782  11.496  21.384  0.00  0.00    +0.000 C 
ATOM     13  N   UNL     1       0.299  10.727  20.767  0.00  0.00    +0.000 N 
ATOM     14  C   UNL     1       0.376   9.354  20.847  0.00  0.00    +0.000 C 
ATOM     15  O   UNL     1      -0.503   8.669  21.372  0.00  0.00    +0.000 OA
ENDROOT
BRANCH   1  18
ATOM     16  C   UNL     1       2.538   6.420  19.996  0.00  0.00    +0.000 C 
ATOM     17  O   UNL     1       3.225   6.708  19.012  0.00  0.00    +0.000 OA
ATOM     18  N   UNL     1       1.669   7.315  20.581  0.00  0.00    +0.000 N 
ATOM     19  H   UNL     1       1.441   7.144  21.554  0.00  0.00    +0.000 HD
BRANCH  16  20
ATOM     20  C   UNL     1       2.495   4.983  20.560  0.00  0.00    +0.000 C 
ATOM     21  C   UNL     1       3.373   4.092  19.683  0.00  0.00    +0.000 C 
BRANCH  20  23
ATOM     22  C   UNL     1       1.129   2.969  20.856  0.00  0.00    +0.000 C 
ATOM     23  N   UNL     1       1.136   4.400  20.595  0.00  0.00    +0.000 NA
ATOM     24  H   UNL     1       0.529   4.906  21.234  0.00  0.00    +0.000 HD
ENDBRANCH  20  23
ENDBRANCH  16  20
ENDBRANCH   1  18
BRANCH  10  25
ATOM     25  C   UNL     1      -3.810  12.593  21.715  0.00  0.00    +0.000 C 
BRANCH  25  26
ATOM     26  C   UNL     1      -4.666  13.817  22.085  0.00  0.00    +0.000 C 
BRANCH  26  27
ATOM     27  C   UNL     1      -4.789  14.086  23.607  0.00  0.00    +0.000 C 
ATOM     28  C   UNL     1      -5.663  15.305  23.936  0.00  0.00    +0.000 C 
ATOM     29  C   UNL     1      -7.128  15.080  23.569  0.00  0.00    +0.000 C 
ATOM     30  C   UNL     1      -7.685  13.820  24.230  0.00  0.00    +0.000 C 
ATOM     31  C   UNL     1      -6.812  12.589  23.998  0.00  0.00    +0.000 C 
ATOM     32  C   UNL     1      -5.347  12.853  24.336  0.00  0.00    +0.000 C 
ENDBRANCH  26  27
ENDBRANCH  25  26
ENDBRANCH  10  25
TORSDOF 6
ENDMDL
MODEL 9
REMARK VINA RESULT:      -6.1      1.136      1.561
REMARK  Name = 
REMARK  8 active torsions:
REMARK  status: ('A' for Active; 'I' for Inactive)
REMARK    1  A    between atoms: C_1  and  N_2
REMARK    2  A    between atoms: N_2  and  C_3
REMARK    3  A    between atoms: C_3  and  C_4
REMARK    4  A    between atoms: C_3  and  C_5
REMARK    5  A    between atoms: N_7  and  C_8
REMARK    6  A    between atoms: N_17  and  C_18
REMARK    7  A    between atoms: C_18  and  C_19
REMARK    8  A    between atoms: C_19  and  C_20
REMARK                            x       y       z     vdW  Elec       q    Type
REMARK                         _______ _______ _______ _____ _____    ______ ____
ROOT
ATOM      1  C   UNL     1      -1.268  12.958  21.888  0.00  0.00    +0.000 C 
ATOM      2  C   UNL     1       0.016  13.718  22.206  0.00  0.00    +0.000 C 
ATOM      3  C   UNL     1       0.901  14.113  21.021  0.00  0.00    +0.000 C 
ATOM      4  C   UNL     1       1.142  13.154  19.852  0.00  0.00    +0.000 C 
ATOM      5  C   UNL     1       0.015  12.210  19.421  0.00  0.00    +0.000 C 
ATOM      6  C   UNL     1       0.442  11.382  18.195  0.00  0.00    +0.000 C 
ATOM      7  C   UNL     1      -0.065   9.965  18.497  0.00  0.00    +0.000 C 
ATOM      8  C   UNL     1       0.677   8.867  17.748  0.00  0.00    +0.000 C 
ATOM      9  C   UNL     1       2.106   8.683  18.260  0.00  0.00    +0.000 C 
ATOM     10  N   UNL     1       2.181   8.424  19.703  0.00  0.00    +0.000 NA
ATOM     11  C   UNL     1       1.512   9.487  20.469  0.00  0.00    +0.000 C 
ATOM     12  C   UNL     1       0.075   9.861  20.019  0.00  0.00    +0.000 C 
ATOM     13  N   UNL     1      -0.282  11.215  20.444  0.00  0.00    +0.000 N 
ATOM     14  C   UNL     1      -0.930  11.476  21.631  0.00  0.00    +0.000 C 
ATOM     15  O   UNL     1      -1.179  10.599  22.458  0.00  0.00    +0.000 OA
ENDROOT
BRANCH   1  18
ATOM     16  C   UNL     1      -3.537  12.913  22.905  0.00  0.00    +0.000 C 
ATOM     17  O   UNL     1      -4.096  12.892  21.805  0.00  0.00    +0.000 OA
ATOM     18  N   UNL     1      -2.170  13.019  23.039  0.00  0.00    +0.000 N 
ATOM     19  H   UNL     1      -1.777  12.666  23.904  0.00  0.00    +0.000 HD
BRANCH  16  20
ATOM     20  C   UNL     1      -4.342  12.966  24.222  0.00  0.00    +0.000 C 
ATOM     21  C   UNL     1      -5.829  12.892  23.882  0.00  0.00    +0.000 C 
BRANCH  20  23
ATOM     22  C   UNL     1      -4.403  15.416  24.275  0.00  0.00    +0.000 C 
ATOM     23  N   UNL     1      -4.109  14.197  25.010  0.00  0.00    +0.000 NA
ATOM     24  H   UNL     1      -4.593  14.165  25.903  0.00  0.00    +0.000 HD
ENDBRANCH  20  23
ENDBRANCH  16  20
ENDBRANCH   1  18
BRANCH  10  25
ATOM     25  C   UNL     1       1.739   7.085  20.094  0.00  0.00    +0.000 C 
BRANCH  25  26
ATOM     26  C   UNL     1       2.579   5.964  19.456  0.00  0.00    +0.000 C 
BRANCH  26  27
ATOM     27  C   UNL     1       1.798   4.662  19.150  0.00  0.00    +0.000 C 
ATOM     28  C   UNL     1       2.689   3.536  18.605  0.00  0.00    +0.000 C 
ATOM     29  C   UNL     1       3.682   3.031  19.650  0.00  0.00    +0.000 C 
ATOM     30  C   UNL     1       2.975   2.590  20.930  0.00  0.00    +0.000 C 
ATOM     31  C   UNL     1       2.015   3.646  21.476  0.00  0.00    +0.000 C 
ATOM     32  C   UNL     1       1.059   4.160  20.402  0.00  0.00    +0.000 C 
ENDBRANCH  26  27
ENDBRANCH  25  26
ENDBRANCH  10  25
TORSDOF 6
ENDMDL
