MODEL 1
REMARK VINA RESULT:      -8.6      0.000      0.000
REMARK  Name = 
REMARK  3 active torsions:
REMARK  status: ('A' for Active; 'I' for Inactive)
REMARK    1  A    between atoms: C_1  and  C_2
REMARK    2  A    between atoms: C_5  and  C_6
REMARK    3  A    between atoms: C_8  and  O_9
REMARK                            x       y       z     vdW  Elec       q    Type
REMARK                         _______ _______ _______ _____ _____    ______ ____
ROOT
ATOM      1  C   UNL     1       4.951   4.407  17.929  0.00  0.00    +0.000 A 
ATOM      2  C   UNL     1       5.962   5.388  18.328  0.00  0.00    +0.000 A 
ATOM      3  C   UNL     1       6.874   5.864  17.461  0.00  0.00    +0.000 A 
ATOM      4  C   UNL     1       6.880   5.418  16.109  0.00  0.00    +0.000 A 
ATOM      5  N   UNL     1       7.655   5.735  15.092  0.00  0.00    +0.000 NA
ATOM      6  C   UNL     1       7.196   4.994  14.039  0.00  0.00    +0.000 A 
ATOM      7  C   UNL     1       7.681   4.962  12.723  0.00  0.00    +0.000 A 
ATOM      8  C   UNL     1       7.060   4.123  11.794  0.00  0.00    +0.000 A 
ATOM      9  C   UNL     1       5.974   3.332  12.172  0.00  0.00    +0.000 A 
ATOM     10  C   UNL     1       5.474   3.350  13.483  0.00  0.00    +0.000 A 
ATOM     11  C   UNL     1       6.110   4.198  14.404  0.00  0.00    +0.000 A 
ATOM     12  N   UNL     1       5.910   4.480  15.746  0.00  0.00    +0.000 N 
ATOM     13  C   UNL     1       4.956   3.979  16.647  0.00  0.00    +0.000 A 
ENDROOT
BRANCH   1  18
ATOM     14  C   UNL     1       1.131   2.606  21.897  0.00  0.00    +0.000 C 
ATOM     15  C   UNL     1       2.117   3.048  20.854  0.00  0.00    +0.000 A 
ATOM     16  C   UNL     1       3.359   2.417  20.723  0.00  0.00    +0.000 A 
ATOM     17  C   UNL     1       4.273   2.842  19.750  0.00  0.00    +0.000 A 
ATOM     18  C   UNL     1       3.956   3.901  18.892  0.00  0.00    +0.000 A 
ATOM     19  C   UNL     1       2.717   4.539  19.030  0.00  0.00    +0.000 A 
ATOM     20  C   UNL     1       1.804   4.114  20.002  0.00  0.00    +0.000 A 
ENDBRANCH   1  18
BRANCH   3  21
ATOM     21  O   UNL     1       7.838   6.783  17.795  0.00  0.00    +0.000 OA
ATOM     22  H   UNL     1       7.844   7.488  17.130  0.00  0.00    +0.000 HD
ENDBRANCH   3  21
TORSDOF 2
ENDMDL
MODEL 2
REMARK VINA RESULT:      -8.5      0.190      1.068
REMARK  Name = 
REMARK  3 active torsions:
REMARK  status: ('A' for Active; 'I' for Inactive)
REMARK    1  A    between atoms: C_1  and  C_2
REMARK    2  A    between atoms: C_5  and  C_6
REMARK    3  A    between atoms: C_8  and  O_9
REMARK                            x       y       z     vdW  Elec       q    Type
REMARK                         _______ _______ _______ _____ _____    ______ ____
ROOT
ATOM      1  C   UNL     1       5.067   4.539  17.905  0.00  0.00    +0.000 A 
ATOM      2  C   UNL     1       6.125   5.498  18.228  0.00  0.00    +0.000 A 
ATOM      3  C   UNL     1       7.016   5.910  17.308  0.00  0.00    +0.000 A 
ATOM      4  C   UNL     1       6.952   5.417  15.975  0.00  0.00    +0.000 A 
ATOM      5  N   UNL     1       7.696   5.670  14.917  0.00  0.00    +0.000 NA
ATOM      6  C   UNL     1       7.170   4.910  13.911  0.00  0.00    +0.000 A 
ATOM      7  C   UNL     1       7.599   4.814  12.578  0.00  0.00    +0.000 A 
ATOM      8  C   UNL     1       6.914   3.965  11.706  0.00  0.00    +0.000 A 
ATOM      9  C   UNL     1       5.818   3.225  12.156  0.00  0.00    +0.000 A 
ATOM     10  C   UNL     1       5.373   3.307  13.484  0.00  0.00    +0.000 A 
ATOM     11  C   UNL     1       6.074   4.165  14.347  0.00  0.00    +0.000 A 
ATOM     12  N   UNL     1       5.938   4.501  15.685  0.00  0.00    +0.000 N 
ATOM     13  C   UNL     1       5.005   4.066  16.641  0.00  0.00    +0.000 A 
ENDROOT
BRANCH   1  18
ATOM     14  C   UNL     1       1.141   2.651  21.727  0.00  0.00    +0.000 C 
ATOM     15  C   UNL     1       2.163   3.163  20.753  0.00  0.00    +0.000 A 
ATOM     16  C   UNL     1       1.919   4.308  19.987  0.00  0.00    +0.000 A 
ATOM     17  C   UNL     1       2.877   4.773  19.078  0.00  0.00    +0.000 A 
ATOM     18  C   UNL     1       4.095   4.102  18.925  0.00  0.00    +0.000 A 
ATOM     19  C   UNL     1       4.336   2.951  19.684  0.00  0.00    +0.000 A 
ATOM     20  C   UNL     1       3.378   2.487  20.593  0.00  0.00    +0.000 A 
ENDBRANCH   1  18
BRANCH   3  21
ATOM     21  O   UNL     1       8.023   6.807  17.570  0.00  0.00    +0.000 OA
ATOM     22  H   UNL     1       8.775   6.332  17.953  0.00  0.00    +0.000 HD
ENDBRANCH   3  21
TORSDOF 2
ENDMDL
MODEL 3
REMARK VINA RESULT:      -8.1      5.488      8.510
REMARK  Name = 
REMARK  3 active torsions:
REMARK  status: ('A' for Active; 'I' for Inactive)
REMARK    1  A    between atoms: C_1  and  C_2
REMARK    2  A    between atoms: C_5  and  C_6
REMARK    3  A    between atoms: C_8  and  O_9
REMARK                            x       y       z     vdW  Elec       q    Type
REMARK                         _______ _______ _______ _____ _____    ______ ____
ROOT
ATOM      1  C   UNL     1       2.184   7.205  19.681  0.00  0.00    +0.000 A 
ATOM      2  C   UNL     1       2.361   8.004  18.467  0.00  0.00    +0.000 A 
ATOM      3  C   UNL     1       1.826   9.232  18.339  0.00  0.00    +0.000 A 
ATOM      4  C   UNL     1       1.061   9.796  19.398  0.00  0.00    +0.000 A 
ATOM      5  N   UNL     1       0.452  10.959  19.507  0.00  0.00    +0.000 NA
ATOM      6  C   UNL     1      -0.124  10.954  20.746  0.00  0.00    +0.000 A 
ATOM      7  C   UNL     1      -0.892  11.960  21.352  0.00  0.00    +0.000 A 
ATOM      8  C   UNL     1      -1.394  11.746  22.638  0.00  0.00    +0.000 A 
ATOM      9  C   UNL     1      -1.132  10.550  23.309  0.00  0.00    +0.000 A 
ATOM     10  C   UNL     1      -0.366   9.531  22.721  0.00  0.00    +0.000 A 
ATOM     11  C   UNL     1       0.130   9.763  21.427  0.00  0.00    +0.000 A 
ATOM     12  N   UNL     1       0.900   9.019  20.548  0.00  0.00    +0.000 N 
ATOM     13  C   UNL     1       1.455   7.736  20.688  0.00  0.00    +0.000 A 
ENDROOT
BRANCH   1  18
ATOM     14  C   UNL     1       4.418   1.864  19.930  0.00  0.00    +0.000 C 
ATOM     15  C   UNL     1       3.844   3.252  19.894  0.00  0.00    +0.000 A 
ATOM     16  C   UNL     1       2.631   3.547  20.525  0.00  0.00    +0.000 A 
ATOM     17  C   UNL     1       2.103   4.843  20.479  0.00  0.00    +0.000 A 
ATOM     18  C   UNL     1       2.783   5.863  19.805  0.00  0.00    +0.000 A 
ATOM     19  C   UNL     1       3.992   5.566  19.166  0.00  0.00    +0.000 A 
ATOM     20  C   UNL     1       4.519   4.271  19.212  0.00  0.00    +0.000 A 
ENDBRANCH   1  18
BRANCH   3  21
ATOM     21  O   UNL     1       1.969  10.013  17.217  0.00  0.00    +0.000 OA
ATOM     22  H   UNL     1       2.809  10.492  17.274  0.00  0.00    +0.000 HD
ENDBRANCH   3  21
TORSDOF 2
ENDMDL
MODEL 4
REMARK VINA RESULT:      -8.0      5.368      8.335
REMARK  Name = 
REMARK  3 active torsions:
REMARK  status: ('A' for Active; 'I' for Inactive)
REMARK    1  A    between atoms: C_1  and  C_2
REMARK    2  A    between atoms: C_5  and  C_6
REMARK    3  A    between atoms: C_8  and  O_9
REMARK                            x       y       z     vdW  Elec       q    Type
REMARK                         _______ _______ _______ _____ _____    ______ ____
ROOT
ATOM      1  C   UNL     1       2.181   7.265  18.944  0.00  0.00    +0.000 A 
ATOM      2  C   UNL     1       2.454   8.291  17.937  0.00  0.00    +0.000 A 
ATOM      3  C   UNL     1       2.052   9.566  18.092  0.00  0.00    +0.000 A 
ATOM      4  C   UNL     1       1.339   9.956  19.260  0.00  0.00    +0.000 A 
ATOM      5  N   UNL     1       0.853  11.123  19.634  0.00  0.00    +0.000 NA
ATOM      6  C   UNL     1       0.267  10.902  20.848  0.00  0.00    +0.000 A 
ATOM      7  C   UNL     1      -0.398  11.822  21.672  0.00  0.00    +0.000 A 
ATOM      8  C   UNL     1      -0.933  11.381  22.885  0.00  0.00    +0.000 A 
ATOM      9  C   UNL     1      -0.805  10.044  23.269  0.00  0.00    +0.000 A 
ATOM     10  C   UNL     1      -0.143   9.108  22.460  0.00  0.00    +0.000 A 
ATOM     11  C   UNL     1       0.388   9.569  21.243  0.00  0.00    +0.000 A 
ATOM     12  N   UNL     1       1.085   8.964  20.210  0.00  0.00    +0.000 N 
ATOM     13  C   UNL     1       1.502   7.631  20.054  0.00  0.00    +0.000 A 
ENDROOT
BRANCH   1  18
ATOM     14  C   UNL     1       3.778   1.720  18.406  0.00  0.00    +0.000 C 
ATOM     15  C   UNL     1       3.389   3.165  18.532  0.00  0.00    +0.000 A 
ATOM     16  C   UNL     1       4.067   4.020  19.408  0.00  0.00    +0.000 A 
ATOM     17  C   UNL     1       3.692   5.364  19.522  0.00  0.00    +0.000 A 
ATOM     18  C   UNL     1       2.635   5.874  18.759  0.00  0.00    +0.000 A 
ATOM     19  C   UNL     1       1.950   5.016  17.891  0.00  0.00    +0.000 A 
ATOM     20  C   UNL     1       2.325   3.673  17.776  0.00  0.00    +0.000 A 
ENDBRANCH   1  18
BRANCH   3  21
ATOM     21  O   UNL     1       2.287  10.557  17.171  0.00  0.00    +0.000 OA
ATOM     22  H   UNL     1       1.534  10.607  16.564  0.00  0.00    +0.000 HD
ENDBRANCH   3  21
TORSDOF 2
ENDMDL
MODEL 5
REMARK VINA RESULT:      -8.0      5.435      8.452
REMARK  Name = 
REMARK  3 active torsions:
REMARK  status: ('A' for Active; 'I' for Inactive)
REMARK    1  A    between atoms: C_1  and  C_2
REMARK    2  A    between atoms: C_5  and  C_6
REMARK    3  A    between atoms: C_8  and  O_9
REMARK                            x       y       z     vdW  Elec       q    Type
REMARK                         _______ _______ _______ _____ _____    ______ ____
ROOT
ATOM      1  C   UNL     1       2.194   7.156  19.577  0.00  0.00    +0.000 A 
ATOM      2  C   UNL     1       2.381   7.993  18.390  0.00  0.00    +0.000 A 
ATOM      3  C   UNL     1       1.870   9.234  18.306  0.00  0.00    +0.000 A 
ATOM      4  C   UNL     1       1.122   9.777  19.388  0.00  0.00    +0.000 A 
ATOM      5  N   UNL     1       0.536  10.948  19.540  0.00  0.00    +0.000 NA
ATOM      6  C   UNL     1      -0.035  10.911  20.781  0.00  0.00    +0.000 A 
ATOM      7  C   UNL     1      -0.780  11.911  21.425  0.00  0.00    +0.000 A 
ATOM      8  C   UNL     1      -1.280  11.664  22.705  0.00  0.00    +0.000 A 
ATOM      9  C   UNL     1      -1.039  10.440  23.334  0.00  0.00    +0.000 A 
ATOM     10  C   UNL     1      -0.296   9.427  22.708  0.00  0.00    +0.000 A 
ATOM     11  C   UNL     1       0.199   9.693  21.420  0.00  0.00    +0.000 A 
ATOM     12  N   UNL     1       0.950   8.964  20.512  0.00  0.00    +0.000 N 
ATOM     13  C   UNL     1       1.481   7.667  20.605  0.00  0.00    +0.000 A 
ENDROOT
BRANCH   1  18
ATOM     14  C   UNL     1       4.553   1.891  20.120  0.00  0.00    +0.000 C 
ATOM     15  C   UNL     1       3.938   3.251  19.951  0.00  0.00    +0.000 A 
ATOM     16  C   UNL     1       4.608   4.264  19.255  0.00  0.00    +0.000 A 
ATOM     17  C   UNL     1       4.027   5.529  19.109  0.00  0.00    +0.000 A 
ATOM     18  C   UNL     1       2.766   5.799  19.653  0.00  0.00    +0.000 A 
ATOM     19  C   UNL     1       2.100   4.789  20.357  0.00  0.00    +0.000 A 
ATOM     20  C   UNL     1       2.681   3.524  20.503  0.00  0.00    +0.000 A 
ENDBRANCH   1  18
BRANCH   3  21
ATOM     21  O   UNL     1       2.023  10.050  17.212  0.00  0.00    +0.000 OA
ATOM     22  H   UNL     1       2.754  10.664  17.377  0.00  0.00    +0.000 HD
ENDBRANCH   3  21
TORSDOF 2
ENDMDL
MODEL 6
REMARK VINA RESULT:      -7.8      4.466      6.025
REMARK  Name = 
REMARK  3 active torsions:
REMARK  status: ('A' for Active; 'I' for Inactive)
REMARK    1  A    between atoms: C_1  and  C_2
REMARK    2  A    between atoms: C_5  and  C_6
REMARK    3  A    between atoms: C_8  and  O_9
REMARK                            x       y       z     vdW  Elec       q    Type
REMARK                         _______ _______ _______ _____ _____    ______ ____
ROOT
ATOM      1  C   UNL     1       1.788   7.288  20.247  0.00  0.00    +0.000 A 
ATOM      2  C   UNL     1       1.544   6.001  20.901  0.00  0.00    +0.000 A 
ATOM      3  C   UNL     1       2.081   4.856  20.442  0.00  0.00    +0.000 A 
ATOM      4  C   UNL     1       2.915   4.866  19.289  0.00  0.00    +0.000 A 
ATOM      5  N   UNL     1       3.546   3.893  18.663  0.00  0.00    +0.000 NA
ATOM      6  C   UNL     1       4.193   4.491  17.618  0.00  0.00    +0.000 A 
ATOM      7  C   UNL     1       5.006   3.893  16.643  0.00  0.00    +0.000 A 
ATOM      8  C   UNL     1       5.574   4.696  15.651  0.00  0.00    +0.000 A 
ATOM      9  C   UNL     1       5.336   6.072  15.634  0.00  0.00    +0.000 A 
ATOM     10  C   UNL     1       4.526   6.689  16.599  0.00  0.00    +0.000 A 
ATOM     11  C   UNL     1       3.963   5.867  17.589  0.00  0.00    +0.000 A 
ATOM     12  N   UNL     1       3.135   6.102  18.675  0.00  0.00    +0.000 N 
ATOM     13  C   UNL     1       2.577   7.301  19.150  0.00  0.00    +0.000 A 
ENDROOT
BRANCH   1  18
ATOM     14  C   UNL     1      -0.790  12.070  22.262  0.00  0.00    +0.000 C 
ATOM     15  C   UNL     1      -0.098  10.846  21.735  0.00  0.00    +0.000 A 
ATOM     16  C   UNL     1       0.245  10.737  20.383  0.00  0.00    +0.000 A 
ATOM     17  C   UNL     1       0.885   9.588  19.903  0.00  0.00    +0.000 A 
ATOM     18  C   UNL     1       1.196   8.534  20.768  0.00  0.00    +0.000 A 
ATOM     19  C   UNL     1       0.845   8.639  22.119  0.00  0.00    +0.000 A 
ATOM     20  C   UNL     1       0.205   9.787  22.599  0.00  0.00    +0.000 A 
ENDBRANCH   1  18
BRANCH   3  21
ATOM     21  O   UNL     1       1.876   3.630  21.026  0.00  0.00    +0.000 OA
ATOM     22  H   UNL     1       1.372   3.072  20.415  0.00  0.00    +0.000 HD
ENDBRANCH   3  21
TORSDOF 2
ENDMDL
MODEL 7
REMARK VINA RESULT:      -7.8      4.098      5.481
REMARK  Name = 
REMARK  3 active torsions:
REMARK  status: ('A' for Active; 'I' for Inactive)
REMARK    1  A    between atoms: C_1  and  C_2
REMARK    2  A    between atoms: C_5  and  C_6
REMARK    3  A    between atoms: C_8  and  O_9
REMARK                            x       y       z     vdW  Elec       q    Type
REMARK                         _______ _______ _______ _____ _____    ______ ____
ROOT
ATOM      1  C   UNL     1       2.156   6.985  19.766  0.00  0.00    +0.000 A 
ATOM      2  C   UNL     1       2.001   5.715  20.477  0.00  0.00    +0.000 A 
ATOM      3  C   UNL     1       2.606   4.588  20.061  0.00  0.00    +0.000 A 
ATOM      4  C   UNL     1       3.426   4.600  18.898  0.00  0.00    +0.000 A 
ATOM      5  N   UNL     1       4.113   3.643  18.308  0.00  0.00    +0.000 NA
ATOM      6  C   UNL     1       4.710   4.235  17.230  0.00  0.00    +0.000 A 
ATOM      7  C   UNL     1       5.550   3.648  16.272  0.00  0.00    +0.000 A 
ATOM      8  C   UNL     1       6.056   4.442  15.239  0.00  0.00    +0.000 A 
ATOM      9  C   UNL     1       5.729   5.797  15.165  0.00  0.00    +0.000 A 
ATOM     10  C   UNL     1       4.891   6.403  16.113  0.00  0.00    +0.000 A 
ATOM     11  C   UNL     1       4.391   5.590  17.144  0.00  0.00    +0.000 A 
ATOM     12  N   UNL     1       3.561   5.820  18.230  0.00  0.00    +0.000 N 
ATOM     13  C   UNL     1       2.931   7.000  18.659  0.00  0.00    +0.000 A 
ENDROOT
BRANCH   1  18
ATOM     14  C   UNL     1      -0.214  11.923  21.658  0.00  0.00    +0.000 C 
ATOM     15  C   UNL     1       0.375  10.630  21.173  0.00  0.00    +0.000 A 
ATOM     16  C   UNL     1       0.647   9.583  22.062  0.00  0.00    +0.000 A 
ATOM     17  C   UNL     1       1.202   8.384  21.598  0.00  0.00    +0.000 A 
ATOM     18  C   UNL     1       1.489   8.212  20.240  0.00  0.00    +0.000 A 
ATOM     19  C   UNL     1       1.226   9.262  19.353  0.00  0.00    +0.000 A 
ATOM     20  C   UNL     1       0.672  10.461  19.815  0.00  0.00    +0.000 A 
ENDBRANCH   1  18
BRANCH   3  21
ATOM     21  O   UNL     1       2.486   3.378  20.700  0.00  0.00    +0.000 OA
ATOM     22  H   UNL     1       2.398   2.679  20.034  0.00  0.00    +0.000 HD
ENDBRANCH   3  21
TORSDOF 2
ENDMDL
MODEL 8
REMARK VINA RESULT:      -7.7      1.719      6.905
REMARK  Name = 
REMARK  3 active torsions:
REMARK  status: ('A' for Active; 'I' for Inactive)
REMARK    1  A    between atoms: C_1  and  C_2
REMARK    2  A    between atoms: C_5  and  C_6
REMARK    3  A    between atoms: C_8  and  O_9
REMARK                            x       y       z     vdW  Elec       q    Type
REMARK                         _______ _______ _______ _____ _____    ______ ____
ROOT
ATOM      1  C   UNL     1       5.715   4.371  16.491  0.00  0.00    +0.000 A 
ATOM      2  C   UNL     1       6.578   4.890  17.554  0.00  0.00    +0.000 A 
ATOM      3  C   UNL     1       6.172   4.952  18.835  0.00  0.00    +0.000 A 
ATOM      4  C   UNL     1       4.869   4.508  19.196  0.00  0.00    +0.000 A 
ATOM      5  N   UNL     1       4.257   4.466  20.363  0.00  0.00    +0.000 NA
ATOM      6  C   UNL     1       3.020   3.945  20.106  0.00  0.00    +0.000 A 
ATOM      7  C   UNL     1       1.977   3.695  21.012  0.00  0.00    +0.000 A 
ATOM      8  C   UNL     1       0.781   3.154  20.534  0.00  0.00    +0.000 A 
ATOM      9  C   UNL     1       0.629   2.867  19.176  0.00  0.00    +0.000 A 
ATOM     10  C   UNL     1       1.659   3.108  18.254  0.00  0.00    +0.000 A 
ATOM     11  C   UNL     1       2.854   3.653  18.752  0.00  0.00    +0.000 A 
ATOM     12  N   UNL     1       4.057   4.019  18.170  0.00  0.00    +0.000 N 
ATOM     13  C   UNL     1       4.476   3.951  16.830  0.00  0.00    +0.000 A 
ENDROOT
BRANCH   1  18
ATOM     14  C   UNL     1       7.396   4.340  10.946  0.00  0.00    +0.000 C 
ATOM     15  C   UNL     1       6.969   4.321  12.385  0.00  0.00    +0.000 A 
ATOM     16  C   UNL     1       5.861   3.573  12.798  0.00  0.00    +0.000 A 
ATOM     17  C   UNL     1       5.468   3.567  14.142  0.00  0.00    +0.000 A 
ATOM     18  C   UNL     1       6.180   4.306  15.093  0.00  0.00    +0.000 A 
ATOM     19  C   UNL     1       7.284   5.061  14.679  0.00  0.00    +0.000 A 
ATOM     20  C   UNL     1       7.676   5.067  13.336  0.00  0.00    +0.000 A 
ENDBRANCH   1  18
BRANCH   3  21
ATOM     21  O   UNL     1       6.950   5.432  19.860  0.00  0.00    +0.000 OA
ATOM     22  H   UNL     1       6.501   6.187  20.268  0.00  0.00    +0.000 HD
ENDBRANCH   3  21
TORSDOF 2
ENDMDL
MODEL 9
REMARK VINA RESULT:      -7.7      1.720      6.903
REMARK  Name = 
REMARK  3 active torsions:
REMARK  status: ('A' for Active; 'I' for Inactive)
REMARK    1  A    between atoms: C_1  and  C_2
REMARK    2  A    between atoms: C_5  and  C_6
REMARK    3  A    between atoms: C_8  and  O_9
REMARK                            x       y       z     vdW  Elec       q    Type
REMARK                         _______ _______ _______ _____ _____    ______ ____
ROOT
ATOM      1  C   UNL     1       5.612   4.456  16.471  0.00  0.00    +0.000 A 
ATOM      2  C   UNL     1       6.502   4.955  17.521  0.00  0.00    +0.000 A 
ATOM      3  C   UNL     1       6.132   4.982  18.814  0.00  0.00    +0.000 A 
ATOM      4  C   UNL     1       4.844   4.518  19.202  0.00  0.00    +0.000 A 
ATOM      5  N   UNL     1       4.266   4.442  20.384  0.00  0.00    +0.000 NA
ATOM      6  C   UNL     1       3.026   3.917  20.151  0.00  0.00    +0.000 A 
ATOM      7  C   UNL     1       2.012   3.636  21.079  0.00  0.00    +0.000 A 
ATOM      8  C   UNL     1       0.807   3.098  20.623  0.00  0.00    +0.000 A 
ATOM      9  C   UNL     1       0.617   2.842  19.263  0.00  0.00    +0.000 A 
ATOM     10  C   UNL     1       1.618   3.115  18.319  0.00  0.00    +0.000 A 
ATOM     11  C   UNL     1       2.823   3.657  18.795  0.00  0.00    +0.000 A 
ATOM     12  N   UNL     1       4.006   4.048  18.187  0.00  0.00    +0.000 N 
ATOM     13  C   UNL     1       4.386   4.017  16.835  0.00  0.00    +0.000 A 
ENDROOT
BRANCH   1  18
ATOM     14  C   UNL     1       7.420   4.116  10.976  0.00  0.00    +0.000 C 
ATOM     15  C   UNL     1       6.945   4.232  12.396  0.00  0.00    +0.000 A 
ATOM     16  C   UNL     1       7.654   4.991  13.334  0.00  0.00    +0.000 A 
ATOM     17  C   UNL     1       7.204   5.087  14.657  0.00  0.00    +0.000 A 
ATOM     18  C   UNL     1       6.037   4.429  15.059  0.00  0.00    +0.000 A 
ATOM     19  C   UNL     1       5.333   3.662  14.124  0.00  0.00    +0.000 A 
ATOM     20  C   UNL     1       5.782   3.566  12.802  0.00  0.00    +0.000 A 
ENDBRANCH   1  18
BRANCH   3  21
ATOM     21  O   UNL     1       6.936   5.443  19.828  0.00  0.00    +0.000 OA
ATOM     22  H   UNL     1       6.772   4.914  20.623  0.00  0.00    +0.000 HD
ENDBRANCH   3  21
TORSDOF 2
ENDMDL
