MODEL 1
REMARK VINA RESULT:      -6.6      0.000      0.000
REMARK  Name = 
REMARK  14 active torsions:
REMARK  status: ('A' for Active; 'I' for Inactive)
REMARK    1  A    between atoms: C_1  and  C_2
REMARK    2  A    between atoms: C_3  and  C_4
REMARK    3  A    between atoms: C_5  and  C_6
REMARK    4  A    between atoms: C_6  and  C_7
REMARK    5  A    between atoms: C_8  and  C_9
REMARK    6  A    between atoms: C_9  and  C_10
REMARK    7  A    between atoms: C_10  and  C_11
REMARK    8  A    between atoms: C_11  and  C_12
REMARK    9  A    between atoms: C_13  and  C_14
REMARK   10  A    between atoms: C_15  and  C_16
REMARK   11  A    between atoms: N_18  and  C_19
REMARK   12  A    between atoms: C_19  and  C_20
REMARK   13  A    between atoms: C_20  and  C_21
REMARK   14  A    between atoms: C_20  and  C_22
REMARK                            x       y       z     vdW  Elec       q    Type
REMARK                         _______ _______ _______ _____ _____    ______ ____
ROOT
ATOM      1  C   UNL     1       8.513   8.912  18.826  0.00  0.00    +0.000 C 
ATOM      2  C   UNL     1       8.030   8.555  17.626  0.00  0.00    +0.000 C 
ENDROOT
BRANCH   2   3
ATOM      3  C   UNL     1       7.123   7.438  17.463  0.00  0.00    +0.000 C 
ATOM      4  C   UNL     1       7.443   6.174  17.773  0.00  0.00    +0.000 C 
BRANCH   4   5
ATOM      5  C   UNL     1       6.439   5.106  17.536  0.00  0.00    +0.000 C 
ATOM      6  O   UNL     1       6.563   4.266  16.652  0.00  0.00    +0.000 OA
ATOM      7  N   UNL     1       5.369   5.173  18.392  0.00  0.00    +0.000 N 
ATOM      8  H   UNL     1       5.310   5.934  19.057  0.00  0.00    +0.000 HD
BRANCH   7   9
ATOM      9  C   UNL     1       4.260   4.247  18.294  0.00  0.00    +0.000 C 
BRANCH   9  10
ATOM     10  C   UNL     1       2.894   4.915  18.492  0.00  0.00    +0.000 C 
ATOM     11  C   UNL     1       2.924   6.384  18.064  0.00  0.00    +0.000 C 
ATOM     12  C   UNL     1       1.840   4.159  17.680  0.00  0.00    +0.000 C 
ENDBRANCH   9  10
ENDBRANCH   7   9
ENDBRANCH   4   5
ENDBRANCH   2   3
BRANCH   1  13
ATOM     13  C   UNL     1       9.454  10.062  19.039  0.00  0.00    +0.000 C 
BRANCH  13  14
ATOM     14  C   UNL     1       9.166  11.250  18.113  0.00  0.00    +0.000 C 
BRANCH  14  15
ATOM     15  C   UNL     1      10.406  12.021  17.645  0.00  0.00    +0.000 C 
BRANCH  15  17
ATOM     16  C   UNL     1      11.965  12.388  19.584  0.00  0.00    +0.000 C 
ATOM     17  C   UNL     1      11.646  11.742  18.450  0.00  0.00    +0.000 C 
BRANCH  16  18
ATOM     18  C   UNL     1      11.197  13.532  20.178  0.00  0.00    +0.000 C 
BRANCH  18  20
ATOM     19  C   UNL     1       9.392  12.614  21.904  0.00  0.00    +0.000 C 
ATOM     20  C   UNL     1      10.213  13.029  21.135  0.00  0.00    +0.000 C 
BRANCH  19  23
ATOM     21  C   UNL     1       6.457  11.418  24.629  0.00  0.00    +0.000 C 
ATOM     22  C   UNL     1       7.488  11.787  23.669  0.00  0.00    +0.000 C 
ATOM     23  C   UNL     1       8.332  12.127  22.887  0.00  0.00    +0.000 C 
ENDBRANCH  19  23
ENDBRANCH  18  20
ENDBRANCH  16  18
ENDBRANCH  15  17
ENDBRANCH  14  15
ENDBRANCH  13  14
ENDBRANCH   1  13
TORSDOF 11
ENDMDL
MODEL 2
REMARK VINA RESULT:      -6.4      2.474      3.274
REMARK  Name = 
REMARK  14 active torsions:
REMARK  status: ('A' for Active; 'I' for Inactive)
REMARK    1  A    between atoms: C_1  and  C_2
REMARK    2  A    between atoms: C_3  and  C_4
REMARK    3  A    between atoms: C_5  and  C_6
REMARK    4  A    between atoms: C_6  and  C_7
REMARK    5  A    between atoms: C_8  and  C_9
REMARK    6  A    between atoms: C_9  and  C_10
REMARK    7  A    between atoms: C_10  and  C_11
REMARK    8  A    between atoms: C_11  and  C_12
REMARK    9  A    between atoms: C_13  and  C_14
REMARK   10  A    between atoms: C_15  and  C_16
REMARK   11  A    between atoms: N_18  and  C_19
REMARK   12  A    between atoms: C_19  and  C_20
REMARK   13  A    between atoms: C_20  and  C_21
REMARK   14  A    between atoms: C_20  and  C_22
REMARK                            x       y       z     vdW  Elec       q    Type
REMARK                         _______ _______ _______ _____ _____    ______ ____
ROOT
ATOM      1  C   UNL     1       8.685   9.398  18.462  0.00  0.00    +0.000 C 
ATOM      2  C   UNL     1       7.835   8.921  17.541  0.00  0.00    +0.000 C 
ENDROOT
BRANCH   2   3
ATOM      3  C   UNL     1       7.303   7.576  17.609  0.00  0.00    +0.000 C 
ATOM      4  C   UNL     1       7.787   6.629  18.424  0.00  0.00    +0.000 C 
BRANCH   4   5
ATOM      5  C   UNL     1       7.177   5.276  18.386  0.00  0.00    +0.000 C 
ATOM      6  O   UNL     1       7.752   4.304  17.909  0.00  0.00    +0.000 OA
ATOM      7  N   UNL     1       5.914   5.240  18.921  0.00  0.00    +0.000 N 
ATOM      8  H   UNL     1       5.484   6.098  19.240  0.00  0.00    +0.000 HD
BRANCH   7   9
ATOM      9  C   UNL     1       5.133   4.021  18.937  0.00  0.00    +0.000 C 
BRANCH   9  10
ATOM     10  C   UNL     1       3.978   4.028  17.928  0.00  0.00    +0.000 C 
ATOM     11  C   UNL     1       3.376   2.632  17.759  0.00  0.00    +0.000 C 
ATOM     12  C   UNL     1       2.900   5.004  18.402  0.00  0.00    +0.000 C 
ENDBRANCH   9  10
ENDBRANCH   7   9
ENDBRANCH   4   5
ENDBRANCH   2   3
BRANCH   1  13
ATOM     13  C   UNL     1       9.260  10.786  18.430  0.00  0.00    +0.000 C 
BRANCH  13  14
ATOM     14  C   UNL     1       9.798  11.242  19.791  0.00  0.00    +0.000 C 
BRANCH  14  15
ATOM     15  C   UNL     1      11.201  11.858  19.759  0.00  0.00    +0.000 C 
BRANCH  15  17
ATOM     16  C   UNL     1      10.954  14.359  19.640  0.00  0.00    +0.000 C 
ATOM     17  C   UNL     1      11.277  13.250  20.327  0.00  0.00    +0.000 C 
BRANCH  16  18
ATOM     18  C   UNL     1      10.557  14.401  18.194  0.00  0.00    +0.000 C 
BRANCH  18  20
ATOM     19  C   UNL     1       7.916  14.663  18.006  0.00  0.00    +0.000 C 
ATOM     20  C   UNL     1       9.107  14.548  18.079  0.00  0.00    +0.000 C 
BRANCH  19  23
ATOM     21  C   UNL     1       3.750  14.982  17.866  0.00  0.00    +0.000 C 
ATOM     22  C   UNL     1       5.201  14.860  17.866  0.00  0.00    +0.000 C 
ATOM     23  C   UNL     1       6.396  14.766  17.904  0.00  0.00    +0.000 C 
ENDBRANCH  19  23
ENDBRANCH  18  20
ENDBRANCH  16  18
ENDBRANCH  15  17
ENDBRANCH  14  15
ENDBRANCH  13  14
ENDBRANCH   1  13
TORSDOF 11
ENDMDL
MODEL 3
REMARK VINA RESULT:      -6.3      7.011      8.741
REMARK  Name = 
REMARK  14 active torsions:
REMARK  status: ('A' for Active; 'I' for Inactive)
REMARK    1  A    between atoms: C_1  and  C_2
REMARK    2  A    between atoms: C_3  and  C_4
REMARK    3  A    between atoms: C_5  and  C_6
REMARK    4  A    between atoms: C_6  and  C_7
REMARK    5  A    between atoms: C_8  and  C_9
REMARK    6  A    between atoms: C_9  and  C_10
REMARK    7  A    between atoms: C_10  and  C_11
REMARK    8  A    between atoms: C_11  and  C_12
REMARK    9  A    between atoms: C_13  and  C_14
REMARK   10  A    between atoms: C_15  and  C_16
REMARK   11  A    between atoms: N_18  and  C_19
REMARK   12  A    between atoms: C_19  and  C_20
REMARK   13  A    between atoms: C_20  and  C_21
REMARK   14  A    between atoms: C_20  and  C_22
REMARK                            x       y       z     vdW  Elec       q    Type
REMARK                         _______ _______ _______ _____ _____    ______ ____
ROOT
ATOM      1  C   UNL     1       2.652   1.980  17.978  0.00  0.00    +0.000 C 
ATOM      2  C   UNL     1       3.368   3.106  17.845  0.00  0.00    +0.000 C 
ENDROOT
BRANCH   2   3
ATOM      3  C   UNL     1       4.518   3.188  16.970  0.00  0.00    +0.000 C 
ATOM      4  C   UNL     1       4.818   4.272  16.241  0.00  0.00    +0.000 C 
BRANCH   4   5
ATOM      5  C   UNL     1       6.010   4.230  15.357  0.00  0.00    +0.000 C 
ATOM      6  O   UNL     1       7.156   4.298  15.788  0.00  0.00    +0.000 OA
ATOM      7  N   UNL     1       5.690   4.125  14.027  0.00  0.00    +0.000 N 
ATOM      8  H   UNL     1       4.718   4.135  13.746  0.00  0.00    +0.000 HD
BRANCH   7   9
ATOM      9  C   UNL     1       6.712   4.114  13.001  0.00  0.00    +0.000 C 
BRANCH   9  10
ATOM     10  C   UNL     1       6.264   3.424  11.707  0.00  0.00    +0.000 C 
ATOM     11  C   UNL     1       6.926   2.053  11.548  0.00  0.00    +0.000 C 
ATOM     12  C   UNL     1       4.742   3.266  11.720  0.00  0.00    +0.000 C 
ENDBRANCH   9  10
ENDBRANCH   7   9
ENDBRANCH   4   5
ENDBRANCH   2   3
BRANCH   1  13
ATOM     13  C   UNL     1       1.452   1.853  18.873  0.00  0.00    +0.000 C 
BRANCH  13  14
ATOM     14  C   UNL     1       0.702   3.177  19.060  0.00  0.00    +0.000 C 
BRANCH  14  15
ATOM     15  C   UNL     1       0.732   3.743  20.484  0.00  0.00    +0.000 C 
BRANCH  15  17
ATOM     16  C   UNL     1       2.806   5.149  20.709  0.00  0.00    +0.000 C 
ATOM     17  C   UNL     1       2.114   4.035  21.003  0.00  0.00    +0.000 C 
BRANCH  16  18
ATOM     18  C   UNL     1       2.360   6.224  19.762  0.00  0.00    +0.000 C 
BRANCH  18  20
ATOM     19  C   UNL     1       1.002   8.100  21.073  0.00  0.00    +0.000 C 
ATOM     20  C   UNL     1       1.608   7.246  20.488  0.00  0.00    +0.000 C 
BRANCH  19  23
ATOM     21  C   UNL     1      -1.147  11.015  23.160  0.00  0.00    +0.000 C 
ATOM     22  C   UNL     1      -0.356  10.022  22.446  0.00  0.00    +0.000 C 
ATOM     23  C   UNL     1       0.263   9.188  21.847  0.00  0.00    +0.000 C 
ENDBRANCH  19  23
ENDBRANCH  18  20
ENDBRANCH  16  18
ENDBRANCH  15  17
ENDBRANCH  14  15
ENDBRANCH  13  14
ENDBRANCH   1  13
TORSDOF 11
ENDMDL
MODEL 4
REMARK VINA RESULT:      -6.3      2.532      3.211
REMARK  Name = 
REMARK  14 active torsions:
REMARK  status: ('A' for Active; 'I' for Inactive)
REMARK    1  A    between atoms: C_1  and  C_2
REMARK    2  A    between atoms: C_3  and  C_4
REMARK    3  A    between atoms: C_5  and  C_6
REMARK    4  A    between atoms: C_6  and  C_7
REMARK    5  A    between atoms: C_8  and  C_9
REMARK    6  A    between atoms: C_9  and  C_10
REMARK    7  A    between atoms: C_10  and  C_11
REMARK    8  A    between atoms: C_11  and  C_12
REMARK    9  A    between atoms: C_13  and  C_14
REMARK   10  A    between atoms: C_15  and  C_16
REMARK   11  A    between atoms: N_18  and  C_19
REMARK   12  A    between atoms: C_19  and  C_20
REMARK   13  A    between atoms: C_20  and  C_21
REMARK   14  A    between atoms: C_20  and  C_22
REMARK                            x       y       z     vdW  Elec       q    Type
REMARK                         _______ _______ _______ _____ _____    ______ ____
ROOT
ATOM      1  C   UNL     1       8.444   8.990  18.537  0.00  0.00    +0.000 C 
ATOM      2  C   UNL     1       7.995   8.157  17.587  0.00  0.00    +0.000 C 
ENDROOT
BRANCH   2   3
ATOM      3  C   UNL     1       7.586   6.800  17.883  0.00  0.00    +0.000 C 
ATOM      4  C   UNL     1       6.312   6.440  18.088  0.00  0.00    +0.000 C 
BRANCH   4   5
ATOM      5  C   UNL     1       6.015   5.022  18.412  0.00  0.00    +0.000 C 
ATOM      6  O   UNL     1       6.771   4.104  18.119  0.00  0.00    +0.000 OA
ATOM      7  N   UNL     1       4.812   4.857  19.052  0.00  0.00    +0.000 N 
ATOM      8  H   UNL     1       4.215   5.659  19.206  0.00  0.00    +0.000 HD
BRANCH   7   9
ATOM      9  C   UNL     1       4.320   3.543  19.413  0.00  0.00    +0.000 C 
BRANCH   9  10
ATOM     10  C   UNL     1       3.060   3.135  18.641  0.00  0.00    +0.000 C 
ATOM     11  C   UNL     1       2.727   4.147  17.542  0.00  0.00    +0.000 C 
ATOM     12  C   UNL     1       3.272   1.751  18.024  0.00  0.00    +0.000 C 
ENDBRANCH   9  10
ENDBRANCH   7   9
ENDBRANCH   4   5
ENDBRANCH   2   3
BRANCH   1  13
ATOM     13  C   UNL     1       8.877  10.404  18.273  0.00  0.00    +0.000 C 
BRANCH  13  14
ATOM     14  C   UNL     1       9.745  10.983  19.397  0.00  0.00    +0.000 C 
BRANCH  14  15
ATOM     15  C   UNL     1      11.167  11.377  18.979  0.00  0.00    +0.000 C 
BRANCH  15  17
ATOM     16  C   UNL     1      11.043  13.196  17.246  0.00  0.00    +0.000 C 
ATOM     17  C   UNL     1      11.271  11.914  17.577  0.00  0.00    +0.000 C 
BRANCH  16  18
ATOM     18  C   UNL     1      10.570  14.265  18.187  0.00  0.00    +0.000 C 
BRANCH  18  20
ATOM     19  C   UNL     1       7.929  14.532  17.997  0.00  0.00    +0.000 C 
ATOM     20  C   UNL     1       9.118  14.405  18.092  0.00  0.00    +0.000 C 
BRANCH  19  23
ATOM     21  C   UNL     1       3.789  15.097  17.874  0.00  0.00    +0.000 C 
ATOM     22  C   UNL     1       5.231  14.895  17.867  0.00  0.00    +0.000 C 
ATOM     23  C   UNL     1       6.419  14.731  17.900  0.00  0.00    +0.000 C 
ENDBRANCH  19  23
ENDBRANCH  18  20
ENDBRANCH  16  18
ENDBRANCH  15  17
ENDBRANCH  14  15
ENDBRANCH  13  14
ENDBRANCH   1  13
TORSDOF 11
ENDMDL
MODEL 5
REMARK VINA RESULT:      -6.2      6.832      9.028
REMARK  Name = 
REMARK  14 active torsions:
REMARK  status: ('A' for Active; 'I' for Inactive)
REMARK    1  A    between atoms: C_1  and  C_2
REMARK    2  A    between atoms: C_3  and  C_4
REMARK    3  A    between atoms: C_5  and  C_6
REMARK    4  A    between atoms: C_6  and  C_7
REMARK    5  A    between atoms: C_8  and  C_9
REMARK    6  A    between atoms: C_9  and  C_10
REMARK    7  A    between atoms: C_10  and  C_11
REMARK    8  A    between atoms: C_11  and  C_12
REMARK    9  A    between atoms: C_13  and  C_14
REMARK   10  A    between atoms: C_15  and  C_16
REMARK   11  A    between atoms: N_18  and  C_19
REMARK   12  A    between atoms: C_19  and  C_20
REMARK   13  A    between atoms: C_20  and  C_21
REMARK   14  A    between atoms: C_20  and  C_22
REMARK                            x       y       z     vdW  Elec       q    Type
REMARK                         _______ _______ _______ _____ _____    ______ ____
ROOT
ATOM      1  C   UNL     1       2.728   4.660  18.167  0.00  0.00    +0.000 C 
ATOM      2  C   UNL     1       4.044   4.457  18.003  0.00  0.00    +0.000 C 
ENDROOT
BRANCH   2   3
ATOM      3  C   UNL     1       4.723   4.772  16.764  0.00  0.00    +0.000 C 
ATOM      4  C   UNL     1       5.366   3.860  16.020  0.00  0.00    +0.000 C 
BRANCH   4   5
ATOM      5  C   UNL     1       6.050   4.305  14.780  0.00  0.00    +0.000 C 
ATOM      6  O   UNL     1       6.579   5.406  14.676  0.00  0.00    +0.000 OA
ATOM      7  N   UNL     1       6.011   3.369  13.778  0.00  0.00    +0.000 N 
ATOM      8  H   UNL     1       5.501   2.507  13.921  0.00  0.00    +0.000 HD
BRANCH   7   9
ATOM      9  C   UNL     1       6.584   3.631  12.474  0.00  0.00    +0.000 C 
BRANCH   9  10
ATOM     10  C   UNL     1       5.839   2.929  11.333  0.00  0.00    +0.000 C 
ATOM     11  C   UNL     1       6.092   1.419  11.347  0.00  0.00    +0.000 C 
ATOM     12  C   UNL     1       4.339   3.203  11.464  0.00  0.00    +0.000 C 
ENDBRANCH   9  10
ENDBRANCH   7   9
ENDBRANCH   4   5
ENDBRANCH   2   3
BRANCH   1  13
ATOM     13  C   UNL     1       1.986   4.348  19.435  0.00  0.00    +0.000 C 
BRANCH  13  14
ATOM     14  C   UNL     1       2.097   5.463  20.482  0.00  0.00    +0.000 C 
BRANCH  14  15
ATOM     15  C   UNL     1       2.060   6.888  19.917  0.00  0.00    +0.000 C 
BRANCH  15  17
ATOM     16  C   UNL     1       1.013   9.110  20.460  0.00  0.00    +0.000 C 
ATOM     17  C   UNL     1       1.464   7.906  20.851  0.00  0.00    +0.000 C 
BRANCH  16  18
ATOM     18  C   UNL     1       1.108   9.663  19.067  0.00  0.00    +0.000 C 
BRANCH  18  20
ATOM     19  C   UNL     1      -1.292  10.427  18.209  0.00  0.00    +0.000 C 
ATOM     20  C   UNL     1      -0.215  10.080  18.606  0.00  0.00    +0.000 C 
BRANCH  19  23
ATOM     21  C   UNL     1      -5.045  11.804  16.986  0.00  0.00    +0.000 C 
ATOM     22  C   UNL     1      -3.729  11.307  17.366  0.00  0.00    +0.000 C 
ATOM     23  C   UNL     1      -2.653  10.909  17.714  0.00  0.00    +0.000 C 
ENDBRANCH  19  23
ENDBRANCH  18  20
ENDBRANCH  16  18
ENDBRANCH  15  17
ENDBRANCH  14  15
ENDBRANCH  13  14
ENDBRANCH   1  13
TORSDOF 11
ENDMDL
MODEL 6
REMARK VINA RESULT:      -6.2      2.005      2.635
REMARK  Name = 
REMARK  14 active torsions:
REMARK  status: ('A' for Active; 'I' for Inactive)
REMARK    1  A    between atoms: C_1  and  C_2
REMARK    2  A    between atoms: C_3  and  C_4
REMARK    3  A    between atoms: C_5  and  C_6
REMARK    4  A    between atoms: C_6  and  C_7
REMARK    5  A    between atoms: C_8  and  C_9
REMARK    6  A    between atoms: C_9  and  C_10
REMARK    7  A    between atoms: C_10  and  C_11
REMARK    8  A    between atoms: C_11  and  C_12
REMARK    9  A    between atoms: C_13  and  C_14
REMARK   10  A    between atoms: C_15  and  C_16
REMARK   11  A    between atoms: N_18  and  C_19
REMARK   12  A    between atoms: C_19  and  C_20
REMARK   13  A    between atoms: C_20  and  C_21
REMARK   14  A    between atoms: C_20  and  C_22
REMARK                            x       y       z     vdW  Elec       q    Type
REMARK                         _______ _______ _______ _____ _____    ______ ____
ROOT
ATOM      1  C   UNL     1       8.924   9.309  18.871  0.00  0.00    +0.000 C 
ATOM      2  C   UNL     1       8.181   9.067  17.781  0.00  0.00    +0.000 C 
ENDROOT
BRANCH   2   3
ATOM      3  C   UNL     1       7.580   7.774  17.531  0.00  0.00    +0.000 C 
ATOM      4  C   UNL     1       7.855   6.679  18.253  0.00  0.00    +0.000 C 
BRANCH   4   5
ATOM      5  C   UNL     1       7.197   5.399  17.886  0.00  0.00    +0.000 C 
ATOM      6  O   UNL     1       7.149   4.438  18.645  0.00  0.00    +0.000 OA
ATOM      7  N   UNL     1       6.673   5.408  16.618  0.00  0.00    +0.000 N 
ATOM      8  H   UNL     1       6.807   6.220  16.028  0.00  0.00    +0.000 HD
BRANCH   7   9
ATOM      9  C   UNL     1       6.030   4.238  16.055  0.00  0.00    +0.000 C 
BRANCH   9  10
ATOM     10  C   UNL     1       6.421   3.975  14.596  0.00  0.00    +0.000 C 
ATOM     11  C   UNL     1       5.187   3.905  13.693  0.00  0.00    +0.000 C 
ATOM     12  C   UNL     1       7.354   5.088  14.114  0.00  0.00    +0.000 C 
ENDBRANCH   9  10
ENDBRANCH   7   9
ENDBRANCH   4   5
ENDBRANCH   2   3
BRANCH   1  13
ATOM     13  C   UNL     1       9.564  10.635  19.168  0.00  0.00    +0.000 C 
BRANCH  13  14
ATOM     14  C   UNL     1       9.158  11.731  18.176  0.00  0.00    +0.000 C 
BRANCH  14  15
ATOM     15  C   UNL     1      10.105  12.936  18.120  0.00  0.00    +0.000 C 
BRANCH  15  17
ATOM     16  C   UNL     1       9.722  14.463  20.083  0.00  0.00    +0.000 C 
ATOM     17  C   UNL     1       9.564  14.176  18.779  0.00  0.00    +0.000 C 
BRANCH  16  18
ATOM     18  C   UNL     1      10.376  13.569  21.096  0.00  0.00    +0.000 C 
BRANCH  18  20
ATOM     19  C   UNL     1       8.525  12.552  22.715  0.00  0.00    +0.000 C 
ATOM     20  C   UNL     1       9.365  13.000  21.985  0.00  0.00    +0.000 C 
BRANCH  19  23
ATOM     21  C   UNL     1       5.746  11.075  25.465  0.00  0.00    +0.000 C 
ATOM     22  C   UNL     1       6.684  11.575  24.470  0.00  0.00    +0.000 C 
ATOM     23  C   UNL     1       7.480  11.997  23.678  0.00  0.00    +0.000 C 
ENDBRANCH  19  23
ENDBRANCH  18  20
ENDBRANCH  16  18
ENDBRANCH  15  17
ENDBRANCH  14  15
ENDBRANCH  13  14
ENDBRANCH   1  13
TORSDOF 11
ENDMDL
MODEL 7
REMARK VINA RESULT:      -6.2      6.610      8.500
REMARK  Name = 
REMARK  14 active torsions:
REMARK  status: ('A' for Active; 'I' for Inactive)
REMARK    1  A    between atoms: C_1  and  C_2
REMARK    2  A    between atoms: C_3  and  C_4
REMARK    3  A    between atoms: C_5  and  C_6
REMARK    4  A    between atoms: C_6  and  C_7
REMARK    5  A    between atoms: C_8  and  C_9
REMARK    6  A    between atoms: C_9  and  C_10
REMARK    7  A    between atoms: C_10  and  C_11
REMARK    8  A    between atoms: C_11  and  C_12
REMARK    9  A    between atoms: C_13  and  C_14
REMARK   10  A    between atoms: C_15  and  C_16
REMARK   11  A    between atoms: N_18  and  C_19
REMARK   12  A    between atoms: C_19  and  C_20
REMARK   13  A    between atoms: C_20  and  C_21
REMARK   14  A    between atoms: C_20  and  C_22
REMARK                            x       y       z     vdW  Elec       q    Type
REMARK                         _______ _______ _______ _____ _____    ______ ____
ROOT
ATOM      1  C   UNL     1       2.306   2.399  17.929  0.00  0.00    +0.000 C 
ATOM      2  C   UNL     1       2.645   3.581  17.392  0.00  0.00    +0.000 C 
ENDROOT
BRANCH   2   3
ATOM      3  C   UNL     1       3.850   3.754  16.609  0.00  0.00    +0.000 C 
ATOM      4  C   UNL     1       5.037   4.080  17.140  0.00  0.00    +0.000 C 
BRANCH   4   5
ATOM      5  C   UNL     1       6.199   4.258  16.233  0.00  0.00    +0.000 C 
ATOM      6  O   UNL     1       7.323   4.523  16.642  0.00  0.00    +0.000 OA
ATOM      7  N   UNL     1       5.875   4.110  14.908  0.00  0.00    +0.000 N 
ATOM      8  H   UNL     1       4.910   3.951  14.645  0.00  0.00    +0.000 HD
BRANCH   7   9
ATOM      9  C   UNL     1       6.861   4.290  13.862  0.00  0.00    +0.000 C 
BRANCH   9  10
ATOM     10  C   UNL     1       6.504   3.562  12.561  0.00  0.00    +0.000 C 
ATOM     11  C   UNL     1       4.991   3.544  12.329  0.00  0.00    +0.000 C 
ATOM     12  C   UNL     1       7.200   4.253  11.387  0.00  0.00    +0.000 C 
ENDBRANCH   9  10
ENDBRANCH   7   9
ENDBRANCH   4   5
ENDBRANCH   2   3
BRANCH   1  13
ATOM     13  C   UNL     1       1.066   2.177  18.746  0.00  0.00    +0.000 C 
BRANCH  13  14
ATOM     14  C   UNL     1       1.143   2.818  20.137  0.00  0.00    +0.000 C 
BRANCH  14  15
ATOM     15  C   UNL     1       0.893   4.330  20.167  0.00  0.00    +0.000 C 
BRANCH  15  17
ATOM     16  C   UNL     1       2.642   6.137  20.094  0.00  0.00    +0.000 C 
ATOM     17  C   UNL     1       2.028   5.133  20.743  0.00  0.00    +0.000 C 
BRANCH  16  18
ATOM     18  C   UNL     1       2.361   6.559  18.681  0.00  0.00    +0.000 C 
BRANCH  18  20
ATOM     19  C   UNL     1       1.762   9.151  18.622  0.00  0.00    +0.000 C 
ATOM     20  C   UNL     1       2.022   7.980  18.645  0.00  0.00    +0.000 C 
BRANCH  19  23
ATOM     21  C   UNL     1       0.738  13.203  18.540  0.00  0.00    +0.000 C 
ATOM     22  C   UNL     1       1.121  11.799  18.611  0.00  0.00    +0.000 C 
ATOM     23  C   UNL     1       1.418  10.638  18.636  0.00  0.00    +0.000 C 
ENDBRANCH  19  23
ENDBRANCH  18  20
ENDBRANCH  16  18
ENDBRANCH  15  17
ENDBRANCH  14  15
ENDBRANCH  13  14
ENDBRANCH   1  13
TORSDOF 11
ENDMDL
MODEL 8
REMARK VINA RESULT:      -6.1      3.887      9.560
REMARK  Name = 
REMARK  14 active torsions:
REMARK  status: ('A' for Active; 'I' for Inactive)
REMARK    1  A    between atoms: C_1  and  C_2
REMARK    2  A    between atoms: C_3  and  C_4
REMARK    3  A    between atoms: C_5  and  C_6
REMARK    4  A    between atoms: C_6  and  C_7
REMARK    5  A    between atoms: C_8  and  C_9
REMARK    6  A    between atoms: C_9  and  C_10
REMARK    7  A    between atoms: C_10  and  C_11
REMARK    8  A    between atoms: C_11  and  C_12
REMARK    9  A    between atoms: C_13  and  C_14
REMARK   10  A    between atoms: C_15  and  C_16
REMARK   11  A    between atoms: N_18  and  C_19
REMARK   12  A    between atoms: C_19  and  C_20
REMARK   13  A    between atoms: C_20  and  C_21
REMARK   14  A    between atoms: C_20  and  C_22
REMARK                            x       y       z     vdW  Elec       q    Type
REMARK                         _______ _______ _______ _____ _____    ______ ____
ROOT
ATOM      1  C   UNL     1       8.037   9.341  17.948  0.00  0.00    +0.000 C 
ATOM      2  C   UNL     1       9.069   9.684  18.732  0.00  0.00    +0.000 C 
ENDROOT
BRANCH   2   3
ATOM      3  C   UNL     1       9.325  11.058  19.111  0.00  0.00    +0.000 C 
ATOM      4  C   UNL     1      10.469  11.701  18.834  0.00  0.00    +0.000 C 
BRANCH   4   5
ATOM      5  C   UNL     1      10.629  13.102  19.297  0.00  0.00    +0.000 C 
ATOM      6  O   UNL     1      11.659  13.513  19.819  0.00  0.00    +0.000 OA
ATOM      7  N   UNL     1       9.509  13.868  19.094  0.00  0.00    +0.000 N 
ATOM      8  H   UNL     1       8.675  13.440  18.712  0.00  0.00    +0.000 HD
BRANCH   7   9
ATOM      9  C   UNL     1       9.449  15.251  19.519  0.00  0.00    +0.000 C 
BRANCH   9  10
ATOM     10  C   UNL     1       8.244  16.008  18.948  0.00  0.00    +0.000 C 
ATOM     11  C   UNL     1       8.662  17.354  18.352  0.00  0.00    +0.000 C 
ATOM     12  C   UNL     1       7.572  15.152  17.873  0.00  0.00    +0.000 C 
ENDBRANCH   9  10
ENDBRANCH   7   9
ENDBRANCH   4   5
ENDBRANCH   2   3
BRANCH   1  13
ATOM     13  C   UNL     1       7.735   7.930  17.533  0.00  0.00    +0.000 C 
BRANCH  13  14
ATOM     14  C   UNL     1       8.040   6.905  18.632  0.00  0.00    +0.000 C 
BRANCH  14  15
ATOM     15  C   UNL     1       7.225   5.609  18.553  0.00  0.00    +0.000 C 
BRANCH  15  17
ATOM     16  C   UNL     1       7.159   4.443  16.325  0.00  0.00    +0.000 C 
ATOM     17  C   UNL     1       7.726   4.627  17.529  0.00  0.00    +0.000 C 
BRANCH  16  18
ATOM     18  C   UNL     1       5.902   5.109  15.845  0.00  0.00    +0.000 C 
BRANCH  18  20
ATOM     19  C   UNL     1       3.784   4.056  17.063  0.00  0.00    +0.000 C 
ATOM     20  C   UNL     1       4.743   4.534  16.524  0.00  0.00    +0.000 C 
BRANCH  19  23
ATOM     21  C   UNL     1       0.450   2.504  19.050  0.00  0.00    +0.000 C 
ATOM     22  C   UNL     1       1.586   3.042  18.315  0.00  0.00    +0.000 C 
ATOM     23  C   UNL     1       2.542   3.485  17.741  0.00  0.00    +0.000 C 
ENDBRANCH  19  23
ENDBRANCH  18  20
ENDBRANCH  16  18
ENDBRANCH  15  17
ENDBRANCH  14  15
ENDBRANCH  13  14
ENDBRANCH   1  13
TORSDOF 11
ENDMDL
MODEL 9
REMARK VINA RESULT:      -6.1      2.875      3.672
REMARK  Name = 
REMARK  14 active torsions:
REMARK  status: ('A' for Active; 'I' for Inactive)
REMARK    1  A    between atoms: C_1  and  C_2
REMARK    2  A    between atoms: C_3  and  C_4
REMARK    3  A    between atoms: C_5  and  C_6
REMARK    4  A    between atoms: C_6  and  C_7
REMARK    5  A    between atoms: C_8  and  C_9
REMARK    6  A    between atoms: C_9  and  C_10
REMARK    7  A    between atoms: C_10  and  C_11
REMARK    8  A    between atoms: C_11  and  C_12
REMARK    9  A    between atoms: C_13  and  C_14
REMARK   10  A    between atoms: C_15  and  C_16
REMARK   11  A    between atoms: N_18  and  C_19
REMARK   12  A    between atoms: C_19  and  C_20
REMARK   13  A    between atoms: C_20  and  C_21
REMARK   14  A    between atoms: C_20  and  C_22
REMARK                            x       y       z     vdW  Elec       q    Type
REMARK                         _______ _______ _______ _____ _____    ______ ____
ROOT
ATOM      1  C   UNL     1       8.834   9.964  19.051  0.00  0.00    +0.000 C 
ATOM      2  C   UNL     1       8.718   9.209  17.948  0.00  0.00    +0.000 C 
ENDROOT
BRANCH   2   3
ATOM      3  C   UNL     1       7.882   8.028  17.909  0.00  0.00    +0.000 C 
ATOM      4  C   UNL     1       8.143   6.913  18.606  0.00  0.00    +0.000 C 
BRANCH   4   5
ATOM      5  C   UNL     1       7.228   5.753  18.465  0.00  0.00    +0.000 C 
ATOM      6  O   UNL     1       6.714   5.195  19.428  0.00  0.00    +0.000 OA
ATOM      7  N   UNL     1       7.038   5.372  17.161  0.00  0.00    +0.000 N 
ATOM      8  H   UNL     1       7.546   5.845  16.425  0.00  0.00    +0.000 HD
BRANCH   7   9
ATOM      9  C   UNL     1       6.214   4.232  16.817  0.00  0.00    +0.000 C 
BRANCH   9  10
ATOM     10  C   UNL     1       5.384   4.446  15.546  0.00  0.00    +0.000 C 
ATOM     11  C   UNL     1       5.212   5.935  15.237  0.00  0.00    +0.000 C 
ATOM     12  C   UNL     1       6.071   3.749  14.370  0.00  0.00    +0.000 C 
ENDBRANCH   9  10
ENDBRANCH   7   9
ENDBRANCH   4   5
ENDBRANCH   2   3
BRANCH   1  13
ATOM     13  C   UNL     1       9.689  11.196  19.133  0.00  0.00    +0.000 C 
BRANCH  13  14
ATOM     14  C   UNL     1      10.247  11.629  17.772  0.00  0.00    +0.000 C 
BRANCH  14  15
ATOM     15  C   UNL     1      11.587  12.372  17.829  0.00  0.00    +0.000 C 
BRANCH  15  17
ATOM     16  C   UNL     1      11.406  14.751  17.033  0.00  0.00    +0.000 C 
ATOM     17  C   UNL     1      11.729  13.467  16.806  0.00  0.00    +0.000 C 
BRANCH  16  18
ATOM     18  C   UNL     1      10.780  15.281  18.290  0.00  0.00    +0.000 C 
BRANCH  18  20
ATOM     19  C   UNL     1       8.128  15.150  18.114  0.00  0.00    +0.000 C 
ATOM     20  C   UNL     1       9.324  15.198  18.194  0.00  0.00    +0.000 C 
BRANCH  19  23
ATOM     21  C   UNL     1       3.963  14.941  17.824  0.00  0.00    +0.000 C 
ATOM     22  C   UNL     1       5.409  15.033  17.970  0.00  0.00    +0.000 C 
ATOM     23  C   UNL     1       6.604  15.096  18.056  0.00  0.00    +0.000 C 
ENDBRANCH  19  23
ENDBRANCH  18  20
ENDBRANCH  16  18
ENDBRANCH  15  17
ENDBRANCH  14  15
ENDBRANCH  13  14
ENDBRANCH   1  13
TORSDOF 11
ENDMDL
