MODEL 1
REMARK VINA RESULT:      -7.5      0.000      0.000
REMARK  Name = 
REMARK  3 active torsions:
REMARK  status: ('A' for Active; 'I' for Inactive)
REMARK    1  A    between atoms: C_2  and  C_3
REMARK    2  A    between atoms: N_5  and  C_6
REMARK    3  A    between atoms: N_10  and  C_11
REMARK                            x       y       z     vdW  Elec       q    Type
REMARK                         _______ _______ _______ _____ _____    ______ ____
ROOT
ATOM      1  C   UNL     1      -0.826  12.006  22.288  0.00  0.00    +0.000 A 
ATOM      2  N   UNL     1      -1.952  12.409  22.891  0.00  0.00    +0.000 NA
ATOM      3  N   UNL     1      -2.080  13.735  22.661  0.00  0.00    +0.000 N 
ATOM      4  C   UNL     1      -1.009  14.239  21.948  0.00  0.00    +0.000 A 
ATOM      5  C   UNL     1      -0.226  13.122  21.662  0.00  0.00    +0.000 A 
ATOM      6  C   UNL     1       1.020  13.163  20.861  0.00  0.00    +0.000 C 
ATOM      7  S   UNL     1       0.836  14.360  19.544  0.00  0.00    +0.000 S 
ATOM      8  O   UNL     1      -0.148  13.905  18.594  0.00  0.00    +0.000 OA
ATOM      9  O   UNL     1       2.184  14.742  19.107  0.00  0.00    +0.000 OA
ATOM     10  C   UNL     1       0.140  15.783  20.367  0.00  0.00    +0.000 A 
ATOM     11  C   UNL     1       0.514  17.050  19.899  0.00  0.00    +0.000 A 
ATOM     12  C   UNL     1       0.004  18.188  20.513  0.00  0.00    +0.000 A 
ATOM     13  C   UNL     1      -0.839  18.052  21.608  0.00  0.00    +0.000 A 
ATOM     14  C   UNL     1      -1.163  16.780  22.103  0.00  0.00    +0.000 A 
ATOM     15  C   UNL     1      -0.714  15.608  21.477  0.00  0.00    +0.000 A 
ENDROOT
BRANCH   1  17
ATOM     16  O   UNL     1      -0.047  10.164  23.523  0.00  0.00    +0.000 OA
ATOM     17  C   UNL     1      -0.259  10.631  22.400  0.00  0.00    +0.000 C 
ATOM     18  N   UNL     1       0.048   9.888  21.258  0.00  0.00    +0.000 N 
ATOM     19  C   UNL     1       0.597   8.539  21.375  0.00  0.00    +0.000 C 
ATOM     20  C   UNL     1       1.694   8.297  20.326  0.00  0.00    +0.000 C 
ATOM     21  O   UNL     1       1.233   8.597  18.997  0.00  0.00    +0.000 OA
ATOM     22  C   UNL     1       0.793   9.959  18.910  0.00  0.00    +0.000 C 
ATOM     23  C   UNL     1      -0.346  10.212  19.897  0.00  0.00    +0.000 C 
ENDBRANCH   1  17
BRANCH   3  24
ATOM     24  C   UNL     1      -3.233  14.424  23.231  0.00  0.00    +0.000 C 
ATOM     25  C   UNL     1      -3.686  13.905  24.608  0.00  0.00    +0.000 C 
ATOM     26  C   UNL     1      -4.519  12.631  24.507  0.00  0.00    +0.000 C 
ATOM     27  C   UNL     1      -5.670  12.742  23.501  0.00  0.00    +0.000 C 
ATOM     28  N   UNL     1      -5.223  13.322  22.229  0.00  0.00    +0.000 N 
ATOM     29  C   UNL     1      -4.432  14.548  22.290  0.00  0.00    +0.000 C 
BRANCH  28  30
ATOM     30  C   UNL     1      -5.403  12.661  21.027  0.00  0.00    +0.000 A 
ATOM     31  C   UNL     1      -6.572  11.942  20.750  0.00  0.00    +0.000 A 
ATOM     32  C   UNL     1      -6.701  11.162  19.597  0.00  0.00    +0.000 A 
ATOM     33  C   UNL     1      -5.680  11.133  18.655  0.00  0.00    +0.000 A 
ATOM     34  C   UNL     1      -4.565  11.933  18.841  0.00  0.00    +0.000 A 
ATOM     35  C   UNL     1      -4.420  12.660  20.024  0.00  0.00    +0.000 A 
ENDBRANCH  28  30
ENDBRANCH   3  24
TORSDOF 3
ENDMDL
MODEL 2
REMARK VINA RESULT:      -7.4      3.381      7.283
REMARK  Name = 
REMARK  3 active torsions:
REMARK  status: ('A' for Active; 'I' for Inactive)
REMARK    1  A    between atoms: C_2  and  C_3
REMARK    2  A    between atoms: N_5  and  C_6
REMARK    3  A    between atoms: N_10  and  C_11
REMARK                            x       y       z     vdW  Elec       q    Type
REMARK                         _______ _______ _______ _____ _____    ______ ____
ROOT
ATOM      1  C   UNL     1      -3.879  13.077  21.554  0.00  0.00    +0.000 A 
ATOM      2  N   UNL     1      -2.554  13.255  21.502  0.00  0.00    +0.000 NA
ATOM      3  N   UNL     1      -2.125  12.751  20.323  0.00  0.00    +0.000 N 
ATOM      4  C   UNL     1      -3.156  12.181  19.602  0.00  0.00    +0.000 A 
ATOM      5  C   UNL     1      -4.295  12.433  20.366  0.00  0.00    +0.000 A 
ATOM      6  C   UNL     1      -5.668  12.049  19.965  0.00  0.00    +0.000 C 
ATOM      7  S   UNL     1      -5.842  12.242  18.195  0.00  0.00    +0.000 S 
ATOM      8  O   UNL     1      -5.778  13.637  17.840  0.00  0.00    +0.000 OA
ATOM      9  O   UNL     1      -6.974  11.409  17.771  0.00  0.00    +0.000 OA
ATOM     10  C   UNL     1      -4.367  11.476  17.544  0.00  0.00    +0.000 A 
ATOM     11  C   UNL     1      -4.471  10.810  16.314  0.00  0.00    +0.000 A 
ATOM     12  C   UNL     1      -3.352  10.191  15.771  0.00  0.00    +0.000 A 
ATOM     13  C   UNL     1      -2.154  10.208  16.474  0.00  0.00    +0.000 A 
ATOM     14  C   UNL     1      -2.075  10.830  17.729  0.00  0.00    +0.000 A 
ATOM     15  C   UNL     1      -3.167  11.513  18.285  0.00  0.00    +0.000 A 
ENDROOT
BRANCH   1  17
ATOM     16  O   UNL     1      -4.646  12.663  23.737  0.00  0.00    +0.000 OA
ATOM     17  C   UNL     1      -4.723  13.392  22.743  0.00  0.00    +0.000 C 
ATOM     18  N   UNL     1      -5.603  14.476  22.731  0.00  0.00    +0.000 N 
ATOM     19  C   UNL     1      -6.422  14.781  23.902  0.00  0.00    +0.000 C 
ATOM     20  C   UNL     1      -7.839  15.209  23.488  0.00  0.00    +0.000 C 
ATOM     21  O   UNL     1      -7.811  16.283  22.533  0.00  0.00    +0.000 OA
ATOM     22  C   UNL     1      -7.076  15.900  21.362  0.00  0.00    +0.000 C 
ATOM     23  C   UNL     1      -5.640  15.534  21.735  0.00  0.00    +0.000 C 
ENDBRANCH   1  17
BRANCH   3  24
ATOM     24  C   UNL     1      -0.697  12.810  20.028  0.00  0.00    +0.000 C 
ATOM     25  C   UNL     1       0.224  12.782  21.261  0.00  0.00    +0.000 C 
ATOM     26  C   UNL     1       0.327  14.141  21.945  0.00  0.00    +0.000 C 
ATOM     27  C   UNL     1       0.661  15.280  20.975  0.00  0.00    +0.000 C 
ATOM     28  N   UNL     1      -0.175  15.227  19.770  0.00  0.00    +0.000 N 
ATOM     29  C   UNL     1      -0.287  13.941  19.085  0.00  0.00    +0.000 C 
BRANCH  28  30
ATOM     30  C   UNL     1      -0.955  16.301  19.379  0.00  0.00    +0.000 A 
ATOM     31  C   UNL     1      -0.612  17.097  18.279  0.00  0.00    +0.000 A 
ATOM     32  C   UNL     1      -1.319  18.262  17.964  0.00  0.00    +0.000 A 
ATOM     33  C   UNL     1      -2.434  18.625  18.710  0.00  0.00    +0.000 A 
ATOM     34  C   UNL     1      -2.872  17.790  19.723  0.00  0.00    +0.000 A 
ATOM     35  C   UNL     1      -2.123  16.663  20.068  0.00  0.00    +0.000 A 
ENDBRANCH  28  30
ENDBRANCH   3  24
TORSDOF 3
ENDMDL
MODEL 3
REMARK VINA RESULT:      -7.3      2.511      6.117
REMARK  Name = 
REMARK  3 active torsions:
REMARK  status: ('A' for Active; 'I' for Inactive)
REMARK    1  A    between atoms: C_2  and  C_3
REMARK    2  A    between atoms: N_5  and  C_6
REMARK    3  A    between atoms: N_10  and  C_11
REMARK                            x       y       z     vdW  Elec       q    Type
REMARK                         _______ _______ _______ _____ _____    ______ ____
ROOT
ATOM      1  C   UNL     1      -3.273  14.397  20.818  0.00  0.00    +0.000 A 
ATOM      2  N   UNL     1      -4.335  13.739  20.338  0.00  0.00    +0.000 NA
ATOM      3  N   UNL     1      -3.876  12.623  19.728  0.00  0.00    +0.000 N 
ATOM      4  C   UNL     1      -2.497  12.555  19.749  0.00  0.00    +0.000 A 
ATOM      5  C   UNL     1      -2.106  13.667  20.493  0.00  0.00    +0.000 A 
ATOM      6  C   UNL     1      -0.701  13.991  20.831  0.00  0.00    +0.000 C 
ATOM      7  S   UNL     1       0.196  12.475  21.142  0.00  0.00    +0.000 S 
ATOM      8  O   UNL     1      -0.292  11.848  22.345  0.00  0.00    +0.000 OA
ATOM      9  O   UNL     1       1.624  12.765  20.972  0.00  0.00    +0.000 OA
ATOM     10  C   UNL     1      -0.281  11.421  19.782  0.00  0.00    +0.000 A 
ATOM     11  C   UNL     1       0.678  10.524  19.289  0.00  0.00    +0.000 A 
ATOM     12  C   UNL     1       0.357   9.690  18.227  0.00  0.00    +0.000 A 
ATOM     13  C   UNL     1      -0.899   9.783  17.641  0.00  0.00    +0.000 A 
ATOM     14  C   UNL     1      -1.832  10.721  18.107  0.00  0.00    +0.000 A 
ATOM     15  C   UNL     1      -1.566  11.542  19.212  0.00  0.00    +0.000 A 
ENDROOT
BRANCH   1  17
ATOM     16  O   UNL     1      -3.252  16.746  20.748  0.00  0.00    +0.000 OA
ATOM     17  C   UNL     1      -3.338  15.741  21.461  0.00  0.00    +0.000 C 
ATOM     18  N   UNL     1      -3.471  15.868  22.845  0.00  0.00    +0.000 N 
ATOM     19  C   UNL     1      -3.539  17.189  23.467  0.00  0.00    +0.000 C 
ATOM     20  C   UNL     1      -2.741  17.223  24.779  0.00  0.00    +0.000 C 
ATOM     21  O   UNL     1      -3.139  16.167  25.670  0.00  0.00    +0.000 OA
ATOM     22  C   UNL     1      -2.963  14.887  25.048  0.00  0.00    +0.000 C 
ATOM     23  C   UNL     1      -3.801  14.799  23.772  0.00  0.00    +0.000 C 
ENDBRANCH   1  17
BRANCH   3  24
ATOM     24  C   UNL     1      -4.848  11.732  19.102  0.00  0.00    +0.000 C 
ATOM     25  C   UNL     1      -5.343  12.180  17.715  0.00  0.00    +0.000 C 
ATOM     26  C   UNL     1      -6.415  13.262  17.798  0.00  0.00    +0.000 C 
ATOM     27  C   UNL     1      -7.559  12.905  18.754  0.00  0.00    +0.000 C 
ATOM     28  N   UNL     1      -7.053  12.399  20.036  0.00  0.00    +0.000 N 
ATOM     29  C   UNL     1      -6.033  11.354  19.991  0.00  0.00    +0.000 C 
BRANCH  28  30
ATOM     30  C   UNL     1      -7.405  12.986  21.239  0.00  0.00    +0.000 A 
ATOM     31  C   UNL     1      -7.672  14.358  21.337  0.00  0.00    +0.000 A 
ATOM     32  C   UNL     1      -7.892  14.978  22.570  0.00  0.00    +0.000 A 
ATOM     33  C   UNL     1      -7.915  14.225  23.737  0.00  0.00    +0.000 A 
ATOM     34  C   UNL     1      -7.780  12.849  23.657  0.00  0.00    +0.000 A 
ATOM     35  C   UNL     1      -7.500  12.248  22.429  0.00  0.00    +0.000 A 
ENDBRANCH  28  30
ENDBRANCH   3  24
TORSDOF 3
ENDMDL
MODEL 4
REMARK VINA RESULT:      -7.3      1.237      1.634
REMARK  Name = 
REMARK  3 active torsions:
REMARK  status: ('A' for Active; 'I' for Inactive)
REMARK    1  A    between atoms: C_2  and  C_3
REMARK    2  A    between atoms: N_5  and  C_6
REMARK    3  A    between atoms: N_10  and  C_11
REMARK                            x       y       z     vdW  Elec       q    Type
REMARK                         _______ _______ _______ _____ _____    ______ ____
ROOT
ATOM      1  C   UNL     1       0.006  11.840  21.564  0.00  0.00    +0.000 A 
ATOM      2  N   UNL     1      -1.189  12.305  21.948  0.00  0.00    +0.000 NA
ATOM      3  N   UNL     1      -1.200  13.635  21.708  0.00  0.00    +0.000 N 
ATOM      4  C   UNL     1       0.011  14.079  21.212  0.00  0.00    +0.000 A 
ATOM      5  C   UNL     1       0.773  12.920  21.070  0.00  0.00    +0.000 A 
ATOM      6  C   UNL     1       2.147  12.890  20.516  0.00  0.00    +0.000 C 
ATOM      7  S   UNL     1       2.278  14.092  19.198  0.00  0.00    +0.000 S 
ATOM      8  O   UNL     1       1.467  13.689  18.077  0.00  0.00    +0.000 OA
ATOM      9  O   UNL     1       3.703  14.399  19.023  0.00  0.00    +0.000 OA
ATOM     10  C   UNL     1       1.518  15.553  19.886  0.00  0.00    +0.000 A 
ATOM     11  C   UNL     1       2.041  16.797  19.506  0.00  0.00    +0.000 A 
ATOM     12  C   UNL     1       1.487  17.962  20.022  0.00  0.00    +0.000 A 
ATOM     13  C   UNL     1       0.447  17.876  20.939  0.00  0.00    +0.000 A 
ATOM     14  C   UNL     1      -0.032  16.625  21.354  0.00  0.00    +0.000 A 
ATOM     15  C   UNL     1       0.462  15.428  20.815  0.00  0.00    +0.000 A 
ENDROOT
BRANCH   1  17
ATOM     16  O   UNL     1       0.663  10.036  22.921  0.00  0.00    +0.000 OA
ATOM     17  C   UNL     1       0.467  10.436  21.769  0.00  0.00    +0.000 C 
ATOM     18  N   UNL     1       0.696   9.591  20.681  0.00  0.00    +0.000 N 
ATOM     19  C   UNL     1       1.141   8.214  20.891  0.00  0.00    +0.000 C 
ATOM     20  C   UNL     1       2.196   7.812  19.849  0.00  0.00    +0.000 C 
ATOM     21  O   UNL     1       1.736   8.050  18.507  0.00  0.00    +0.000 OA
ATOM     22  C   UNL     1       1.401   9.433  18.325  0.00  0.00    +0.000 C 
ATOM     23  C   UNL     1       0.303   9.845  19.306  0.00  0.00    +0.000 C 
ENDBRANCH   1  17
BRANCH   3  24
ATOM     24  C   UNL     1      -2.401  14.387  22.057  0.00  0.00    +0.000 C 
ATOM     25  C   UNL     1      -3.072  13.965  23.377  0.00  0.00    +0.000 C 
ATOM     26  C   UNL     1      -3.925  12.710  23.222  0.00  0.00    +0.000 C 
ATOM     27  C   UNL     1      -4.908  12.789  22.050  0.00  0.00    +0.000 C 
ATOM     28  N   UNL     1      -4.256  13.279  20.829  0.00  0.00    +0.000 N 
ATOM     29  C   UNL     1      -3.440  14.485  20.940  0.00  0.00    +0.000 C 
BRANCH  28  30
ATOM     30  C   UNL     1      -4.276  12.550  19.653  0.00  0.00    +0.000 A 
ATOM     31  C   UNL     1      -3.110  11.998  19.109  0.00  0.00    +0.000 A 
ATOM     32  C   UNL     1      -3.103  11.381  17.854  0.00  0.00    +0.000 A 
ATOM     33  C   UNL     1      -4.285  11.244  17.137  0.00  0.00    +0.000 A 
ATOM     34  C   UNL     1      -5.474  11.666  17.706  0.00  0.00    +0.000 A 
ATOM     35  C   UNL     1      -5.460  12.335  18.931  0.00  0.00    +0.000 A 
ENDBRANCH  28  30
ENDBRANCH   3  24
TORSDOF 3
ENDMDL
MODEL 5
REMARK VINA RESULT:      -7.2      3.094      6.149
REMARK  Name = 
REMARK  3 active torsions:
REMARK  status: ('A' for Active; 'I' for Inactive)
REMARK    1  A    between atoms: C_2  and  C_3
REMARK    2  A    between atoms: N_5  and  C_6
REMARK    3  A    between atoms: N_10  and  C_11
REMARK                            x       y       z     vdW  Elec       q    Type
REMARK                         _______ _______ _______ _____ _____    ______ ____
ROOT
ATOM      1  C   UNL     1      -0.924  15.241  19.705  0.00  0.00    +0.000 A 
ATOM      2  N   UNL     1      -0.249  14.088  19.793  0.00  0.00    +0.000 NA
ATOM      3  N   UNL     1      -0.887  13.316  20.701  0.00  0.00    +0.000 N 
ATOM      4  C   UNL     1      -1.964  13.971  21.268  0.00  0.00    +0.000 A 
ATOM      5  C   UNL     1      -2.022  15.190  20.594  0.00  0.00    +0.000 A 
ATOM      6  C   UNL     1      -3.059  16.221  20.828  0.00  0.00    +0.000 C 
ATOM      7  S   UNL     1      -4.625  15.420  21.154  0.00  0.00    +0.000 S 
ATOM      8  O   UNL     1      -5.095  14.748  19.969  0.00  0.00    +0.000 OA
ATOM      9  O   UNL     1      -5.475  16.387  21.858  0.00  0.00    +0.000 OA
ATOM     10  C   UNL     1      -4.206  14.148  22.335  0.00  0.00    +0.000 A 
ATOM     11  C   UNL     1      -5.159  13.832  23.314  0.00  0.00    +0.000 A 
ATOM     12  C   UNL     1      -4.875  12.855  24.260  0.00  0.00    +0.000 A 
ATOM     13  C   UNL     1      -3.634  12.232  24.246  0.00  0.00    +0.000 A 
ATOM     14  C   UNL     1      -2.667  12.595  23.297  0.00  0.00    +0.000 A 
ATOM     15  C   UNL     1      -2.935  13.536  22.292  0.00  0.00    +0.000 A 
ENDROOT
BRANCH   1  17
ATOM     16  O   UNL     1      -1.337  17.135  18.376  0.00  0.00    +0.000 OA
ATOM     17  C   UNL     1      -0.481  16.414  18.897  0.00  0.00    +0.000 C 
ATOM     18  N   UNL     1       0.877  16.683  18.710  0.00  0.00    +0.000 N 
ATOM     19  C   UNL     1       1.302  17.838  17.921  0.00  0.00    +0.000 C 
ATOM     20  C   UNL     1       2.514  17.489  17.043  0.00  0.00    +0.000 C 
ATOM     21  O   UNL     1       3.584  16.918  17.817  0.00  0.00    +0.000 OA
ATOM     22  C   UNL     1       3.141  15.735  18.496  0.00  0.00    +0.000 C 
ATOM     23  C   UNL     1       1.977  16.065  19.430  0.00  0.00    +0.000 C 
ENDBRANCH   1  17
BRANCH   3  24
ATOM     24  C   UNL     1      -0.333  11.997  20.993  0.00  0.00    +0.000 C 
ATOM     25  C   UNL     1       1.151  11.819  20.626  0.00  0.00    +0.000 C 
ATOM     26  C   UNL     1       1.357  11.557  19.138  0.00  0.00    +0.000 C 
ATOM     27  C   UNL     1       0.468  10.433  18.595  0.00  0.00    +0.000 C 
ATOM     28  N   UNL     1      -0.924  10.585  19.035  0.00  0.00    +0.000 N 
ATOM     29  C   UNL     1      -1.157  10.827  20.456  0.00  0.00    +0.000 C 
BRANCH  28  30
ATOM     30  C   UNL     1      -1.968  10.655  18.130  0.00  0.00    +0.000 A 
ATOM     31  C   UNL     1      -1.959   9.920  16.938  0.00  0.00    +0.000 A 
ATOM     32  C   UNL     1      -2.943  10.091  15.959  0.00  0.00    +0.000 A 
ATOM     33  C   UNL     1      -4.003  10.962  16.180  0.00  0.00    +0.000 A 
ATOM     34  C   UNL     1      -4.106  11.607  17.401  0.00  0.00    +0.000 A 
ATOM     35  C   UNL     1      -3.087  11.475  18.345  0.00  0.00    +0.000 A 
ENDBRANCH  28  30
ENDBRANCH   3  24
TORSDOF 3
ENDMDL
MODEL 6
REMARK VINA RESULT:      -7.1      2.892      4.796
REMARK  Name = 
REMARK  3 active torsions:
REMARK  status: ('A' for Active; 'I' for Inactive)
REMARK    1  A    between atoms: C_2  and  C_3
REMARK    2  A    between atoms: N_5  and  C_6
REMARK    3  A    between atoms: N_10  and  C_11
REMARK                            x       y       z     vdW  Elec       q    Type
REMARK                         _______ _______ _______ _____ _____    ______ ____
ROOT
ATOM      1  C   UNL     1      -3.278  12.784  21.280  0.00  0.00    +0.000 A 
ATOM      2  N   UNL     1      -4.292  12.393  20.499  0.00  0.00    +0.000 NA
ATOM      3  N   UNL     1      -5.320  13.243  20.718  0.00  0.00    +0.000 N 
ATOM      4  C   UNL     1      -5.018  14.177  21.691  0.00  0.00    +0.000 A 
ATOM      5  C   UNL     1      -3.688  13.917  22.019  0.00  0.00    +0.000 A 
ATOM      6  C   UNL     1      -2.903  14.707  22.995  0.00  0.00    +0.000 C 
ATOM      7  S   UNL     1      -3.367  16.431  22.870  0.00  0.00    +0.000 S 
ATOM      8  O   UNL     1      -2.943  16.967  21.601  0.00  0.00    +0.000 OA
ATOM      9  O   UNL     1      -2.983  17.082  24.128  0.00  0.00    +0.000 OA
ATOM     10  C   UNL     1      -5.151  16.382  22.839  0.00  0.00    +0.000 A 
ATOM     11  C   UNL     1      -5.839  17.440  23.450  0.00  0.00    +0.000 A 
ATOM     12  C   UNL     1      -7.228  17.442  23.458  0.00  0.00    +0.000 A 
ATOM     13  C   UNL     1      -7.916  16.375  22.895  0.00  0.00    +0.000 A 
ATOM     14  C   UNL     1      -7.217  15.295  22.335  0.00  0.00    +0.000 A 
ATOM     15  C   UNL     1      -5.817  15.282  22.257  0.00  0.00    +0.000 A 
ENDROOT
BRANCH   1  17
ATOM     16  O   UNL     1      -1.769  11.437  22.479  0.00  0.00    +0.000 OA
ATOM     17  C   UNL     1      -1.993  12.039  21.424  0.00  0.00    +0.000 C 
ATOM     18  N   UNL     1      -1.046  12.039  20.398  0.00  0.00    +0.000 N 
ATOM     19  C   UNL     1       0.208  11.302  20.545  0.00  0.00    +0.000 C 
ATOM     20  C   UNL     1       1.385  12.096  19.960  0.00  0.00    +0.000 C 
ATOM     21  O   UNL     1       1.132  12.500  18.603  0.00  0.00    +0.000 OA
ATOM     22  C   UNL     1      -0.056  13.300  18.526  0.00  0.00    +0.000 C 
ATOM     23  C   UNL     1      -1.260  12.509  19.040  0.00  0.00    +0.000 C 
ENDBRANCH   1  17
BRANCH   3  24
ATOM     24  C   UNL     1      -6.564  13.020  19.988  0.00  0.00    +0.000 C 
ATOM     25  C   UNL     1      -7.526  12.007  20.635  0.00  0.00    +0.000 C 
ATOM     26  C   UNL     1      -7.124  10.562  20.357  0.00  0.00    +0.000 C 
ATOM     27  C   UNL     1      -6.871  10.281  18.872  0.00  0.00    +0.000 C 
ATOM     28  N   UNL     1      -6.022  11.313  18.264  0.00  0.00    +0.000 N 
ATOM     29  C   UNL     1      -6.385  12.708  18.502  0.00  0.00    +0.000 C 
BRANCH  28  30
ATOM     30  C   UNL     1      -4.838  10.995  17.623  0.00  0.00    +0.000 A 
ATOM     31  C   UNL     1      -4.470  11.597  16.414  0.00  0.00    +0.000 A 
ATOM     32  C   UNL     1      -3.346  11.181  15.695  0.00  0.00    +0.000 A 
ATOM     33  C   UNL     1      -2.520  10.187  16.205  0.00  0.00    +0.000 A 
ATOM     34  C   UNL     1      -2.787   9.663  17.458  0.00  0.00    +0.000 A 
ATOM     35  C   UNL     1      -3.945  10.042  18.138  0.00  0.00    +0.000 A 
ENDBRANCH  28  30
ENDBRANCH   3  24
TORSDOF 3
ENDMDL
MODEL 7
REMARK VINA RESULT:      -7.1      3.217      6.159
REMARK  Name = 
REMARK  3 active torsions:
REMARK  status: ('A' for Active; 'I' for Inactive)
REMARK    1  A    between atoms: C_2  and  C_3
REMARK    2  A    between atoms: N_5  and  C_6
REMARK    3  A    between atoms: N_10  and  C_11
REMARK                            x       y       z     vdW  Elec       q    Type
REMARK                         _______ _______ _______ _____ _____    ______ ____
ROOT
ATOM      1  C   UNL     1      -2.611  14.833  21.716  0.00  0.00    +0.000 A 
ATOM      2  N   UNL     1      -1.737  14.404  20.797  0.00  0.00    +0.000 NA
ATOM      3  N   UNL     1      -0.543  14.970  21.083  0.00  0.00    +0.000 N 
ATOM      4  C   UNL     1      -0.623  15.825  22.164  0.00  0.00    +0.000 A 
ATOM      5  C   UNL     1      -1.940  15.702  22.606  0.00  0.00    +0.000 A 
ATOM      6  C   UNL     1      -2.489  16.402  23.791  0.00  0.00    +0.000 C 
ATOM      7  S   UNL     1      -1.231  16.489  25.060  0.00  0.00    +0.000 S 
ATOM      8  O   UNL     1      -0.944  15.170  25.565  0.00  0.00    +0.000 OA
ATOM      9  O   UNL     1      -1.601  17.579  25.971  0.00  0.00    +0.000 OA
ATOM     10  C   UNL     1       0.221  17.030  24.174  0.00  0.00    +0.000 A 
ATOM     11  C   UNL     1       1.122  17.864  24.851  0.00  0.00    +0.000 A 
ATOM     12  C   UNL     1       2.262  18.317  24.200  0.00  0.00    +0.000 A 
ATOM     13  C   UNL     1       2.474  17.968  22.872  0.00  0.00    +0.000 A 
ATOM     14  C   UNL     1       1.539  17.178  22.187  0.00  0.00    +0.000 A 
ATOM     15  C   UNL     1       0.404  16.655  22.825  0.00  0.00    +0.000 A 
ENDROOT
BRANCH   1  17
ATOM     16  O   UNL     1      -4.799  15.180  20.929  0.00  0.00    +0.000 OA
ATOM     17  C   UNL     1      -4.072  14.533  21.689  0.00  0.00    +0.000 C 
ATOM     18  N   UNL     1      -4.618  13.555  22.523  0.00  0.00    +0.000 N 
ATOM     19  C   UNL     1      -6.050  13.263  22.487  0.00  0.00    +0.000 C 
ATOM     20  C   UNL     1      -6.599  13.023  23.902  0.00  0.00    +0.000 C 
ATOM     21  O   UNL     1      -5.843  12.019  24.602  0.00  0.00    +0.000 OA
ATOM     22  C   UNL     1      -4.462  12.397  24.693  0.00  0.00    +0.000 C 
ATOM     23  C   UNL     1      -3.870  12.578  23.296  0.00  0.00    +0.000 C 
ENDBRANCH   1  17
BRANCH   3  24
ATOM     24  C   UNL     1       0.587  14.670  20.209  0.00  0.00    +0.000 C 
ATOM     25  C   UNL     1       0.253  14.618  18.707  0.00  0.00    +0.000 C 
ATOM     26  C   UNL     1      -0.392  13.297  18.298  0.00  0.00    +0.000 C 
ATOM     27  C   UNL     1       0.389  12.070  18.779  0.00  0.00    +0.000 C 
ATOM     28  N   UNL     1       0.769  12.191  20.192  0.00  0.00    +0.000 N 
ATOM     29  C   UNL     1       1.399  13.439  20.615  0.00  0.00    +0.000 C 
BRANCH  28  30
ATOM     30  C   UNL     1       0.409  11.234  21.124  0.00  0.00    +0.000 A 
ATOM     31  C   UNL     1      -0.543  11.496  22.118  0.00  0.00    +0.000 A 
ATOM     32  C   UNL     1      -0.809  10.583  23.142  0.00  0.00    +0.000 A 
ATOM     33  C   UNL     1      -0.170   9.350  23.162  0.00  0.00    +0.000 A 
ATOM     34  C   UNL     1       0.681   9.012  22.123  0.00  0.00    +0.000 A 
ATOM     35  C   UNL     1       0.985   9.954  21.139  0.00  0.00    +0.000 A 
ENDBRANCH  28  30
ENDBRANCH   3  24
TORSDOF 3
ENDMDL
MODEL 8
REMARK VINA RESULT:      -7.1      2.808      4.660
REMARK  Name = 
REMARK  3 active torsions:
REMARK  status: ('A' for Active; 'I' for Inactive)
REMARK    1  A    between atoms: C_2  and  C_3
REMARK    2  A    between atoms: N_5  and  C_6
REMARK    3  A    between atoms: N_10  and  C_11
REMARK                            x       y       z     vdW  Elec       q    Type
REMARK                         _______ _______ _______ _____ _____    ______ ____
ROOT
ATOM      1  C   UNL     1      -2.499  12.849  20.576  0.00  0.00    +0.000 A 
ATOM      2  N   UNL     1      -3.599  12.635  19.843  0.00  0.00    +0.000 NA
ATOM      3  N   UNL     1      -4.589  13.384  20.376  0.00  0.00    +0.000 N 
ATOM      4  C   UNL     1      -4.171  14.064  21.504  0.00  0.00    +0.000 A 
ATOM      5  C   UNL     1      -2.814  13.763  21.607  0.00  0.00    +0.000 A 
ATOM      6  C   UNL     1      -1.917  14.313  22.649  0.00  0.00    +0.000 C 
ATOM      7  S   UNL     1      -2.381  16.005  22.995  0.00  0.00    +0.000 S 
ATOM      8  O   UNL     1      -2.104  16.839  21.852  0.00  0.00    +0.000 OA
ATOM      9  O   UNL     1      -1.851  16.345  24.321  0.00  0.00    +0.000 OA
ATOM     10  C   UNL     1      -4.157  15.927  23.156  0.00  0.00    +0.000 A 
ATOM     11  C   UNL     1      -4.764  16.792  24.078  0.00  0.00    +0.000 A 
ATOM     12  C   UNL     1      -6.143  16.761  24.244  0.00  0.00    +0.000 A 
ATOM     13  C   UNL     1      -6.897  15.846  23.523  0.00  0.00    +0.000 A 
ATOM     14  C   UNL     1      -6.275  14.947  22.644  0.00  0.00    +0.000 A 
ATOM     15  C   UNL     1      -4.893  14.983  22.407  0.00  0.00    +0.000 A 
ENDROOT
BRANCH   1  17
ATOM     16  O   UNL     1      -1.050  11.039  20.965  0.00  0.00    +0.000 OA
ATOM     17  C   UNL     1      -1.211  12.120  20.390  0.00  0.00    +0.000 C 
ATOM     18  N   UNL     1      -0.192  12.655  19.598  0.00  0.00    +0.000 N 
ATOM     19  C   UNL     1       1.065  11.931  19.415  0.00  0.00    +0.000 C 
ATOM     20  C   UNL     1       2.262  12.893  19.440  0.00  0.00    +0.000 C 
ATOM     21  O   UNL     1       2.099  13.970  18.501  0.00  0.00    +0.000 OA
ATOM     22  C   UNL     1       0.900  14.707  18.781  0.00  0.00    +0.000 C 
ATOM     23  C   UNL     1      -0.318  13.788  18.697  0.00  0.00    +0.000 C 
ENDBRANCH   1  17
BRANCH   3  24
ATOM     24  C   UNL     1      -5.911  13.316  19.760  0.00  0.00    +0.000 C 
ATOM     25  C   UNL     1      -6.946  12.478  20.532  0.00  0.00    +0.000 C 
ATOM     26  C   UNL     1      -6.778  10.980  20.297  0.00  0.00    +0.000 C 
ATOM     27  C   UNL     1      -6.696  10.608  18.813  0.00  0.00    +0.000 C 
ATOM     28  N   UNL     1      -5.766  11.483  18.088  0.00  0.00    +0.000 N 
ATOM     29  C   UNL     1      -5.907  12.923  18.282  0.00  0.00    +0.000 C 
BRANCH  28  30
ATOM     30  C   UNL     1      -4.698  10.972  17.371  0.00  0.00    +0.000 A 
ATOM     31  C   UNL     1      -3.829  10.022  17.922  0.00  0.00    +0.000 A 
ATOM     32  C   UNL     1      -2.673   9.606  17.255  0.00  0.00    +0.000 A 
ATOM     33  C   UNL     1      -2.391  10.087  15.982  0.00  0.00    +0.000 A 
ATOM     34  C   UNL     1      -3.297  10.929  15.360  0.00  0.00    +0.000 A 
ATOM     35  C   UNL     1      -4.416  11.385  16.059  0.00  0.00    +0.000 A 
ENDBRANCH  28  30
ENDBRANCH   3  24
TORSDOF 3
ENDMDL
MODEL 9
REMARK VINA RESULT:      -7.1      3.261      5.578
REMARK  Name = 
REMARK  3 active torsions:
REMARK  status: ('A' for Active; 'I' for Inactive)
REMARK    1  A    between atoms: C_2  and  C_3
REMARK    2  A    between atoms: N_5  and  C_6
REMARK    3  A    between atoms: N_10  and  C_11
REMARK                            x       y       z     vdW  Elec       q    Type
REMARK                         _______ _______ _______ _____ _____    ______ ____
ROOT
ATOM      1  C   UNL     1      -2.720  13.111  20.300  0.00  0.00    +0.000 A 
ATOM      2  N   UNL     1      -3.556  12.425  19.511  0.00  0.00    +0.000 NA
ATOM      3  N   UNL     1      -4.772  12.443  20.100  0.00  0.00    +0.000 N 
ATOM      4  C   UNL     1      -4.745  13.095  21.317  0.00  0.00    +0.000 A 
ATOM      5  C   UNL     1      -3.439  13.571  21.427  0.00  0.00    +0.000 A 
ATOM      6  C   UNL     1      -2.943  14.387  22.559  0.00  0.00    +0.000 C 
ATOM      7  S   UNL     1      -4.239  15.497  23.099  0.00  0.00    +0.000 S 
ATOM      8  O   UNL     1      -4.506  16.481  22.080  0.00  0.00    +0.000 OA
ATOM      9  O   UNL     1      -3.924  15.903  24.473  0.00  0.00    +0.000 OA
ATOM     10  C   UNL     1      -5.678  14.445  23.190  0.00  0.00    +0.000 A 
ATOM     11  C   UNL     1      -6.620  14.720  24.192  0.00  0.00    +0.000 A 
ATOM     12  C   UNL     1      -7.752  13.924  24.308  0.00  0.00    +0.000 A 
ATOM     13  C   UNL     1      -7.917  12.842  23.453  0.00  0.00    +0.000 A 
ATOM     14  C   UNL     1      -6.942  12.543  22.489  0.00  0.00    +0.000 A 
ATOM     15  C   UNL     1      -5.813  13.354  22.304  0.00  0.00    +0.000 A 
ENDROOT
BRANCH   1  17
ATOM     16  O   UNL     1      -0.780  14.337  19.791  0.00  0.00    +0.000 OA
ATOM     17  C   UNL     1      -1.251  13.229  20.067  0.00  0.00    +0.000 C 
ATOM     18  N   UNL     1      -0.422  12.108  20.135  0.00  0.00    +0.000 N 
ATOM     19  C   UNL     1       1.017  12.233  19.911  0.00  0.00    +0.000 C 
ATOM     20  C   UNL     1       1.552  11.050  19.089  0.00  0.00    +0.000 C 
ATOM     21  O   UNL     1       1.188   9.788  19.676  0.00  0.00    +0.000 OA
ATOM     22  C   UNL     1      -0.238   9.675  19.787  0.00  0.00    +0.000 C 
ATOM     23  C   UNL     1      -0.792  10.803  20.657  0.00  0.00    +0.000 C 
ENDBRANCH   1  17
BRANCH   3  24
ATOM     24  C   UNL     1      -5.868  11.742  19.437  0.00  0.00    +0.000 C 
ATOM     25  C   UNL     1      -5.452  10.866  18.242  0.00  0.00    +0.000 C 
ATOM     26  C   UNL     1      -5.227  11.680  16.972  0.00  0.00    +0.000 C 
ATOM     27  C   UNL     1      -6.390  12.623  16.645  0.00  0.00    +0.000 C 
ATOM     28  N   UNL     1      -6.820  13.380  17.827  0.00  0.00    +0.000 N 
ATOM     29  C   UNL     1      -7.055  12.629  19.058  0.00  0.00    +0.000 C 
BRANCH  28  30
ATOM     30  C   UNL     1      -6.853  14.763  17.831  0.00  0.00    +0.000 A 
ATOM     31  C   UNL     1      -7.269  15.492  16.710  0.00  0.00    +0.000 A 
ATOM     32  C   UNL     1      -7.174  16.886  16.662  0.00  0.00    +0.000 A 
ATOM     33  C   UNL     1      -6.717  17.594  17.766  0.00  0.00    +0.000 A 
ATOM     34  C   UNL     1      -6.419  16.909  18.932  0.00  0.00    +0.000 A 
ATOM     35  C   UNL     1      -6.459  15.514  18.949  0.00  0.00    +0.000 A 
ENDBRANCH  28  30
ENDBRANCH   3  24
TORSDOF 3
ENDMDL
