MODEL 1
REMARK VINA RESULT:      -7.6      0.000      0.000
REMARK  Name = 
REMARK  6 active torsions:
REMARK  status: ('A' for Active; 'I' for Inactive)
REMARK    1  A    between atoms: C_1  and  C_2
REMARK    2  A    between atoms: C_2  and  C_3
REMARK    3  A    between atoms: N_7  and  C_8
REMARK    4  A    between atoms: C_8  and  C_9
REMARK    5  A    between atoms: C_9  and  C_10
REMARK    6  A    between atoms: C_10  and  C_11
REMARK                            x       y       z     vdW  Elec       q    Type
REMARK                         _______ _______ _______ _____ _____    ______ ____
ROOT
ATOM      1  C   UNL     1       4.444   7.321  17.178  0.00  0.00    +0.000 C 
ENDROOT
BRANCH   1   2
ATOM      2  C   UNL     1       5.660   6.751  16.408  0.00  0.00    +0.000 C 
ATOM      3  C   UNL     1       5.173   5.867  15.220  0.00  0.00    +0.000 C 
ATOM      4  C   UNL     1       6.259   4.952  14.641  0.00  0.00    +0.000 C 
ATOM      5  C   UNL     1       6.780   3.973  15.699  0.00  0.00    +0.000 C 
ATOM      6  C   UNL     1       7.100   4.732  16.936  0.00  0.00    +0.000 A 
ATOM      7  N   UNL     1       7.955   4.299  17.912  0.00  0.00    +0.000 N 
ATOM      8  C   UNL     1       8.102   5.302  18.843  0.00  0.00    +0.000 A 
ATOM      9  C   UNL     1       7.302   6.361  18.462  0.00  0.00    +0.000 A 
ATOM     10  C   UNL     1       6.620   5.979  17.279  0.00  0.00    +0.000 A 
ATOM     11  H   UNL     1       8.434   3.408  17.927  0.00  0.00    +0.000 HD
ENDBRANCH   1   2
BRANCH   1  12
ATOM     12  C   UNL     1       3.601   6.179  17.764  0.00  0.00    +0.000 C 
BRANCH  12  13
ATOM     13  C   UNL     1       3.613   6.074  19.291  0.00  0.00    +0.000 C 
BRANCH  13  20
ATOM     14  C   UNL     1       1.512   2.630  21.114  0.00  0.00    +0.000 C 
ATOM     15  C   UNL     1       1.801   2.711  19.602  0.00  0.00    +0.000 C 
ATOM     16  C   UNL     1       0.553   2.223  18.846  0.00  0.00    +0.000 C 
ATOM     17  C   UNL     1       2.991   1.806  19.227  0.00  0.00    +0.000 C 
ATOM     18  C   UNL     1       4.294   2.342  19.793  0.00  0.00    +0.000 C 
ATOM     19  C   UNL     1       4.515   3.800  19.397  0.00  0.00    +0.000 C 
ATOM     20  N   UNL     1       3.384   4.678  19.741  0.00  0.00    +0.000 NA
ATOM     21  C   UNL     1       2.119   4.169  19.181  0.00  0.00    +0.000 C 
ENDBRANCH  13  20
ENDBRANCH  12  13
ENDBRANCH   1  12
TORSDOF 4
ENDMDL
MODEL 2
REMARK VINA RESULT:      -7.3      0.858      1.468
REMARK  Name = 
REMARK  6 active torsions:
REMARK  status: ('A' for Active; 'I' for Inactive)
REMARK    1  A    between atoms: C_1  and  C_2
REMARK    2  A    between atoms: C_2  and  C_3
REMARK    3  A    between atoms: N_7  and  C_8
REMARK    4  A    between atoms: C_8  and  C_9
REMARK    5  A    between atoms: C_9  and  C_10
REMARK    6  A    between atoms: C_10  and  C_11
REMARK                            x       y       z     vdW  Elec       q    Type
REMARK                         _______ _______ _______ _____ _____    ______ ____
ROOT
ATOM      1  C   UNL     1       4.498   7.329  17.203  0.00  0.00    +0.000 C 
ENDROOT
BRANCH   1   2
ATOM      2  C   UNL     1       5.701   6.745  16.422  0.00  0.00    +0.000 C 
ATOM      3  C   UNL     1       5.193   5.858  15.244  0.00  0.00    +0.000 C 
ATOM      4  C   UNL     1       6.266   4.932  14.658  0.00  0.00    +0.000 C 
ATOM      5  C   UNL     1       6.791   3.954  15.716  0.00  0.00    +0.000 C 
ATOM      6  C   UNL     1       7.130   4.717  16.944  0.00  0.00    +0.000 A 
ATOM      7  N   UNL     1       7.993   4.282  17.913  0.00  0.00    +0.000 N 
ATOM      8  C   UNL     1       8.158   5.289  18.837  0.00  0.00    +0.000 A 
ATOM      9  C   UNL     1       7.363   6.352  18.460  0.00  0.00    +0.000 A 
ATOM     10  C   UNL     1       6.664   5.969  17.286  0.00  0.00    +0.000 A 
ATOM     11  H   UNL     1       8.465   3.388  17.927  0.00  0.00    +0.000 HD
ENDBRANCH   1   2
BRANCH   1  12
ATOM     12  C   UNL     1       3.990   6.313  18.236  0.00  0.00    +0.000 C 
BRANCH  12  13
ATOM     13  C   UNL     1       2.478   6.323  18.473  0.00  0.00    +0.000 C 
BRANCH  13  20
ATOM     14  C   UNL     1       0.892   2.196  18.714  0.00  0.00    +0.000 C 
ATOM     15  C   UNL     1       2.338   2.547  19.118  0.00  0.00    +0.000 C 
ATOM     16  C   UNL     1       3.270   1.448  18.577  0.00  0.00    +0.000 C 
ATOM     17  C   UNL     1       2.476   2.600  20.652  0.00  0.00    +0.000 C 
ATOM     18  C   UNL     1       1.724   3.783  21.236  0.00  0.00    +0.000 C 
ATOM     19  C   UNL     1       2.135   5.090  20.561  0.00  0.00    +0.000 C 
ATOM     20  N   UNL     1       2.017   5.055  19.094  0.00  0.00    +0.000 NA
ATOM     21  C   UNL     1       2.758   3.916  18.522  0.00  0.00    +0.000 C 
ENDBRANCH  13  20
ENDBRANCH  12  13
ENDBRANCH   1  12
TORSDOF 4
ENDMDL
MODEL 3
REMARK VINA RESULT:      -7.3      1.580      5.493
REMARK  Name = 
REMARK  6 active torsions:
REMARK  status: ('A' for Active; 'I' for Inactive)
REMARK    1  A    between atoms: C_1  and  C_2
REMARK    2  A    between atoms: C_2  and  C_3
REMARK    3  A    between atoms: N_7  and  C_8
REMARK    4  A    between atoms: C_8  and  C_9
REMARK    5  A    between atoms: C_9  and  C_10
REMARK    6  A    between atoms: C_10  and  C_11
REMARK                            x       y       z     vdW  Elec       q    Type
REMARK                         _______ _______ _______ _____ _____    ______ ____
ROOT
ATOM      1  C   UNL     1       1.554   5.242  17.907  0.00  0.00    +0.000 C 
ENDROOT
BRANCH   1   2
ATOM      2  C   UNL     1       1.399   4.003  18.824  0.00  0.00    +0.000 C 
ATOM      3  C   UNL     1       1.199   4.456  20.303  0.00  0.00    +0.000 C 
ATOM      4  C   UNL     1       1.425   3.339  21.329  0.00  0.00    +0.000 C 
ATOM      5  C   UNL     1       2.857   2.797  21.252  0.00  0.00    +0.000 C 
ATOM      6  C   UNL     1       3.182   2.509  19.831  0.00  0.00    +0.000 A 
ATOM      7  N   UNL     1       4.163   1.648  19.420  0.00  0.00    +0.000 N 
ATOM      8  C   UNL     1       4.103   1.538  18.049  0.00  0.00    +0.000 A 
ATOM      9  C   UNL     1       3.095   2.366  17.596  0.00  0.00    +0.000 A 
ATOM     10  C   UNL     1       2.545   3.028  18.723  0.00  0.00    +0.000 A 
ATOM     11  H   UNL     1       4.799   1.144  20.023  0.00  0.00    +0.000 HD
ENDBRANCH   1   2
BRANCH   1  12
ATOM     12  C   UNL     1       2.550   6.237  18.521  0.00  0.00    +0.000 C 
BRANCH  12  13
ATOM     13  C   UNL     1       3.662   6.710  17.583  0.00  0.00    +0.000 C 
BRANCH  13  20
ATOM     14  C   UNL     1       5.755   3.463  15.418  0.00  0.00    +0.000 C 
ATOM     15  C   UNL     1       6.429   4.815  15.727  0.00  0.00    +0.000 C 
ATOM     16  C   UNL     1       7.221   5.254  14.481  0.00  0.00    +0.000 C 
ATOM     17  C   UNL     1       7.407   4.677  16.909  0.00  0.00    +0.000 C 
ATOM     18  C   UNL     1       6.668   4.426  18.213  0.00  0.00    +0.000 C 
ATOM     19  C   UNL     1       5.594   5.484  18.455  0.00  0.00    +0.000 C 
ATOM     20  N   UNL     1       4.656   5.634  17.331  0.00  0.00    +0.000 NA
ATOM     21  C   UNL     1       5.368   5.893  16.067  0.00  0.00    +0.000 C 
ENDBRANCH  13  20
ENDBRANCH  12  13
ENDBRANCH   1  12
TORSDOF 4
ENDMDL
MODEL 4
REMARK VINA RESULT:      -7.0      1.610      2.488
REMARK  Name = 
REMARK  6 active torsions:
REMARK  status: ('A' for Active; 'I' for Inactive)
REMARK    1  A    between atoms: C_1  and  C_2
REMARK    2  A    between atoms: C_2  and  C_3
REMARK    3  A    between atoms: N_7  and  C_8
REMARK    4  A    between atoms: C_8  and  C_9
REMARK    5  A    between atoms: C_9  and  C_10
REMARK    6  A    between atoms: C_10  and  C_11
REMARK                            x       y       z     vdW  Elec       q    Type
REMARK                         _______ _______ _______ _____ _____    ______ ____
ROOT
ATOM      1  C   UNL     1       4.661   7.010  16.846  0.00  0.00    +0.000 C 
ENDROOT
BRANCH   1   2
ATOM      2  C   UNL     1       6.103   6.448  16.872  0.00  0.00    +0.000 C 
ATOM      3  C   UNL     1       6.108   5.016  17.489  0.00  0.00    +0.000 C 
ATOM      4  C   UNL     1       7.497   4.530  17.919  0.00  0.00    +0.000 C 
ATOM      5  C   UNL     1       8.096   5.446  18.993  0.00  0.00    +0.000 C 
ATOM      6  C   UNL     1       7.963   6.857  18.546  0.00  0.00    +0.000 A 
ATOM      7  N   UNL     1       8.729   7.892  19.008  0.00  0.00    +0.000 N 
ATOM      8  C   UNL     1       8.413   9.024  18.292  0.00  0.00    +0.000 A 
ATOM      9  C   UNL     1       7.414   8.701  17.396  0.00  0.00    +0.000 A 
ATOM     10  C   UNL     1       7.086   7.336  17.595  0.00  0.00    +0.000 A 
ATOM     11  H   UNL     1       9.440   7.829  19.724  0.00  0.00    +0.000 HD
ENDBRANCH   1   2
BRANCH   1  12
ATOM     12  C   UNL     1       3.960   6.739  18.185  0.00  0.00    +0.000 C 
BRANCH  12  13
ATOM     13  C   UNL     1       2.463   6.436  18.089  0.00  0.00    +0.000 C 
BRANCH  13  20
ATOM     14  C   UNL     1       1.066   2.282  18.724  0.00  0.00    +0.000 C 
ATOM     15  C   UNL     1       2.529   2.706  18.966  0.00  0.00    +0.000 C 
ATOM     16  C   UNL     1       3.448   1.606  18.404  0.00  0.00    +0.000 C 
ATOM     17  C   UNL     1       2.808   2.859  20.474  0.00  0.00    +0.000 C 
ATOM     18  C   UNL     1       2.068   4.051  21.056  0.00  0.00    +0.000 C 
ATOM     19  C   UNL     1       2.364   5.326  20.269  0.00  0.00    +0.000 C 
ATOM     20  N   UNL     1       2.110   5.195  18.825  0.00  0.00    +0.000 NA
ATOM     21  C   UNL     1       2.838   4.047  18.253  0.00  0.00    +0.000 C 
ENDBRANCH  13  20
ENDBRANCH  12  13
ENDBRANCH   1  12
TORSDOF 4
ENDMDL
MODEL 5
REMARK VINA RESULT:      -7.0      0.842      1.414
REMARK  Name = 
REMARK  6 active torsions:
REMARK  status: ('A' for Active; 'I' for Inactive)
REMARK    1  A    between atoms: C_1  and  C_2
REMARK    2  A    between atoms: C_2  and  C_3
REMARK    3  A    between atoms: N_7  and  C_8
REMARK    4  A    between atoms: C_8  and  C_9
REMARK    5  A    between atoms: C_9  and  C_10
REMARK    6  A    between atoms: C_10  and  C_11
REMARK                            x       y       z     vdW  Elec       q    Type
REMARK                         _______ _______ _______ _____ _____    ______ ____
ROOT
ATOM      1  C   UNL     1       4.666   7.614  17.609  0.00  0.00    +0.000 C 
ENDROOT
BRANCH   1   2
ATOM      2  C   UNL     1       5.741   6.925  16.733  0.00  0.00    +0.000 C 
ATOM      3  C   UNL     1       5.059   6.118  15.587  0.00  0.00    +0.000 C 
ATOM      4  C   UNL     1       5.984   5.098  14.911  0.00  0.00    +0.000 C 
ATOM      5  C   UNL     1       6.481   4.051  15.915  0.00  0.00    +0.000 C 
ATOM      6  C   UNL     1       6.988   4.752  17.123  0.00  0.00    +0.000 A 
ATOM      7  N   UNL     1       7.870   4.213  18.019  0.00  0.00    +0.000 N 
ATOM      8  C   UNL     1       8.206   5.180  18.939  0.00  0.00    +0.000 A 
ATOM      9  C   UNL     1       7.499   6.326  18.635  0.00  0.00    +0.000 A 
ATOM     10  C   UNL     1       6.680   6.039  17.514  0.00  0.00    +0.000 A 
ATOM     11  H   UNL     1       8.247   3.275  17.988  0.00  0.00    +0.000 HD
ENDBRANCH   1   2
BRANCH   1  12
ATOM     12  C   UNL     1       3.315   6.902  17.453  0.00  0.00    +0.000 C 
BRANCH  12  13
ATOM     13  C   UNL     1       2.683   6.408  18.756  0.00  0.00    +0.000 C 
BRANCH  13  20
ATOM     14  C   UNL     1       3.692   2.467  20.507  0.00  0.00    +0.000 C 
ATOM     15  C   UNL     1       2.237   2.958  20.367  0.00  0.00    +0.000 C 
ATOM     16  C   UNL     1       1.480   2.595  21.657  0.00  0.00    +0.000 C 
ATOM     17  C   UNL     1       1.542   2.268  19.177  0.00  0.00    +0.000 C 
ATOM     18  C   UNL     1       2.125   2.731  17.852  0.00  0.00    +0.000 C 
ATOM     19  C   UNL     1       2.113   4.254  17.741  0.00  0.00    +0.000 C 
ATOM     20  N   UNL     1       2.765   4.929  18.874  0.00  0.00    +0.000 NA
ATOM     21  C   UNL     1       2.193   4.494  20.161  0.00  0.00    +0.000 C 
ENDBRANCH  13  20
ENDBRANCH  12  13
ENDBRANCH   1  12
TORSDOF 4
ENDMDL
MODEL 6
REMARK VINA RESULT:      -7.0      1.624      5.733
REMARK  Name = 
REMARK  6 active torsions:
REMARK  status: ('A' for Active; 'I' for Inactive)
REMARK    1  A    between atoms: C_1  and  C_2
REMARK    2  A    between atoms: C_2  and  C_3
REMARK    3  A    between atoms: N_7  and  C_8
REMARK    4  A    between atoms: C_8  and  C_9
REMARK    5  A    between atoms: C_9  and  C_10
REMARK    6  A    between atoms: C_10  and  C_11
REMARK                            x       y       z     vdW  Elec       q    Type
REMARK                         _______ _______ _______ _____ _____    ______ ____
ROOT
ATOM      1  C   UNL     1       1.144   4.148  17.723  0.00  0.00    +0.000 C 
ENDROOT
BRANCH   1   2
ATOM      2  C   UNL     1       1.232   3.121  18.879  0.00  0.00    +0.000 C 
ATOM      3  C   UNL     1       0.916   3.818  20.238  0.00  0.00    +0.000 C 
ATOM      4  C   UNL     1       1.351   3.009  21.466  0.00  0.00    +0.000 C 
ATOM      5  C   UNL     1       2.866   2.772  21.465  0.00  0.00    +0.000 C 
ATOM      6  C   UNL     1       3.269   2.270  20.126  0.00  0.00    +0.000 A 
ATOM      7  N   UNL     1       4.415   1.565  19.876  0.00  0.00    +0.000 N 
ATOM      8  C   UNL     1       4.403   1.164  18.559  0.00  0.00    +0.000 A 
ATOM      9  C   UNL     1       3.254   1.653  17.972  0.00  0.00    +0.000 A 
ATOM     10  C   UNL     1       2.558   2.405  18.952  0.00  0.00    +0.000 A 
ATOM     11  H   UNL     1       5.131   1.339  20.553  0.00  0.00    +0.000 HD
ENDBRANCH   1   2
BRANCH   1  12
ATOM     12  C   UNL     1       2.544   4.449  17.170  0.00  0.00    +0.000 C 
BRANCH  12  13
ATOM     13  C   UNL     1       3.301   5.570  17.884  0.00  0.00    +0.000 C 
BRANCH  13  20
ATOM     14  C   UNL     1       7.428   7.133  17.511  0.00  0.00    +0.000 C 
ATOM     15  C   UNL     1       7.111   5.806  18.231  0.00  0.00    +0.000 C 
ATOM     16  C   UNL     1       7.962   5.739  19.512  0.00  0.00    +0.000 C 
ATOM     17  C   UNL     1       7.470   4.603  17.337  0.00  0.00    +0.000 C 
ATOM     18  C   UNL     1       6.538   4.505  16.141  0.00  0.00    +0.000 C 
ATOM     19  C   UNL     1       5.074   4.502  16.576  0.00  0.00    +0.000 C 
ATOM     20  N   UNL     1       4.717   5.640  17.438  0.00  0.00    +0.000 NA
ATOM     21  C   UNL     1       5.609   5.731  18.608  0.00  0.00    +0.000 C 
ENDBRANCH  13  20
ENDBRANCH  12  13
ENDBRANCH   1  12
TORSDOF 4
ENDMDL
MODEL 7
REMARK VINA RESULT:      -6.9      1.491      2.407
REMARK  Name = 
REMARK  6 active torsions:
REMARK  status: ('A' for Active; 'I' for Inactive)
REMARK    1  A    between atoms: C_1  and  C_2
REMARK    2  A    between atoms: C_2  and  C_3
REMARK    3  A    between atoms: N_7  and  C_8
REMARK    4  A    between atoms: C_8  and  C_9
REMARK    5  A    between atoms: C_9  and  C_10
REMARK    6  A    between atoms: C_10  and  C_11
REMARK                            x       y       z     vdW  Elec       q    Type
REMARK                         _______ _______ _______ _____ _____    ______ ____
ROOT
ATOM      1  C   UNL     1       4.497   7.032  16.677  0.00  0.00    +0.000 C 
ENDROOT
BRANCH   1   2
ATOM      2  C   UNL     1       5.919   6.418  16.670  0.00  0.00    +0.000 C 
ATOM      3  C   UNL     1       5.869   4.949  17.193  0.00  0.00    +0.000 C 
ATOM      4  C   UNL     1       7.238   4.387  17.595  0.00  0.00    +0.000 C 
ATOM      5  C   UNL     1       7.863   5.208  18.728  0.00  0.00    +0.000 C 
ATOM      6  C   UNL     1       7.783   6.649  18.373  0.00  0.00    +0.000 A 
ATOM      7  N   UNL     1       8.583   7.624  18.905  0.00  0.00    +0.000 N 
ATOM      8  C   UNL     1       8.311   8.811  18.263  0.00  0.00    +0.000 A 
ATOM      9  C   UNL     1       7.306   8.583  17.346  0.00  0.00    +0.000 A 
ATOM     10  C   UNL     1       6.928   7.220  17.454  0.00  0.00    +0.000 A 
ATOM     11  H   UNL     1       9.287   7.488  19.618  0.00  0.00    +0.000 HD
ENDBRANCH   1   2
BRANCH   1  12
ATOM     12  C   UNL     1       4.012   7.236  18.119  0.00  0.00    +0.000 C 
BRANCH  12  13
ATOM     13  C   UNL     1       2.640   6.637  18.438  0.00  0.00    +0.000 C 
BRANCH  13  20
ATOM     14  C   UNL     1       3.917   2.735  20.098  0.00  0.00    +0.000 C 
ATOM     15  C   UNL     1       2.477   3.264  20.251  0.00  0.00    +0.000 C 
ATOM     16  C   UNL     1       2.007   2.971  21.688  0.00  0.00    +0.000 C 
ATOM     17  C   UNL     1       1.529   2.552  19.267  0.00  0.00    +0.000 C 
ATOM     18  C   UNL     1       1.823   2.947  17.830  0.00  0.00    +0.000 C 
ATOM     19  C   UNL     1       1.820   4.465  17.660  0.00  0.00    +0.000 C 
ATOM     20  N   UNL     1       2.714   5.162  18.598  0.00  0.00    +0.000 NA
ATOM     21  C   UNL     1       2.422   4.792  19.995  0.00  0.00    +0.000 C 
ENDBRANCH  13  20
ENDBRANCH  12  13
ENDBRANCH   1  12
TORSDOF 4
ENDMDL
MODEL 8
REMARK VINA RESULT:      -6.7      1.592      5.438
REMARK  Name = 
REMARK  6 active torsions:
REMARK  status: ('A' for Active; 'I' for Inactive)
REMARK    1  A    between atoms: C_1  and  C_2
REMARK    2  A    between atoms: C_2  and  C_3
REMARK    3  A    between atoms: N_7  and  C_8
REMARK    4  A    between atoms: C_8  and  C_9
REMARK    5  A    between atoms: C_9  and  C_10
REMARK    6  A    between atoms: C_10  and  C_11
REMARK                            x       y       z     vdW  Elec       q    Type
REMARK                         _______ _______ _______ _____ _____    ______ ____
ROOT
ATOM      1  C   UNL     1       2.092   5.937  18.081  0.00  0.00    +0.000 C 
ENDROOT
BRANCH   1   2
ATOM      2  C   UNL     1       2.728   4.554  18.365  0.00  0.00    +0.000 C 
ATOM      3  C   UNL     1       2.386   3.563  17.210  0.00  0.00    +0.000 C 
ATOM      4  C   UNL     1       2.624   2.090  17.567  0.00  0.00    +0.000 C 
ATOM      5  C   UNL     1       1.753   1.660  18.753  0.00  0.00    +0.000 C 
ATOM      6  C   UNL     1       1.893   2.667  19.837  0.00  0.00    +0.000 A 
ATOM      7  N   UNL     1       1.625   2.427  21.157  0.00  0.00    +0.000 N 
ATOM      8  C   UNL     1       1.976   3.541  21.885  0.00  0.00    +0.000 A 
ATOM      9  C   UNL     1       2.437   4.500  21.006  0.00  0.00    +0.000 A 
ATOM     10  C   UNL     1       2.331   3.967  19.697  0.00  0.00    +0.000 A 
ATOM     11  H   UNL     1       1.269   1.562  21.541  0.00  0.00    +0.000 HD
ENDBRANCH   1   2
BRANCH   1  12
ATOM     12  C   UNL     1       3.115   7.055  18.330  0.00  0.00    +0.000 C 
BRANCH  12  13
ATOM     13  C   UNL     1       4.152   7.250  17.221  0.00  0.00    +0.000 C 
BRANCH  13  20
ATOM     14  C   UNL     1       5.592   3.419  15.529  0.00  0.00    +0.000 C 
ATOM     15  C   UNL     1       6.402   4.726  15.415  0.00  0.00    +0.000 C 
ATOM     16  C   UNL     1       6.984   4.810  13.992  0.00  0.00    +0.000 C 
ATOM     17  C   UNL     1       7.566   4.735  16.425  0.00  0.00    +0.000 C 
ATOM     18  C   UNL     1       7.058   4.840  17.853  0.00  0.00    +0.000 C 
ATOM     19  C   UNL     1       6.121   6.034  18.023  0.00  0.00    +0.000 C 
ATOM     20  N   UNL     1       5.007   6.046  17.060  0.00  0.00    +0.000 NA
ATOM     21  C   UNL     1       5.496   5.958  15.672  0.00  0.00    +0.000 C 
ENDBRANCH  13  20
ENDBRANCH  12  13
ENDBRANCH   1  12
TORSDOF 4
ENDMDL
MODEL 9
REMARK VINA RESULT:      -6.7      3.115      5.031
REMARK  Name = 
REMARK  6 active torsions:
REMARK  status: ('A' for Active; 'I' for Inactive)
REMARK    1  A    between atoms: C_1  and  C_2
REMARK    2  A    between atoms: C_2  and  C_3
REMARK    3  A    between atoms: N_7  and  C_8
REMARK    4  A    between atoms: C_8  and  C_9
REMARK    5  A    between atoms: C_9  and  C_10
REMARK    6  A    between atoms: C_10  and  C_11
REMARK                            x       y       z     vdW  Elec       q    Type
REMARK                         _______ _______ _______ _____ _____    ______ ____
ROOT
ATOM      1  C   UNL     1       3.356   4.749  17.639  0.00  0.00    +0.000 C 
ENDROOT
BRANCH   1   2
ATOM      2  C   UNL     1       4.857   4.485  17.913  0.00  0.00    +0.000 C 
ATOM      3  C   UNL     1       5.345   5.363  19.105  0.00  0.00    +0.000 C 
ATOM      4  C   UNL     1       6.870   5.477  19.209  0.00  0.00    +0.000 C 
ATOM      5  C   UNL     1       7.465   6.120  17.950  0.00  0.00    +0.000 C 
ATOM      6  C   UNL     1       6.900   5.442  16.756  0.00  0.00    +0.000 A 
ATOM      7  N   UNL     1       7.482   5.440  15.517  0.00  0.00    +0.000 N 
ATOM      8  C   UNL     1       6.749   4.621  14.689  0.00  0.00    +0.000 A 
ATOM      9  C   UNL     1       5.677   4.132  15.409  0.00  0.00    +0.000 A 
ATOM     10  C   UNL     1       5.739   4.698  16.707  0.00  0.00    +0.000 A 
ATOM     11  H   UNL     1       8.333   5.924  15.263  0.00  0.00    +0.000 HD
ENDBRANCH   1   2
BRANCH   1  12
ATOM     12  C   UNL     1       2.854   5.916  18.502  0.00  0.00    +0.000 C 
BRANCH  12  13
ATOM     13  C   UNL     1       2.933   7.296  17.844  0.00  0.00    +0.000 C 
BRANCH  13  20
ATOM     14  C   UNL     1       1.316  11.261  18.971  0.00  0.00    +0.000 C 
ATOM     15  C   UNL     1       0.413  10.024  18.792  0.00  0.00    +0.000 C 
ATOM     16  C   UNL     1      -0.856  10.460  18.037  0.00  0.00    +0.000 C 
ATOM     17  C   UNL     1      -0.000   9.450  20.161  0.00  0.00    +0.000 C 
ATOM     18  C   UNL     1       1.185   8.832  20.883  0.00  0.00    +0.000 C 
ATOM     19  C   UNL     1       1.899   7.807  20.004  0.00  0.00    +0.000 C 
ATOM     20  N   UNL     1       2.293   8.337  18.689  0.00  0.00    +0.000 NA
ATOM     21  C   UNL     1       1.143   8.925  17.978  0.00  0.00    +0.000 C 
ENDBRANCH  13  20
ENDBRANCH  12  13
ENDBRANCH   1  12
TORSDOF 4
ENDMDL
