MODEL 1
REMARK VINA RESULT:      -8.9      0.000      0.000
REMARK  Name = 
REMARK  6 active torsions:
REMARK  status: ('A' for Active; 'I' for Inactive)
REMARK    1  A    between atoms: C_1  and  O_2
REMARK    2  A    between atoms: O_2  and  C_3
REMARK    3  A    between atoms: C_3  and  C_4
REMARK    4  A    between atoms: C_4  and  N_5
REMARK    5  A    between atoms: C_4  and  C_30
REMARK    6  A    between atoms: C_14  and  C_15
REMARK                            x       y       z     vdW  Elec       q    Type
REMARK                         _______ _______ _______ _____ _____    ______ ____
ROOT
ATOM      1  N   UNL     1       1.574  14.171  18.555  0.00  0.00    +0.000 N 
ATOM      2  C   UNL     1       1.755  12.927  19.110  0.00  0.00    +0.000 C 
ATOM      3  O   UNL     1       2.303  12.752  20.197  0.00  0.00    +0.000 OA
ATOM      4  N   UNL     1       1.297  11.926  18.288  0.00  0.00    +0.000 N 
ATOM      5  C   UNL     1       1.456  10.567  18.600  0.00  0.00    +0.000 A 
ATOM      6  C   UNL     1       1.186  10.070  19.871  0.00  0.00    +0.000 A 
ATOM      7  C   UNL     1       1.420   8.704  20.036  0.00  0.00    +0.000 A 
ATOM      8  N   UNL     1       1.251   7.867  21.102  0.00  0.00    +0.000 N 
ATOM      9  N   UNL     1       1.635   6.600  20.877  0.00  0.00    +0.000 NA
ATOM     10  C   UNL     1       2.101   6.606  19.615  0.00  0.00    +0.000 A 
ATOM     11  C   UNL     1       1.927   7.904  19.021  0.00  0.00    +0.000 A 
ATOM     12  C   UNL     1       2.136   8.489  17.768  0.00  0.00    +0.000 A 
ATOM     13  N   UNL     1       1.864   9.805  17.563  0.00  0.00    +0.000 NA
ATOM     14  H   UNL     1       0.862  14.272  17.847  0.00  0.00    +0.000 HD
ATOM     15  H   UNL     1       1.406  12.099  17.302  0.00  0.00    +0.000 HD
ATOM     16  H   UNL     1       0.873   8.099  22.014  0.00  0.00    +0.000 HD
ENDROOT
BRANCH  10  17
ATOM     17  C   UNL     1       2.680   5.401  19.025  0.00  0.00    +0.000 A 
ATOM     18  C   UNL     1       2.032   4.172  19.104  0.00  0.00    +0.000 A 
ATOM     19  C   UNL     1       2.617   3.089  18.470  0.00  0.00    +0.000 A 
ATOM     20  N   UNL     1       3.780   3.155  17.776  0.00  0.00    +0.000 NA
ATOM     21  C   UNL     1       4.442   4.326  17.747  0.00  0.00    +0.000 A 
ATOM     22  N   UNL     1       5.609   4.424  17.034  0.00  0.00    +0.000 N 
ATOM     23  C   UNL     1       5.879   3.535  15.905  0.00  0.00    +0.000 C 
ATOM     24  C   UNL     1       6.426   4.401  14.738  0.00  0.00    +0.000 C 
ATOM     25  N   UNL     1       7.591   5.244  15.099  0.00  0.00    +0.000 NA
ATOM     26  C   UNL     1       7.290   6.040  16.307  0.00  0.00    +0.000 C 
ATOM     27  C   UNL     1       6.769   5.190  17.488  0.00  0.00    +0.000 C 
ATOM     28  C   UNL     1       3.912   5.453  18.372  0.00  0.00    +0.000 A 
ATOM     29  H   UNL     1       7.787   5.880  14.327  0.00  0.00    +0.000 HD
ENDBRANCH  10  17
BRANCH   1  30
ATOM     30  C   UNL     1       2.056  15.380  19.225  0.00  0.00    +0.000 C 
BRANCH  30  31
ATOM     31  C   UNL     1       3.571  15.511  19.106  0.00  0.00    +0.000 A 
ATOM     32  C   UNL     1       4.194  15.201  17.882  0.00  0.00    +0.000 A 
ATOM     33  C   UNL     1       5.585  15.210  17.770  0.00  0.00    +0.000 A 
ATOM     34  C   UNL     1       6.359  15.535  18.876  0.00  0.00    +0.000 A 
ATOM     35  F   UNL     1       7.695  15.529  18.771  0.00  0.00    +0.000 F 
ATOM     36  C   UNL     1       5.769  15.857  20.091  0.00  0.00    +0.000 A 
ATOM     37  C   UNL     1       4.378  15.841  20.209  0.00  0.00    +0.000 A 
ENDBRANCH  30  31
BRANCH  30  38
ATOM     38  C   UNL     1       1.410  16.670  18.671  0.00  0.00    +0.000 C 
BRANCH  38  40
ATOM     39  C   UNL     1      -0.605  17.469  17.752  0.00  0.00    +0.000 C 
ATOM     40  O   UNL     1      -0.017  16.578  18.694  0.00  0.00    +0.000 OA
ENDBRANCH  38  40
ENDBRANCH  30  38
ENDBRANCH   1  30
TORSDOF 5
ENDMDL
MODEL 2
REMARK VINA RESULT:      -8.7      5.802     11.621
REMARK  Name = 
REMARK  6 active torsions:
REMARK  status: ('A' for Active; 'I' for Inactive)
REMARK    1  A    between atoms: C_1  and  O_2
REMARK    2  A    between atoms: O_2  and  C_3
REMARK    3  A    between atoms: C_3  and  C_4
REMARK    4  A    between atoms: C_4  and  N_5
REMARK    5  A    between atoms: C_4  and  C_30
REMARK    6  A    between atoms: C_14  and  C_15
REMARK                            x       y       z     vdW  Elec       q    Type
REMARK                         _______ _______ _______ _____ _____    ______ ____
ROOT
ATOM      1  N   UNL     1       3.154   7.073  17.748  0.00  0.00    +0.000 N 
ATOM      2  C   UNL     1       2.356   7.900  18.501  0.00  0.00    +0.000 C 
ATOM      3  O   UNL     1       2.281   7.827  19.726  0.00  0.00    +0.000 OA
ATOM      4  N   UNL     1       1.631   8.767  17.717  0.00  0.00    +0.000 N 
ATOM      5  C   UNL     1       0.678   9.645  18.255  0.00  0.00    +0.000 A 
ATOM      6  C   UNL     1       0.937  10.401  19.394  0.00  0.00    +0.000 A 
ATOM      7  C   UNL     1      -0.118  11.206  19.824  0.00  0.00    +0.000 A 
ATOM      8  N   UNL     1      -0.234  12.090  20.859  0.00  0.00    +0.000 N 
ATOM      9  N   UNL     1      -1.448  12.652  20.973  0.00  0.00    +0.000 NA
ATOM     10  C   UNL     1      -2.173  12.098  19.985  0.00  0.00    +0.000 A 
ATOM     11  C   UNL     1      -1.354  11.222  19.191  0.00  0.00    +0.000 A 
ATOM     12  C   UNL     1      -1.507  10.451  18.034  0.00  0.00    +0.000 A 
ATOM     13  N   UNL     1      -0.478   9.700  17.559  0.00  0.00    +0.000 NA
ATOM     14  H   UNL     1       3.408   7.379  16.821  0.00  0.00    +0.000 HD
ATOM     15  H   UNL     1       1.340   8.397  16.827  0.00  0.00    +0.000 HD
ATOM     16  H   UNL     1       0.482  12.357  21.526  0.00  0.00    +0.000 HD
ENDROOT
BRANCH  10  17
ATOM     17  C   UNL     1      -3.591  12.416  19.826  0.00  0.00    +0.000 A 
ATOM     18  C   UNL     1      -4.297  12.033  18.690  0.00  0.00    +0.000 A 
ATOM     19  C   UNL     1      -5.651  12.321  18.640  0.00  0.00    +0.000 A 
ATOM     20  N   UNL     1      -6.327  12.951  19.632  0.00  0.00    +0.000 NA
ATOM     21  C   UNL     1      -5.638  13.379  20.706  0.00  0.00    +0.000 A 
ATOM     22  N   UNL     1      -6.304  13.998  21.732  0.00  0.00    +0.000 N 
ATOM     23  C   UNL     1      -7.724  13.745  21.971  0.00  0.00    +0.000 C 
ATOM     24  C   UNL     1      -7.917  13.525  23.495  0.00  0.00    +0.000 C 
ATOM     25  N   UNL     1      -7.375  14.614  24.343  0.00  0.00    +0.000 NA
ATOM     26  C   UNL     1      -5.969  14.891  23.981  0.00  0.00    +0.000 C 
ATOM     27  C   UNL     1      -5.763  15.139  22.469  0.00  0.00    +0.000 C 
ATOM     28  C   UNL     1      -4.272  13.127  20.814  0.00  0.00    +0.000 A 
ATOM     29  H   UNL     1      -7.411  14.320  25.318  0.00  0.00    +0.000 HD
ENDBRANCH  10  17
BRANCH   1  30
ATOM     30  C   UNL     1       3.958   6.020  18.371  0.00  0.00    +0.000 C 
BRANCH  30  31
ATOM     31  C   UNL     1       3.151   4.736  18.539  0.00  0.00    +0.000 A 
ATOM     32  C   UNL     1       3.020   3.858  17.447  0.00  0.00    +0.000 A 
ATOM     33  C   UNL     1       2.205   2.728  17.536  0.00  0.00    +0.000 A 
ATOM     34  C   UNL     1       1.522   2.468  18.717  0.00  0.00    +0.000 A 
ATOM     35  F   UNL     1       0.728   1.393  18.796  0.00  0.00    +0.000 F 
ATOM     36  C   UNL     1       1.644   3.312  19.813  0.00  0.00    +0.000 A 
ATOM     37  C   UNL     1       2.453   4.447  19.725  0.00  0.00    +0.000 A 
ENDBRANCH  30  31
BRANCH  30  38
ATOM     38  C   UNL     1       5.238   5.690  17.570  0.00  0.00    +0.000 C 
BRANCH  38  40
ATOM     39  C   UNL     1       6.817   5.546  19.310  0.00  0.00    +0.000 C 
ATOM     40  O   UNL     1       6.099   4.825  18.316  0.00  0.00    +0.000 OA
ENDBRANCH  38  40
ENDBRANCH  30  38
ENDBRANCH   1  30
TORSDOF 5
ENDMDL
MODEL 3
REMARK VINA RESULT:      -8.5      5.459     11.154
REMARK  Name = 
REMARK  6 active torsions:
REMARK  status: ('A' for Active; 'I' for Inactive)
REMARK    1  A    between atoms: C_1  and  O_2
REMARK    2  A    between atoms: O_2  and  C_3
REMARK    3  A    between atoms: C_3  and  C_4
REMARK    4  A    between atoms: C_4  and  N_5
REMARK    5  A    between atoms: C_4  and  C_30
REMARK    6  A    between atoms: C_14  and  C_15
REMARK                            x       y       z     vdW  Elec       q    Type
REMARK                         _______ _______ _______ _____ _____    ______ ____
ROOT
ATOM      1  N   UNL     1       2.703   7.406  18.109  0.00  0.00    +0.000 N 
ATOM      2  C   UNL     1       2.084   8.251  18.997  0.00  0.00    +0.000 C 
ATOM      3  O   UNL     1       2.218   8.158  20.216  0.00  0.00    +0.000 OA
ATOM      4  N   UNL     1       1.276   9.164  18.361  0.00  0.00    +0.000 N 
ATOM      5  C   UNL     1       0.471  10.071  19.065  0.00  0.00    +0.000 A 
ATOM      6  C   UNL     1       0.955  10.793  20.151  0.00  0.00    +0.000 A 
ATOM      7  C   UNL     1       0.027  11.634  20.766  0.00  0.00    +0.000 A 
ATOM      8  N   UNL     1       0.130  12.501  21.816  0.00  0.00    +0.000 N 
ATOM      9  N   UNL     1      -1.019  13.113  22.143  0.00  0.00    +0.000 NA
ATOM     10  C   UNL     1      -1.928  12.609  21.289  0.00  0.00    +0.000 A 
ATOM     11  C   UNL     1      -1.297  11.714  20.356  0.00  0.00    +0.000 A 
ATOM     12  C   UNL     1      -1.682  10.973  19.234  0.00  0.00    +0.000 A 
ATOM     13  N   UNL     1      -0.784  10.189  18.580  0.00  0.00    +0.000 NA
ATOM     14  H   UNL     1       2.809   7.719  17.156  0.00  0.00    +0.000 HD
ATOM     15  H   UNL     1       0.820   8.823  17.530  0.00  0.00    +0.000 HD
ATOM     16  H   UNL     1       0.961  12.725  22.352  0.00  0.00    +0.000 HD
ENDROOT
BRANCH  10  17
ATOM     17  C   UNL     1      -3.336  12.990  21.380  0.00  0.00    +0.000 A 
ATOM     18  C   UNL     1      -3.894  13.417  22.581  0.00  0.00    +0.000 A 
ATOM     19  C   UNL     1      -5.220  13.816  22.574  0.00  0.00    +0.000 A 
ATOM     20  N   UNL     1      -6.003  13.819  21.468  0.00  0.00    +0.000 NA
ATOM     21  C   UNL     1      -5.488  13.350  20.317  0.00  0.00    +0.000 A 
ATOM     22  N   UNL     1      -6.253  13.364  19.179  0.00  0.00    +0.000 N 
ATOM     23  C   UNL     1      -7.351  14.316  19.020  0.00  0.00    +0.000 C 
ATOM     24  C   UNL     1      -7.252  14.920  17.593  0.00  0.00    +0.000 C 
ATOM     25  N   UNL     1      -7.202  13.913  16.507  0.00  0.00    +0.000 NA
ATOM     26  C   UNL     1      -6.141  12.921  16.780  0.00  0.00    +0.000 C 
ATOM     27  C   UNL     1      -6.239  12.289  18.187  0.00  0.00    +0.000 C 
ATOM     28  C   UNL     1      -4.162  12.925  20.258  0.00  0.00    +0.000 A 
ATOM     29  H   UNL     1      -6.990  14.387  15.629  0.00  0.00    +0.000 HD
ENDBRANCH  10  17
BRANCH   1  30
ATOM     30  C   UNL     1       3.554   6.308  18.571  0.00  0.00    +0.000 C 
BRANCH  30  31
ATOM     31  C   UNL     1       2.775   4.998  18.640  0.00  0.00    +0.000 A 
ATOM     32  C   UNL     1       2.922   4.055  17.606  0.00  0.00    +0.000 A 
ATOM     33  C   UNL     1       2.148   2.894  17.585  0.00  0.00    +0.000 A 
ATOM     34  C   UNL     1       1.228   2.667  18.601  0.00  0.00    +0.000 A 
ATOM     35  F   UNL     1       0.474   1.561  18.572  0.00  0.00    +0.000 F 
ATOM     36  C   UNL     1       1.071   3.576  19.639  0.00  0.00    +0.000 A 
ATOM     37  C   UNL     1       1.840   4.742  19.658  0.00  0.00    +0.000 A 
ENDBRANCH  30  31
BRANCH  30  38
ATOM     38  C   UNL     1       4.794   6.091  17.675  0.00  0.00    +0.000 C 
BRANCH  38  40
ATOM     39  C   UNL     1       5.301   6.103  15.376  0.00  0.00    +0.000 C 
ATOM     40  O   UNL     1       4.663   6.800  16.439  0.00  0.00    +0.000 OA
ENDBRANCH  38  40
ENDBRANCH  30  38
ENDBRANCH   1  30
TORSDOF 5
ENDMDL
MODEL 4
REMARK VINA RESULT:      -8.5      4.496     10.506
REMARK  Name = 
REMARK  6 active torsions:
REMARK  status: ('A' for Active; 'I' for Inactive)
REMARK    1  A    between atoms: C_1  and  O_2
REMARK    2  A    between atoms: O_2  and  C_3
REMARK    3  A    between atoms: C_3  and  C_4
REMARK    4  A    between atoms: C_4  and  N_5
REMARK    5  A    between atoms: C_4  and  C_30
REMARK    6  A    between atoms: C_14  and  C_15
REMARK                            x       y       z     vdW  Elec       q    Type
REMARK                         _______ _______ _______ _____ _____    ______ ____
ROOT
ATOM      1  N   UNL     1       5.158   4.394  16.953  0.00  0.00    +0.000 N 
ATOM      2  C   UNL     1       4.701   5.648  17.276  0.00  0.00    +0.000 C 
ATOM      3  O   UNL     1       5.401   6.656  17.204  0.00  0.00    +0.000 OA
ATOM      4  N   UNL     1       3.402   5.622  17.727  0.00  0.00    +0.000 N 
ATOM      5  C   UNL     1       2.750   6.769  18.202  0.00  0.00    +0.000 A 
ATOM      6  C   UNL     1       2.817   7.984  17.528  0.00  0.00    +0.000 A 
ATOM      7  C   UNL     1       2.141   9.040  18.139  0.00  0.00    +0.000 A 
ATOM      8  N   UNL     1       1.959  10.344  17.777  0.00  0.00    +0.000 N 
ATOM      9  N   UNL     1       1.268  11.075  18.667  0.00  0.00    +0.000 NA
ATOM     10  C   UNL     1       1.005  10.222  19.674  0.00  0.00    +0.000 A 
ATOM     11  C   UNL     1       1.485   8.905  19.355  0.00  0.00    +0.000 A 
ATOM     12  C   UNL     1       1.445   7.635  19.941  0.00  0.00    +0.000 A 
ATOM     13  N   UNL     1       2.047   6.575  19.339  0.00  0.00    +0.000 NA
ATOM     14  H   UNL     1       4.474   3.686  16.732  0.00  0.00    +0.000 HD
ATOM     15  H   UNL     1       3.149   4.801  18.253  0.00  0.00    +0.000 HD
ATOM     16  H   UNL     1       2.278  10.800  16.929  0.00  0.00    +0.000 HD
ENDROOT
BRANCH  10  17
ATOM     17  C   UNL     1       0.315  10.677  20.880  0.00  0.00    +0.000 A 
ATOM     18  C   UNL     1       0.082   9.818  21.949  0.00  0.00    +0.000 A 
ATOM     19  C   UNL     1      -0.526  10.339  23.079  0.00  0.00    +0.000 A 
ATOM     20  N   UNL     1      -0.905  11.634  23.204  0.00  0.00    +0.000 NA
ATOM     21  C   UNL     1      -0.739  12.456  22.151  0.00  0.00    +0.000 A 
ATOM     22  N   UNL     1      -1.094  13.776  22.262  0.00  0.00    +0.000 N 
ATOM     23  C   UNL     1      -1.128  14.441  23.563  0.00  0.00    +0.000 C 
ATOM     24  C   UNL     1      -0.432  15.820  23.409  0.00  0.00    +0.000 C 
ATOM     25  N   UNL     1      -0.979  16.661  22.318  0.00  0.00    +0.000 NA
ATOM     26  C   UNL     1      -1.015  15.897  21.054  0.00  0.00    +0.000 C 
ATOM     27  C   UNL     1      -1.728  14.532  21.182  0.00  0.00    +0.000 C 
ATOM     28  C   UNL     1      -0.140  11.992  20.982  0.00  0.00    +0.000 A 
ATOM     29  H   UNL     1      -0.374  17.473  22.194  0.00  0.00    +0.000 HD
ENDBRANCH  10  17
BRANCH   1  30
ATOM     30  C   UNL     1       6.539   4.176  16.520  0.00  0.00    +0.000 C 
BRANCH  30  31
ATOM     31  C   UNL     1       6.687   4.388  15.017  0.00  0.00    +0.000 A 
ATOM     32  C   UNL     1       5.942   3.585  14.133  0.00  0.00    +0.000 A 
ATOM     33  C   UNL     1       6.130   3.682  12.753  0.00  0.00    +0.000 A 
ATOM     34  C   UNL     1       7.058   4.585  12.251  0.00  0.00    +0.000 A 
ATOM     35  F   UNL     1       7.249   4.666  10.928  0.00  0.00    +0.000 F 
ATOM     36  C   UNL     1       7.798   5.397  13.101  0.00  0.00    +0.000 A 
ATOM     37  C   UNL     1       7.617   5.297  14.482  0.00  0.00    +0.000 A 
ENDBRANCH  30  31
BRANCH  30  38
ATOM     38  C   UNL     1       7.546   5.099  17.243  0.00  0.00    +0.000 C 
BRANCH  38  40
ATOM     39  C   UNL     1       7.920   5.746  19.476  0.00  0.00    +0.000 C 
ATOM     40  O   UNL     1       7.784   4.649  18.580  0.00  0.00    +0.000 OA
ENDBRANCH  38  40
ENDBRANCH  30  38
ENDBRANCH   1  30
TORSDOF 5
ENDMDL
MODEL 5
REMARK VINA RESULT:      -8.5      5.614     11.230
REMARK  Name = 
REMARK  6 active torsions:
REMARK  status: ('A' for Active; 'I' for Inactive)
REMARK    1  A    between atoms: C_1  and  O_2
REMARK    2  A    between atoms: O_2  and  C_3
REMARK    3  A    between atoms: C_3  and  C_4
REMARK    4  A    between atoms: C_4  and  N_5
REMARK    5  A    between atoms: C_4  and  C_30
REMARK    6  A    between atoms: C_14  and  C_15
REMARK                            x       y       z     vdW  Elec       q    Type
REMARK                         _______ _______ _______ _____ _____    ______ ____
ROOT
ATOM      1  N   UNL     1       2.584   7.847  17.776  0.00  0.00    +0.000 N 
ATOM      2  C   UNL     1       1.915   8.600  18.710  0.00  0.00    +0.000 C 
ATOM      3  O   UNL     1       2.056   8.444  19.922  0.00  0.00    +0.000 OA
ATOM      4  N   UNL     1       1.052   9.496  18.126  0.00  0.00    +0.000 N 
ATOM      5  C   UNL     1       0.194  10.310  18.879  0.00  0.00    +0.000 A 
ATOM      6  C   UNL     1       0.634  10.997  20.006  0.00  0.00    +0.000 A 
ATOM      7  C   UNL     1      -0.343  11.743  20.667  0.00  0.00    +0.000 A 
ATOM      8  N   UNL     1      -0.291  12.552  21.765  0.00  0.00    +0.000 N 
ATOM      9  N   UNL     1      -1.476  13.072  22.125  0.00  0.00    +0.000 NA
ATOM     10  C   UNL     1      -2.352  12.564  21.240  0.00  0.00    +0.000 A 
ATOM     11  C   UNL     1      -1.670  11.766  20.259  0.00  0.00    +0.000 A 
ATOM     12  C   UNL     1      -2.009  11.068  19.095  0.00  0.00    +0.000 A 
ATOM     13  N   UNL     1      -1.066  10.380  18.398  0.00  0.00    +0.000 NA
ATOM     14  H   UNL     1       2.669   8.220  16.843  0.00  0.00    +0.000 HD
ATOM     15  H   UNL     1       0.617   9.178  17.275  0.00  0.00    +0.000 HD
ATOM     16  H   UNL     1       0.525  12.795  22.316  0.00  0.00    +0.000 HD
ENDROOT
BRANCH  10  17
ATOM     17  C   UNL     1      -3.781  12.853  21.351  0.00  0.00    +0.000 A 
ATOM     18  C   UNL     1      -4.389  13.041  22.588  0.00  0.00    +0.000 A 
ATOM     19  C   UNL     1      -5.734  13.369  22.606  0.00  0.00    +0.000 A 
ATOM     20  N   UNL     1      -6.491  13.519  21.492  0.00  0.00    +0.000 NA
ATOM     21  C   UNL     1      -5.925  13.280  20.295  0.00  0.00    +0.000 A 
ATOM     22  N   UNL     1      -6.664  13.448  19.152  0.00  0.00    +0.000 N 
ATOM     23  C   UNL     1      -7.809  14.357  19.122  0.00  0.00    +0.000 C 
ATOM     24  C   UNL     1      -7.711  15.199  17.821  0.00  0.00    +0.000 C 
ATOM     25  N   UNL     1      -7.582  14.394  16.582  0.00  0.00    +0.000 NA
ATOM     26  C   UNL     1      -6.474  13.425  16.718  0.00  0.00    +0.000 C 
ATOM     27  C   UNL     1      -6.569  12.560  17.995  0.00  0.00    +0.000 C 
ATOM     28  C   UNL     1      -4.577  12.938  20.208  0.00  0.00    +0.000 A 
ATOM     29  H   UNL     1      -7.376  15.021  15.804  0.00  0.00    +0.000 HD
ENDBRANCH  10  17
BRANCH   1  30
ATOM     30  C   UNL     1       3.500   6.777  18.176  0.00  0.00    +0.000 C 
BRANCH  30  31
ATOM     31  C   UNL     1       2.737   5.549  18.660  0.00  0.00    +0.000 A 
ATOM     32  C   UNL     1       2.856   5.150  20.004  0.00  0.00    +0.000 A 
ATOM     33  C   UNL     1       2.255   3.974  20.454  0.00  0.00    +0.000 A 
ATOM     34  C   UNL     1       1.526   3.194  19.565  0.00  0.00    +0.000 A 
ATOM     35  F   UNL     1       0.962   2.058  19.994  0.00  0.00    +0.000 F 
ATOM     36  C   UNL     1       1.382   3.571  18.236  0.00  0.00    +0.000 A 
ATOM     37  C   UNL     1       1.989   4.744  17.782  0.00  0.00    +0.000 A 
ENDBRANCH  30  31
BRANCH  30  38
ATOM     38  C   UNL     1       4.449   6.343  17.036  0.00  0.00    +0.000 C 
BRANCH  38  40
ATOM     39  C   UNL     1       6.767   6.439  17.440  0.00  0.00    +0.000 C 
ATOM     40  O   UNL     1       5.589   5.650  17.555  0.00  0.00    +0.000 OA
ENDBRANCH  38  40
ENDBRANCH  30  38
ENDBRANCH   1  30
TORSDOF 5
ENDMDL
MODEL 6
REMARK VINA RESULT:      -8.4      4.202     10.910
REMARK  Name = 
REMARK  6 active torsions:
REMARK  status: ('A' for Active; 'I' for Inactive)
REMARK    1  A    between atoms: C_1  and  O_2
REMARK    2  A    between atoms: O_2  and  C_3
REMARK    3  A    between atoms: C_3  and  C_4
REMARK    4  A    between atoms: C_4  and  N_5
REMARK    5  A    between atoms: C_4  and  C_30
REMARK    6  A    between atoms: C_14  and  C_15
REMARK                            x       y       z     vdW  Elec       q    Type
REMARK                         _______ _______ _______ _____ _____    ______ ____
ROOT
ATOM      1  N   UNL     1       2.593   6.314  18.660  0.00  0.00    +0.000 N 
ATOM      2  C   UNL     1       2.184   7.609  18.451  0.00  0.00    +0.000 C 
ATOM      3  O   UNL     1       2.471   8.247  17.440  0.00  0.00    +0.000 OA
ATOM      4  N   UNL     1       1.472   8.102  19.518  0.00  0.00    +0.000 N 
ATOM      5  C   UNL     1       1.030   9.432  19.575  0.00  0.00    +0.000 A 
ATOM      6  C   UNL     1       0.421  10.050  18.487  0.00  0.00    +0.000 A 
ATOM      7  C   UNL     1       0.062  11.383  18.687  0.00  0.00    +0.000 A 
ATOM      8  N   UNL     1      -0.565  12.293  17.885  0.00  0.00    +0.000 N 
ATOM      9  N   UNL     1      -0.698  13.513  18.431  0.00  0.00    +0.000 NA
ATOM     10  C   UNL     1      -0.110  13.411  19.637  0.00  0.00    +0.000 A 
ATOM     11  C   UNL     1       0.331  12.062  19.868  0.00  0.00    +0.000 A 
ATOM     12  C   UNL     1       0.918  11.346  20.916  0.00  0.00    +0.000 A 
ATOM     13  N   UNL     1       1.227  10.030  20.770  0.00  0.00    +0.000 NA
ATOM     14  H   UNL     1       2.079   5.760  19.328  0.00  0.00    +0.000 HD
ATOM     15  H   UNL     1       1.768   7.766  20.421  0.00  0.00    +0.000 HD
ATOM     16  H   UNL     1      -0.933  12.144  16.952  0.00  0.00    +0.000 HD
ENDROOT
BRANCH  10  17
ATOM     17  C   UNL     1       0.006  14.574  20.515  0.00  0.00    +0.000 A 
ATOM     18  C   UNL     1       0.891  15.610  20.232  0.00  0.00    +0.000 A 
ATOM     19  C   UNL     1       0.901  16.704  21.081  0.00  0.00    +0.000 A 
ATOM     20  N   UNL     1       0.099  16.826  22.167  0.00  0.00    +0.000 NA
ATOM     21  C   UNL     1      -0.715  15.801  22.481  0.00  0.00    +0.000 A 
ATOM     22  N   UNL     1      -1.552  15.910  23.562  0.00  0.00    +0.000 N 
ATOM     23  C   UNL     1      -1.991  17.218  24.046  0.00  0.00    +0.000 C 
ATOM     24  C   UNL     1      -3.519  17.136  24.311  0.00  0.00    +0.000 C 
ATOM     25  N   UNL     1      -3.924  16.025  25.205  0.00  0.00    +0.000 NA
ATOM     26  C   UNL     1      -3.362  14.748  24.718  0.00  0.00    +0.000 C 
ATOM     27  C   UNL     1      -1.837  14.803  24.473  0.00  0.00    +0.000 C 
ATOM     28  C   UNL     1      -0.767  14.668  21.672  0.00  0.00    +0.000 A 
ATOM     29  H   UNL     1      -4.942  15.957  25.204  0.00  0.00    +0.000 HD
ENDBRANCH  10  17
BRANCH   1  30
ATOM     30  C   UNL     1       3.429   5.614  17.683  0.00  0.00    +0.000 C 
BRANCH  30  31
ATOM     31  C   UNL     1       4.910   5.885  17.930  0.00  0.00    +0.000 A 
ATOM     32  C   UNL     1       5.544   5.284  19.033  0.00  0.00    +0.000 A 
ATOM     33  C   UNL     1       6.869   5.592  19.346  0.00  0.00    +0.000 A 
ATOM     34  C   UNL     1       7.567   6.496  18.555  0.00  0.00    +0.000 A 
ATOM     35  F   UNL     1       8.834   6.803  18.867  0.00  0.00    +0.000 F 
ATOM     36  C   UNL     1       6.968   7.093  17.455  0.00  0.00    +0.000 A 
ATOM     37  C   UNL     1       5.641   6.793  17.143  0.00  0.00    +0.000 A 
ENDBRANCH  30  31
BRANCH  30  38
ATOM     38  C   UNL     1       3.206   4.085  17.688  0.00  0.00    +0.000 C 
BRANCH  38  40
ATOM     39  C   UNL     1       1.250   2.971  18.381  0.00  0.00    +0.000 C 
ATOM     40  O   UNL     1       1.850   3.765  17.363  0.00  0.00    +0.000 OA
ENDBRANCH  38  40
ENDBRANCH  30  38
ENDBRANCH   1  30
TORSDOF 5
ENDMDL
MODEL 7
REMARK VINA RESULT:      -8.4      4.389     10.849
REMARK  Name = 
REMARK  6 active torsions:
REMARK  status: ('A' for Active; 'I' for Inactive)
REMARK    1  A    between atoms: C_1  and  O_2
REMARK    2  A    between atoms: O_2  and  C_3
REMARK    3  A    between atoms: C_3  and  C_4
REMARK    4  A    between atoms: C_4  and  N_5
REMARK    5  A    between atoms: C_4  and  C_30
REMARK    6  A    between atoms: C_14  and  C_15
REMARK                            x       y       z     vdW  Elec       q    Type
REMARK                         _______ _______ _______ _____ _____    ______ ____
ROOT
ATOM      1  N   UNL     1       2.941   5.933  18.287  0.00  0.00    +0.000 N 
ATOM      2  C   UNL     1       2.573   7.256  18.274  0.00  0.00    +0.000 C 
ATOM      3  O   UNL     1       3.025   8.070  17.471  0.00  0.00    +0.000 OA
ATOM      4  N   UNL     1       1.689   7.553  19.284  0.00  0.00    +0.000 N 
ATOM      5  C   UNL     1       1.241   8.860  19.528  0.00  0.00    +0.000 A 
ATOM      6  C   UNL     1       0.825   9.698  18.498  0.00  0.00    +0.000 A 
ATOM      7  C   UNL     1       0.435  10.977  18.895  0.00  0.00    +0.000 A 
ATOM      8  N   UNL     1      -0.049  12.046  18.196  0.00  0.00    +0.000 N 
ATOM      9  N   UNL     1      -0.275  13.139  18.943  0.00  0.00    +0.000 NA
ATOM     10  C   UNL     1       0.101  12.785  20.185  0.00  0.00    +0.000 A 
ATOM     11  C   UNL     1       0.498  11.404  20.215  0.00  0.00    +0.000 A 
ATOM     12  C   UNL     1       0.900  10.478  21.184  0.00  0.00    +0.000 A 
ATOM     13  N   UNL     1       1.231   9.207  20.834  0.00  0.00    +0.000 NA
ATOM     14  H   UNL     1       2.323   5.276  18.738  0.00  0.00    +0.000 HD
ATOM     15  H   UNL     1       1.828   7.039  20.138  0.00  0.00    +0.000 HD
ATOM     16  H   UNL     1      -0.252  12.094  17.204  0.00  0.00    +0.000 HD
ENDROOT
BRANCH  10  17
ATOM     17  C   UNL     1       0.064  13.750  21.283  0.00  0.00    +0.000 A 
ATOM     18  C   UNL     1       1.159  14.558  21.574  0.00  0.00    +0.000 A 
ATOM     19  C   UNL     1       1.026  15.487  22.592  0.00  0.00    +0.000 A 
ATOM     20  N   UNL     1      -0.106  15.658  23.318  0.00  0.00    +0.000 NA
ATOM     21  C   UNL     1      -1.148  14.839  23.082  0.00  0.00    +0.000 A 
ATOM     22  N   UNL     1      -2.311  15.006  23.788  0.00  0.00    +0.000 N 
ATOM     23  C   UNL     1      -2.665  16.303  24.362  0.00  0.00    +0.000 C 
ATOM     24  C   UNL     1      -4.159  16.574  24.038  0.00  0.00    +0.000 C 
ATOM     25  N   UNL     1      -5.080  15.490  24.456  0.00  0.00    +0.000 NA
ATOM     26  C   UNL     1      -4.609  14.191  23.930  0.00  0.00    +0.000 C 
ATOM     27  C   UNL     1      -3.131  13.893  24.265  0.00  0.00    +0.000 C 
ATOM     28  C   UNL     1      -1.076  13.876  22.077  0.00  0.00    +0.000 A 
ATOM     29  H   UNL     1      -6.006  15.682  24.076  0.00  0.00    +0.000 HD
ENDBRANCH  10  17
BRANCH   1  30
ATOM     30  C   UNL     1       3.933   5.411  17.345  0.00  0.00    +0.000 C 
BRANCH  30  31
ATOM     31  C   UNL     1       5.347   5.814  17.751  0.00  0.00    +0.000 A 
ATOM     32  C   UNL     1       5.921   5.243  18.901  0.00  0.00    +0.000 A 
ATOM     33  C   UNL     1       7.170   5.666  19.358  0.00  0.00    +0.000 A 
ATOM     34  C   UNL     1       7.853   6.657  18.665  0.00  0.00    +0.000 A 
ATOM     35  F   UNL     1       9.045   7.073  19.113  0.00  0.00    +0.000 F 
ATOM     36  C   UNL     1       7.314   7.229  17.520  0.00  0.00    +0.000 A 
ATOM     37  C   UNL     1       6.061   6.813  17.065  0.00  0.00    +0.000 A 
ENDBRANCH  30  31
BRANCH  30  38
ATOM     38  C   UNL     1       3.884   3.872  17.214  0.00  0.00    +0.000 C 
BRANCH  38  40
ATOM     39  C   UNL     1       3.088   2.183  18.648  0.00  0.00    +0.000 C 
ATOM     40  O   UNL     1       2.743   3.337  17.891  0.00  0.00    +0.000 OA
ENDBRANCH  38  40
ENDBRANCH  30  38
ENDBRANCH   1  30
TORSDOF 5
ENDMDL
MODEL 8
REMARK VINA RESULT:      -8.4      1.947      2.623
REMARK  Name = 
REMARK  6 active torsions:
REMARK  status: ('A' for Active; 'I' for Inactive)
REMARK    1  A    between atoms: C_1  and  O_2
REMARK    2  A    between atoms: O_2  and  C_3
REMARK    3  A    between atoms: C_3  and  C_4
REMARK    4  A    between atoms: C_4  and  N_5
REMARK    5  A    between atoms: C_4  and  C_30
REMARK    6  A    between atoms: C_14  and  C_15
REMARK                            x       y       z     vdW  Elec       q    Type
REMARK                         _______ _______ _______ _____ _____    ______ ____
ROOT
ATOM      1  N   UNL     1       0.618  13.368  19.591  0.00  0.00    +0.000 N 
ATOM      2  C   UNL     1       1.066  12.124  19.962  0.00  0.00    +0.000 C 
ATOM      3  O   UNL     1       1.859  11.945  20.885  0.00  0.00    +0.000 OA
ATOM      4  N   UNL     1       0.562  11.133  19.154  0.00  0.00    +0.000 N 
ATOM      5  C   UNL     1       0.950   9.791  19.282  0.00  0.00    +0.000 A 
ATOM      6  C   UNL     1       1.031   9.165  20.522  0.00  0.00    +0.000 A 
ATOM      7  C   UNL     1       1.459   7.837  20.489  0.00  0.00    +0.000 A 
ATOM      8  N   UNL     1       1.633   6.906  21.473  0.00  0.00    +0.000 N 
ATOM      9  N   UNL     1       2.107   5.727  21.041  0.00  0.00    +0.000 NA
ATOM     10  C   UNL     1       2.279   5.895  19.717  0.00  0.00    +0.000 A 
ATOM     11  C   UNL     1       1.821   7.196  19.312  0.00  0.00    +0.000 A 
ATOM     12  C   UNL     1       1.675   7.899  18.112  0.00  0.00    +0.000 A 
ATOM     13  N   UNL     1       1.207   9.175  18.107  0.00  0.00    +0.000 NA
ATOM     14  H   UNL     1      -0.240  13.421  19.063  0.00  0.00    +0.000 HD
ATOM     15  H   UNL     1       0.428  11.395  18.191  0.00  0.00    +0.000 HD
ATOM     16  H   UNL     1       1.441   7.011  22.463  0.00  0.00    +0.000 HD
ENDROOT
BRANCH  10  17
ATOM     17  C   UNL     1       2.854   4.831  18.895  0.00  0.00    +0.000 A 
ATOM     18  C   UNL     1       2.218   3.602  18.751  0.00  0.00    +0.000 A 
ATOM     19  C   UNL     1       2.797   2.667  17.910  0.00  0.00    +0.000 A 
ATOM     20  N   UNL     1       3.943   2.879  17.218  0.00  0.00    +0.000 NA
ATOM     21  C   UNL     1       4.596   4.042  17.400  0.00  0.00    +0.000 A 
ATOM     22  N   UNL     1       5.745   4.289  16.694  0.00  0.00    +0.000 N 
ATOM     23  C   UNL     1       5.997   3.635  15.411  0.00  0.00    +0.000 C 
ATOM     24  C   UNL     1       6.511   4.715  14.421  0.00  0.00    +0.000 C 
ATOM     25  N   UNL     1       7.677   5.488  14.912  0.00  0.00    +0.000 NA
ATOM     26  C   UNL     1       7.396   6.035  16.256  0.00  0.00    +0.000 C 
ATOM     27  C   UNL     1       6.909   4.969  17.263  0.00  0.00    +0.000 C 
ATOM     28  C   UNL     1       4.070   5.022  18.240  0.00  0.00    +0.000 A 
ATOM     29  H   UNL     1       7.850   6.262  14.272  0.00  0.00    +0.000 HD
ENDBRANCH  10  17
BRANCH   1  30
ATOM     30  C   UNL     1       1.086  14.578  20.268  0.00  0.00    +0.000 C 
BRANCH  30  31
ATOM     31  C   UNL     1       1.321  15.711  19.275  0.00  0.00    +0.000 A 
ATOM     32  C   UNL     1       0.298  16.650  19.047  0.00  0.00    +0.000 A 
ATOM     33  C   UNL     1       0.441  17.637  18.070  0.00  0.00    +0.000 A 
ATOM     34  C   UNL     1       1.610  17.693  17.322  0.00  0.00    +0.000 A 
ATOM     35  F   UNL     1       1.740  18.631  16.374  0.00  0.00    +0.000 F 
ATOM     36  C   UNL     1       2.640  16.787  17.534  0.00  0.00    +0.000 A 
ATOM     37  C   UNL     1       2.496  15.794  18.506  0.00  0.00    +0.000 A 
ENDBRANCH  30  31
BRANCH  30  38
ATOM     38  C   UNL     1       0.104  15.076  21.353  0.00  0.00    +0.000 C 
BRANCH  38  40
ATOM     39  C   UNL     1      -1.212  13.744  22.780  0.00  0.00    +0.000 C 
ATOM     40  O   UNL     1      -1.033  14.214  21.448  0.00  0.00    +0.000 OA
ENDBRANCH  38  40
ENDBRANCH  30  38
ENDBRANCH   1  30
TORSDOF 5
ENDMDL
MODEL 9
REMARK VINA RESULT:      -8.3      5.661     11.911
REMARK  Name = 
REMARK  6 active torsions:
REMARK  status: ('A' for Active; 'I' for Inactive)
REMARK    1  A    between atoms: C_1  and  O_2
REMARK    2  A    between atoms: O_2  and  C_3
REMARK    3  A    between atoms: C_3  and  C_4
REMARK    4  A    between atoms: C_4  and  N_5
REMARK    5  A    between atoms: C_4  and  C_30
REMARK    6  A    between atoms: C_14  and  C_15
REMARK                            x       y       z     vdW  Elec       q    Type
REMARK                         _______ _______ _______ _____ _____    ______ ____
ROOT
ATOM      1  N   UNL     1       2.665   7.578  18.348  0.00  0.00    +0.000 N 
ATOM      2  C   UNL     1       1.831   8.363  19.106  0.00  0.00    +0.000 C 
ATOM      3  O   UNL     1       1.622   8.161  20.301  0.00  0.00    +0.000 OA
ATOM      4  N   UNL     1       1.235   9.351  18.358  0.00  0.00    +0.000 N 
ATOM      5  C   UNL     1       0.272  10.220  18.894  0.00  0.00    +0.000 A 
ATOM      6  C   UNL     1       0.443  10.831  20.132  0.00  0.00    +0.000 A 
ATOM      7  C   UNL     1      -0.613  11.644  20.543  0.00  0.00    +0.000 A 
ATOM      8  N   UNL     1      -0.798  12.415  21.656  0.00  0.00    +0.000 N 
ATOM      9  N   UNL     1      -1.989  13.031  21.710  0.00  0.00    +0.000 NA
ATOM     10  C   UNL     1      -2.630  12.631  20.597  0.00  0.00    +0.000 A 
ATOM     11  C   UNL     1      -1.773  11.801  19.795  0.00  0.00    +0.000 A 
ATOM     12  C   UNL     1      -1.838  11.171  18.548  0.00  0.00    +0.000 A 
ATOM     13  N   UNL     1      -0.799  10.418  18.096  0.00  0.00    +0.000 NA
ATOM     14  H   UNL     1       3.031   7.969  17.493  0.00  0.00    +0.000 HD
ATOM     15  H   UNL     1       1.024   9.098  17.407  0.00  0.00    +0.000 HD
ATOM     16  H   UNL     1      -0.145  12.566  22.417  0.00  0.00    +0.000 HD
ENDROOT
BRANCH  10  17
ATOM     17  C   UNL     1      -4.007  13.047  20.334  0.00  0.00    +0.000 A 
ATOM     18  C   UNL     1      -4.844  12.301  19.511  0.00  0.00    +0.000 A 
ATOM     19  C   UNL     1      -6.152  12.730  19.357  0.00  0.00    +0.000 A 
ATOM     20  N   UNL     1      -6.663  13.830  19.962  0.00  0.00    +0.000 NA
ATOM     21  C   UNL     1      -5.842  14.590  20.711  0.00  0.00    +0.000 A 
ATOM     22  N   UNL     1      -6.341  15.695  21.351  0.00  0.00    +0.000 N 
ATOM     23  C   UNL     1      -7.757  15.786  21.703  0.00  0.00    +0.000 C 
ATOM     24  C   UNL     1      -7.851  16.306  23.163  0.00  0.00    +0.000 C 
ATOM     25  N   UNL     1      -7.114  17.568  23.409  0.00  0.00    +0.000 NA
ATOM     26  C   UNL     1      -5.719  17.444  22.937  0.00  0.00    +0.000 C 
ATOM     27  C   UNL     1      -5.607  16.953  21.476  0.00  0.00    +0.000 C 
ATOM     28  C   UNL     1      -4.512  14.217  20.899  0.00  0.00    +0.000 A 
ATOM     29  H   UNL     1      -7.106  17.753  24.412  0.00  0.00    +0.000 HD
ENDBRANCH  10  17
BRANCH   1  30
ATOM     30  C   UNL     1       3.348   6.418  18.924  0.00  0.00    +0.000 C 
BRANCH  30  31
ATOM     31  C   UNL     1       2.475   5.170  18.847  0.00  0.00    +0.000 A 
ATOM     32  C   UNL     1       1.777   4.747  19.993  0.00  0.00    +0.000 A 
ATOM     33  C   UNL     1       1.053   3.553  19.985  0.00  0.00    +0.000 A 
ATOM     34  C   UNL     1       1.019   2.781  18.831  0.00  0.00    +0.000 A 
ATOM     35  F   UNL     1       0.337   1.628  18.830  0.00  0.00    +0.000 F 
ATOM     36  C   UNL     1       1.690   3.181  17.683  0.00  0.00    +0.000 A 
ATOM     37  C   UNL     1       2.421   4.371  17.690  0.00  0.00    +0.000 A 
ENDBRANCH  30  31
BRANCH  30  38
ATOM     38  C   UNL     1       4.697   6.113  18.234  0.00  0.00    +0.000 C 
BRANCH  38  40
ATOM     39  C   UNL     1       5.272   6.130  15.951  0.00  0.00    +0.000 C 
ATOM     40  O   UNL     1       4.867   6.919  17.064  0.00  0.00    +0.000 OA
ENDBRANCH  38  40
ENDBRANCH  30  38
ENDBRANCH   1  30
TORSDOF 5
ENDMDL
