MODEL 1
REMARK VINA RESULT:      -8.7      0.000      0.000
REMARK  Name = 
REMARK  9 active torsions:
REMARK  status: ('A' for Active; 'I' for Inactive)
REMARK    1  A    between atoms: C_1  and  O_2
REMARK    2  A    between atoms: O_2  and  C_3
REMARK    3  A    between atoms: C_6  and  C_7
REMARK    4  A    between atoms: C_9  and  C_10
REMARK    5  A    between atoms: C_10  and  C_11
REMARK    6  A    between atoms: C_15  and  C_16
REMARK    7  A    between atoms: C_17  and  O_18
REMARK    8  A    between atoms: C_19  and  C_20
REMARK    9  A    between atoms: C_21  and  C_22
REMARK                            x       y       z     vdW  Elec       q    Type
REMARK                         _______ _______ _______ _____ _____    ______ ____
ROOT
ATOM      1  C   UNL     1       6.233   5.052  17.629  0.00  0.00    +0.000 C 
ATOM      2  C   UNL     1       7.168   4.274  16.665  0.00  0.00    +0.000 C 
ATOM      3  C   UNL     1       5.006   5.579  16.838  0.00  0.00    +0.000 C 
ATOM      4  C   UNL     1       4.082   4.443  16.585  0.00  0.00    +0.000 C 
ATOM      5  C   UNL     1       3.604   4.127  17.960  0.00  0.00    +0.000 A 
ATOM      6  C   UNL     1       2.290   4.328  18.386  0.00  0.00    +0.000 A 
ATOM      7  C   UNL     1       1.320   5.172  17.602  0.00  0.00    +0.000 C 
ATOM      8  C   UNL     1       1.919   3.809  19.631  0.00  0.00    +0.000 A 
ATOM      9  C   UNL     1       2.791   2.992  20.382  0.00  0.00    +0.000 A 
ATOM     10  C   UNL     1       2.236   2.227  21.546  0.00  0.00    +0.000 C 
ATOM     11  C   UNL     1       4.151   2.929  19.984  0.00  0.00    +0.000 A 
ATOM     12  C   UNL     1       5.066   1.896  20.596  0.00  0.00    +0.000 C 
ATOM     13  C   UNL     1       4.575   3.689  18.865  0.00  0.00    +0.000 A 
ATOM     14  O   UNL     1       5.898   4.083  18.709  0.00  0.00    +0.000 OA
ENDROOT
BRANCH   1  17
ATOM     15  C   UNL     1       7.973   8.301  18.231  0.00  0.00    +0.000 A 
ATOM     16  C   UNL     1       6.913   7.676  17.598  0.00  0.00    +0.000 A 
ATOM     17  C   UNL     1       6.953   6.334  18.063  0.00  0.00    +0.000 A 
ATOM     18  N   UNL     1       7.964   6.188  18.941  0.00  0.00    +0.000 NA
ATOM     19  O   UNL     1       8.595   7.391  19.023  0.00  0.00    +0.000 OA
BRANCH  15  23
ATOM     20  C   UNL     1       9.456  12.297  18.635  0.00  0.00    +0.000 A 
ATOM     21  C   UNL     1       8.545  11.978  17.628  0.00  0.00    +0.000 A 
ATOM     22  C   UNL     1       8.097  10.662  17.453  0.00  0.00    +0.000 A 
ATOM     23  C   UNL     1       8.559   9.641  18.287  0.00  0.00    +0.000 A 
ATOM     24  C   UNL     1       9.550   9.962  19.235  0.00  0.00    +0.000 A 
ATOM     25  C   UNL     1       9.996  11.274  19.406  0.00  0.00    +0.000 A 
BRANCH  20  27
ATOM     26  C   UNL     1      10.717  14.103  17.806  0.00  0.00    +0.000 C 
ATOM     27  O   UNL     1       9.775  13.621  18.763  0.00  0.00    +0.000 OA
ENDBRANCH  20  27
ENDBRANCH  15  23
ENDBRANCH   1  17
BRANCH   8  28
ATOM     28  O   UNL     1       0.666   4.056  20.132  0.00  0.00    +0.000 OA
ATOM     29  H   UNL     1       0.086   3.340  19.823  0.00  0.00    +0.000 HD
ENDBRANCH   8  28
TORSDOF 4
ENDMDL
MODEL 2
REMARK VINA RESULT:      -8.1      6.390      9.863
REMARK  Name = 
REMARK  9 active torsions:
REMARK  status: ('A' for Active; 'I' for Inactive)
REMARK    1  A    between atoms: C_1  and  O_2
REMARK    2  A    between atoms: O_2  and  C_3
REMARK    3  A    between atoms: C_6  and  C_7
REMARK    4  A    between atoms: C_9  and  C_10
REMARK    5  A    between atoms: C_10  and  C_11
REMARK    6  A    between atoms: C_15  and  C_16
REMARK    7  A    between atoms: C_17  and  O_18
REMARK    8  A    between atoms: C_19  and  C_20
REMARK    9  A    between atoms: C_21  and  C_22
REMARK                            x       y       z     vdW  Elec       q    Type
REMARK                         _______ _______ _______ _____ _____    ______ ____
ROOT
ATOM      1  C   UNL     1       0.663  10.962  19.036  0.00  0.00    +0.000 C 
ATOM      2  C   UNL     1       1.817  11.700  18.307  0.00  0.00    +0.000 C 
ATOM      3  C   UNL     1       0.307  11.728  20.338  0.00  0.00    +0.000 C 
ATOM      4  C   UNL     1      -0.469  12.942  19.976  0.00  0.00    +0.000 C 
ATOM      5  C   UNL     1      -1.738  12.352  19.464  0.00  0.00    +0.000 A 
ATOM      6  C   UNL     1      -2.967  12.482  20.112  0.00  0.00    +0.000 A 
ATOM      7  C   UNL     1      -3.068  12.955  21.538  0.00  0.00    +0.000 C 
ATOM      8  C   UNL     1      -4.113  12.056  19.432  0.00  0.00    +0.000 A 
ATOM      9  C   UNL     1      -4.062  11.632  18.087  0.00  0.00    +0.000 A 
ATOM     10  C   UNL     1      -5.348  11.480  17.331  0.00  0.00    +0.000 C 
ATOM     11  C   UNL     1      -2.787  11.384  17.517  0.00  0.00    +0.000 A 
ATOM     12  C   UNL     1      -2.660  11.164  16.028  0.00  0.00    +0.000 C 
ATOM     13  C   UNL     1      -1.630  11.561  18.316  0.00  0.00    +0.000 A 
ATOM     14  O   UNL     1      -0.443  10.895  18.040  0.00  0.00    +0.000 OA
ENDROOT
BRANCH   1  17
ATOM     15  C   UNL     1       1.865   7.522  19.855  0.00  0.00    +0.000 A 
ATOM     16  C   UNL     1       1.877   8.541  18.919  0.00  0.00    +0.000 A 
ATOM     17  C   UNL     1       1.200   9.621  19.548  0.00  0.00    +0.000 A 
ATOM     18  N   UNL     1       0.837   9.264  20.794  0.00  0.00    +0.000 NA
ATOM     19  O   UNL     1       1.229   7.972  20.967  0.00  0.00    +0.000 OA
BRANCH  15  23
ATOM     20  C   UNL     1       3.166   3.444  19.876  0.00  0.00    +0.000 A 
ATOM     21  C   UNL     1       2.016   3.825  20.569  0.00  0.00    +0.000 A 
ATOM     22  C   UNL     1       1.614   5.165  20.614  0.00  0.00    +0.000 A 
ATOM     23  C   UNL     1       2.362   6.150  19.965  0.00  0.00    +0.000 A 
ATOM     24  C   UNL     1       3.570   5.763  19.352  0.00  0.00    +0.000 A 
ATOM     25  C   UNL     1       3.969   4.427  19.311  0.00  0.00    +0.000 A 
BRANCH  20  27
ATOM     26  C   UNL     1       3.548   1.554  18.526  0.00  0.00    +0.000 C 
ATOM     27  O   UNL     1       3.430   2.102  19.838  0.00  0.00    +0.000 OA
ENDBRANCH  20  27
ENDBRANCH  15  23
ENDBRANCH   1  17
BRANCH   8  28
ATOM     28  O   UNL     1      -5.332  12.081  20.060  0.00  0.00    +0.000 OA
ATOM     29  H   UNL     1      -5.271  12.728  20.783  0.00  0.00    +0.000 HD
ENDBRANCH   8  28
TORSDOF 4
ENDMDL
MODEL 3
REMARK VINA RESULT:      -7.9      7.555     10.376
REMARK  Name = 
REMARK  9 active torsions:
REMARK  status: ('A' for Active; 'I' for Inactive)
REMARK    1  A    between atoms: C_1  and  O_2
REMARK    2  A    between atoms: O_2  and  C_3
REMARK    3  A    between atoms: C_6  and  C_7
REMARK    4  A    between atoms: C_9  and  C_10
REMARK    5  A    between atoms: C_10  and  C_11
REMARK    6  A    between atoms: C_15  and  C_16
REMARK    7  A    between atoms: C_17  and  O_18
REMARK    8  A    between atoms: C_19  and  C_20
REMARK    9  A    between atoms: C_21  and  C_22
REMARK                            x       y       z     vdW  Elec       q    Type
REMARK                         _______ _______ _______ _____ _____    ______ ____
ROOT
ATOM      1  C   UNL     1      -0.973  12.192  19.212  0.00  0.00    +0.000 C 
ATOM      2  C   UNL     1      -0.239  13.227  18.319  0.00  0.00    +0.000 C 
ATOM      3  C   UNL     1      -1.128  12.769  20.644  0.00  0.00    +0.000 C 
ATOM      4  C   UNL     1      -2.214  13.784  20.632  0.00  0.00    +0.000 C 
ATOM      5  C   UNL     1      -3.416  12.941  20.375  0.00  0.00    +0.000 A 
ATOM      6  C   UNL     1      -4.428  12.735  21.313  0.00  0.00    +0.000 A 
ATOM      7  C   UNL     1      -4.248  13.080  22.768  0.00  0.00    +0.000 C 
ATOM      8  C   UNL     1      -5.594  12.091  20.886  0.00  0.00    +0.000 A 
ATOM      9  C   UNL     1      -5.812  11.776  19.527  0.00  0.00    +0.000 A 
ATOM     10  C   UNL     1      -7.188  11.369  19.093  0.00  0.00    +0.000 C 
ATOM     11  C   UNL     1      -4.710  11.874  18.639  0.00  0.00    +0.000 A 
ATOM     12  C   UNL     1      -4.937  11.784  17.148  0.00  0.00    +0.000 C 
ATOM     13  C   UNL     1      -3.448  12.272  19.149  0.00  0.00    +0.000 A 
ATOM     14  O   UNL     1      -2.262  11.926  18.514  0.00  0.00    +0.000 OA
ENDROOT
BRANCH   1  17
ATOM     15  C   UNL     1       1.228   9.176  19.235  0.00  0.00    +0.000 A 
ATOM     16  C   UNL     1       0.914  10.352  18.578  0.00  0.00    +0.000 A 
ATOM     17  C   UNL     1      -0.046  10.988  19.411  0.00  0.00    +0.000 A 
ATOM     18  N   UNL     1      -0.261  10.239  20.509  0.00  0.00    +0.000 NA
ATOM     19  O   UNL     1       0.507   9.122  20.384  0.00  0.00    +0.000 OA
BRANCH  15  23
ATOM     20  C   UNL     1       3.580   5.680  18.477  0.00  0.00    +0.000 A 
ATOM     21  C   UNL     1       2.894   5.825  19.684  0.00  0.00    +0.000 A 
ATOM     22  C   UNL     1       2.168   6.989  19.963  0.00  0.00    +0.000 A 
ATOM     23  C   UNL     1       2.119   8.032  19.035  0.00  0.00    +0.000 A 
ATOM     24  C   UNL     1       2.895   7.910  17.865  0.00  0.00    +0.000 A 
ATOM     25  C   UNL     1       3.619   6.750  17.590  0.00  0.00    +0.000 A 
BRANCH  20  27
ATOM     26  C   UNL     1       4.558   4.208  16.922  0.00  0.00    +0.000 C 
ATOM     27  O   UNL     1       4.200   4.478  18.277  0.00  0.00    +0.000 OA
ENDBRANCH  20  27
ENDBRANCH  15  23
ENDBRANCH   1  17
BRANCH   8  28
ATOM     28  O   UNL     1      -6.581  11.786  21.790  0.00  0.00    +0.000 OA
ATOM     29  H   UNL     1      -6.198  11.170  22.437  0.00  0.00    +0.000 HD
ENDBRANCH   8  28
TORSDOF 4
ENDMDL
MODEL 4
REMARK VINA RESULT:      -7.8      7.445     10.244
REMARK  Name = 
REMARK  9 active torsions:
REMARK  status: ('A' for Active; 'I' for Inactive)
REMARK    1  A    between atoms: C_1  and  O_2
REMARK    2  A    between atoms: O_2  and  C_3
REMARK    3  A    between atoms: C_6  and  C_7
REMARK    4  A    between atoms: C_9  and  C_10
REMARK    5  A    between atoms: C_10  and  C_11
REMARK    6  A    between atoms: C_15  and  C_16
REMARK    7  A    between atoms: C_17  and  O_18
REMARK    8  A    between atoms: C_19  and  C_20
REMARK    9  A    between atoms: C_21  and  C_22
REMARK                            x       y       z     vdW  Elec       q    Type
REMARK                         _______ _______ _______ _____ _____    ______ ____
ROOT
ATOM      1  C   UNL     1      -0.883  12.177  19.105  0.00  0.00    +0.000 C 
ATOM      2  C   UNL     1      -0.145  13.250  18.262  0.00  0.00    +0.000 C 
ATOM      3  C   UNL     1      -1.080  12.706  20.551  0.00  0.00    +0.000 C 
ATOM      4  C   UNL     1      -2.181  13.704  20.544  0.00  0.00    +0.000 C 
ATOM      5  C   UNL     1      -3.363  12.852  20.234  0.00  0.00    +0.000 A 
ATOM      6  C   UNL     1      -4.394  12.601  21.141  0.00  0.00    +0.000 A 
ATOM      7  C   UNL     1      -4.252  12.904  22.609  0.00  0.00    +0.000 C 
ATOM      8  C   UNL     1      -5.539  11.953  20.667  0.00  0.00    +0.000 A 
ATOM      9  C   UNL     1      -5.720  11.677  19.295  0.00  0.00    +0.000 A 
ATOM     10  C   UNL     1      -7.080  11.263  18.817  0.00  0.00    +0.000 C 
ATOM     11  C   UNL     1      -4.600  11.819  18.436  0.00  0.00    +0.000 A 
ATOM     12  C   UNL     1      -4.791  11.772  16.939  0.00  0.00    +0.000 C 
ATOM     13  C   UNL     1      -3.357  12.220  18.987  0.00  0.00    +0.000 A 
ATOM     14  O   UNL     1      -2.152  11.912  18.370  0.00  0.00    +0.000 OA
ENDROOT
BRANCH   1  17
ATOM     15  C   UNL     1       1.270   9.126  19.124  0.00  0.00    +0.000 A 
ATOM     16  C   UNL     1       0.847  10.218  18.387  0.00  0.00    +0.000 A 
ATOM     17  C   UNL     1       0.058  10.982  19.289  0.00  0.00    +0.000 A 
ATOM     18  N   UNL     1       0.043  10.384  20.496  0.00  0.00    +0.000 NA
ATOM     19  O   UNL     1       0.770   9.238  20.381  0.00  0.00    +0.000 OA
BRANCH  15  23
ATOM     20  C   UNL     1       3.953   5.817  18.701  0.00  0.00    +0.000 A 
ATOM     21  C   UNL     1       3.849   6.778  17.695  0.00  0.00    +0.000 A 
ATOM     22  C   UNL     1       2.934   7.833  17.799  0.00  0.00    +0.000 A 
ATOM     23  C   UNL     1       2.103   7.941  18.918  0.00  0.00    +0.000 A 
ATOM     24  C   UNL     1       2.153   6.910  19.877  0.00  0.00    +0.000 A 
ATOM     25  C   UNL     1       3.065   5.859  19.769  0.00  0.00    +0.000 A 
BRANCH  20  27
ATOM     26  C   UNL     1       4.617   3.592  19.087  0.00  0.00    +0.000 C 
ATOM     27  O   UNL     1       4.925   4.870  18.531  0.00  0.00    +0.000 OA
ENDBRANCH  20  27
ENDBRANCH  15  23
ENDBRANCH   1  17
BRANCH   8  28
ATOM     28  O   UNL     1      -6.541  11.605  21.538  0.00  0.00    +0.000 OA
ATOM     29  H   UNL     1      -6.149  11.023  22.210  0.00  0.00    +0.000 HD
ENDBRANCH   8  28
TORSDOF 4
ENDMDL
MODEL 5
REMARK VINA RESULT:      -7.7      6.950      9.785
REMARK  Name = 
REMARK  9 active torsions:
REMARK  status: ('A' for Active; 'I' for Inactive)
REMARK    1  A    between atoms: C_1  and  O_2
REMARK    2  A    between atoms: O_2  and  C_3
REMARK    3  A    between atoms: C_6  and  C_7
REMARK    4  A    between atoms: C_9  and  C_10
REMARK    5  A    between atoms: C_10  and  C_11
REMARK    6  A    between atoms: C_15  and  C_16
REMARK    7  A    between atoms: C_17  and  O_18
REMARK    8  A    between atoms: C_19  and  C_20
REMARK    9  A    between atoms: C_21  and  C_22
REMARK                            x       y       z     vdW  Elec       q    Type
REMARK                         _______ _______ _______ _____ _____    ______ ____
ROOT
ATOM      1  C   UNL     1      -0.319  11.110  18.990  0.00  0.00    +0.000 C 
ATOM      2  C   UNL     1      -1.445  10.765  17.980  0.00  0.00    +0.000 C 
ATOM      3  C   UNL     1       0.498  12.316  18.454  0.00  0.00    +0.000 C 
ATOM      4  C   UNL     1      -0.297  13.555  18.655  0.00  0.00    +0.000 C 
ATOM      5  C   UNL     1      -0.309  13.671  20.141  0.00  0.00    +0.000 A 
ATOM      6  C   UNL     1       0.345  14.685  20.842  0.00  0.00    +0.000 A 
ATOM      7  C   UNL     1       1.378  15.564  20.189  0.00  0.00    +0.000 C 
ATOM      8  C   UNL     1       0.094  14.799  22.213  0.00  0.00    +0.000 A 
ATOM      9  C   UNL     1      -0.886  14.011  22.855  0.00  0.00    +0.000 A 
ATOM     10  C   UNL     1      -1.317  14.387  24.242  0.00  0.00    +0.000 C 
ATOM     11  C   UNL     1      -1.422  12.907  22.143  0.00  0.00    +0.000 A 
ATOM     12  C   UNL     1      -2.633  12.183  22.681  0.00  0.00    +0.000 C 
ATOM     13  C   UNL     1      -0.950  12.640  20.834  0.00  0.00    +0.000 A 
ATOM     14  O   UNL     1      -1.021  11.368  20.278  0.00  0.00    +0.000 OA
ENDROOT
BRANCH   1  17
ATOM     15  C   UNL     1       1.954   8.177  18.572  0.00  0.00    +0.000 A 
ATOM     16  C   UNL     1       1.369   9.264  17.947  0.00  0.00    +0.000 A 
ATOM     17  C   UNL     1       0.696   9.962  18.986  0.00  0.00    +0.000 A 
ATOM     18  N   UNL     1       0.899   9.335  20.159  0.00  0.00    +0.000 NA
ATOM     19  O   UNL     1       1.653   8.232  19.895  0.00  0.00    +0.000 OA
BRANCH  15  23
ATOM     20  C   UNL     1       4.266   4.854  17.181  0.00  0.00    +0.000 A 
ATOM     21  C   UNL     1       3.147   4.650  17.988  0.00  0.00    +0.000 A 
ATOM     22  C   UNL     1       2.418   5.733  18.494  0.00  0.00    +0.000 A 
ATOM     23  C   UNL     1       2.801   7.044  18.199  0.00  0.00    +0.000 A 
ATOM     24  C   UNL     1       3.988   7.233  17.464  0.00  0.00    +0.000 A 
ATOM     25  C   UNL     1       4.714   6.152  16.963  0.00  0.00    +0.000 A 
BRANCH  20  27
ATOM     26  C   UNL     1       5.860   3.970  15.690  0.00  0.00    +0.000 C 
ATOM     27  O   UNL     1       4.865   3.729  16.685  0.00  0.00    +0.000 OA
ENDBRANCH  20  27
ENDBRANCH  15  23
ENDBRANCH   1  17
BRANCH   8  28
ATOM     28  O   UNL     1       0.779  15.722  22.962  0.00  0.00    +0.000 OA
ATOM     29  H   UNL     1       0.161  16.069  23.628  0.00  0.00    +0.000 HD
ENDBRANCH   8  28
TORSDOF 4
ENDMDL
MODEL 6
REMARK VINA RESULT:      -7.6      6.954      9.572
REMARK  Name = 
REMARK  9 active torsions:
REMARK  status: ('A' for Active; 'I' for Inactive)
REMARK    1  A    between atoms: C_1  and  O_2
REMARK    2  A    between atoms: O_2  and  C_3
REMARK    3  A    between atoms: C_6  and  C_7
REMARK    4  A    between atoms: C_9  and  C_10
REMARK    5  A    between atoms: C_10  and  C_11
REMARK    6  A    between atoms: C_15  and  C_16
REMARK    7  A    between atoms: C_17  and  O_18
REMARK    8  A    between atoms: C_19  and  C_20
REMARK    9  A    between atoms: C_21  and  C_22
REMARK                            x       y       z     vdW  Elec       q    Type
REMARK                         _______ _______ _______ _____ _____    ______ ____
ROOT
ATOM      1  C   UNL     1      -0.285  10.948  19.251  0.00  0.00    +0.000 C 
ATOM      2  C   UNL     1      -1.402  10.521  18.263  0.00  0.00    +0.000 C 
ATOM      3  C   UNL     1       0.499  12.146  18.651  0.00  0.00    +0.000 C 
ATOM      4  C   UNL     1      -0.329  13.372  18.789  0.00  0.00    +0.000 C 
ATOM      5  C   UNL     1      -0.343  13.565  20.266  0.00  0.00    +0.000 A 
ATOM      6  C   UNL     1       0.284  14.632  20.912  0.00  0.00    +0.000 A 
ATOM      7  C   UNL     1       1.293  15.503  20.212  0.00  0.00    +0.000 C 
ATOM      8  C   UNL     1       0.031  14.810  22.276  0.00  0.00    +0.000 A 
ATOM      9  C   UNL     1      -0.926  14.032  22.961  0.00  0.00    +0.000 A 
ATOM     10  C   UNL     1      -1.365  14.467  24.327  0.00  0.00    +0.000 C 
ATOM     11  C   UNL     1      -1.433  12.878  22.309  0.00  0.00    +0.000 A 
ATOM     12  C   UNL     1      -2.623  12.150  22.887  0.00  0.00    +0.000 C 
ATOM     13  C   UNL     1      -0.955  12.554  21.014  0.00  0.00    +0.000 A 
ATOM     14  O   UNL     1      -0.992  11.254  20.526  0.00  0.00    +0.000 OA
ENDROOT
BRANCH   1  17
ATOM     15  C   UNL     1       2.115   8.104  18.947  0.00  0.00    +0.000 A 
ATOM     16  C   UNL     1       1.570   9.207  18.315  0.00  0.00    +0.000 A 
ATOM     17  C   UNL     1       0.761   9.829  19.304  0.00  0.00    +0.000 A 
ATOM     18  N   UNL     1       0.851   9.144  20.460  0.00  0.00    +0.000 NA
ATOM     19  O   UNL     1       1.665   8.078  20.227  0.00  0.00    +0.000 OA
BRANCH  15  23
ATOM     20  C   UNL     1       5.041   5.077  18.171  0.00  0.00    +0.000 A 
ATOM     21  C   UNL     1       4.840   6.117  17.263  0.00  0.00    +0.000 A 
ATOM     22  C   UNL     1       3.847   7.080  17.481  0.00  0.00    +0.000 A 
ATOM     23  C   UNL     1       3.035   7.015  18.616  0.00  0.00    +0.000 A 
ATOM     24  C   UNL     1       3.186   5.905  19.471  0.00  0.00    +0.000 A 
ATOM     25  C   UNL     1       4.175   4.946  19.250  0.00  0.00    +0.000 A 
BRANCH  20  27
ATOM     26  C   UNL     1       7.350   4.868  17.762  0.00  0.00    +0.000 C 
ATOM     27  O   UNL     1       6.081   4.231  17.897  0.00  0.00    +0.000 OA
ENDBRANCH  20  27
ENDBRANCH  15  23
ENDBRANCH   1  17
BRANCH   8  28
ATOM     28  O   UNL     1       0.692  15.789  22.974  0.00  0.00    +0.000 OA
ATOM     29  H   UNL     1       1.355  15.348  23.532  0.00  0.00    +0.000 HD
ENDBRANCH   8  28
TORSDOF 4
ENDMDL
MODEL 7
REMARK VINA RESULT:      -7.4      2.700     10.767
REMARK  Name = 
REMARK  9 active torsions:
REMARK  status: ('A' for Active; 'I' for Inactive)
REMARK    1  A    between atoms: C_1  and  O_2
REMARK    2  A    between atoms: O_2  and  C_3
REMARK    3  A    between atoms: C_6  and  C_7
REMARK    4  A    between atoms: C_9  and  C_10
REMARK    5  A    between atoms: C_10  and  C_11
REMARK    6  A    between atoms: C_15  and  C_16
REMARK    7  A    between atoms: C_17  and  O_18
REMARK    8  A    between atoms: C_19  and  C_20
REMARK    9  A    between atoms: C_21  and  C_22
REMARK                            x       y       z     vdW  Elec       q    Type
REMARK                         _______ _______ _______ _____ _____    ______ ____
ROOT
ATOM      1  C   UNL     1      10.390  12.498  19.658  0.00  0.00    +0.000 C 
ATOM      2  C   UNL     1      11.767  11.903  20.054  0.00  0.00    +0.000 C 
ATOM      3  C   UNL     1       9.648  12.969  20.938  0.00  0.00    +0.000 C 
ATOM      4  C   UNL     1      10.259  14.243  21.398  0.00  0.00    +0.000 C 
ATOM      5  C   UNL     1       9.868  15.179  20.306  0.00  0.00    +0.000 A 
ATOM      6  C   UNL     1       8.971  16.235  20.478  0.00  0.00    +0.000 A 
ATOM      7  C   UNL     1       8.080  16.332  21.687  0.00  0.00    +0.000 C 
ATOM      8  C   UNL     1       8.840  17.158  19.435  0.00  0.00    +0.000 A 
ATOM      9  C   UNL     1       9.675  17.115  18.298  0.00  0.00    +0.000 A 
ATOM     10  C   UNL     1       9.691  18.294  17.372  0.00  0.00    +0.000 C 
ATOM     11  C   UNL     1      10.469  15.956  18.100  0.00  0.00    +0.000 A 
ATOM     12  C   UNL     1      11.548  15.955  17.044  0.00  0.00    +0.000 C 
ATOM     13  C   UNL     1      10.383  14.896  19.038  0.00  0.00    +0.000 A 
ATOM     14  O   UNL     1      10.702  13.589  18.693  0.00  0.00    +0.000 OA
ENDROOT
BRANCH   1  17
ATOM     15  C   UNL     1       8.602   9.433  18.494  0.00  0.00    +0.000 A 
ATOM     16  C   UNL     1       9.368   9.992  19.502  0.00  0.00    +0.000 A 
ATOM     17  C   UNL     1       9.508  11.358  19.136  0.00  0.00    +0.000 A 
ATOM     18  N   UNL     1       8.839  11.592  17.991  0.00  0.00    +0.000 NA
ATOM     19  O   UNL     1       8.304  10.404  17.594  0.00  0.00    +0.000 OA
BRANCH  15  23
ATOM     20  C   UNL     1       6.671   5.684  17.758  0.00  0.00    +0.000 A 
ATOM     21  C   UNL     1       7.681   5.785  18.716  0.00  0.00    +0.000 A 
ATOM     22  C   UNL     1       8.357   6.994  18.924  0.00  0.00    +0.000 A 
ATOM     23  C   UNL     1       8.031   8.125  18.172  0.00  0.00    +0.000 A 
ATOM     24  C   UNL     1       7.078   7.980  17.144  0.00  0.00    +0.000 A 
ATOM     25  C   UNL     1       6.408   6.774  16.937  0.00  0.00    +0.000 A 
BRANCH  20  27
ATOM     26  C   UNL     1       5.084   4.239  18.724  0.00  0.00    +0.000 C 
ATOM     27  O   UNL     1       6.030   4.478  17.684  0.00  0.00    +0.000 OA
ENDBRANCH  20  27
ENDBRANCH  15  23
ENDBRANCH   1  17
BRANCH   8  28
ATOM     28  O   UNL     1       7.908  18.161  19.520  0.00  0.00    +0.000 OA
ATOM     29  H   UNL     1       8.335  18.914  19.964  0.00  0.00    +0.000 HD
ENDBRANCH   8  28
TORSDOF 4
ENDMDL
MODEL 8
REMARK VINA RESULT:      -7.4      6.947     10.026
REMARK  Name = 
REMARK  9 active torsions:
REMARK  status: ('A' for Active; 'I' for Inactive)
REMARK    1  A    between atoms: C_1  and  O_2
REMARK    2  A    between atoms: O_2  and  C_3
REMARK    3  A    between atoms: C_6  and  C_7
REMARK    4  A    between atoms: C_9  and  C_10
REMARK    5  A    between atoms: C_10  and  C_11
REMARK    6  A    between atoms: C_15  and  C_16
REMARK    7  A    between atoms: C_17  and  O_18
REMARK    8  A    between atoms: C_19  and  C_20
REMARK    9  A    between atoms: C_21  and  C_22
REMARK                            x       y       z     vdW  Elec       q    Type
REMARK                         _______ _______ _______ _____ _____    ______ ____
ROOT
ATOM      1  C   UNL     1      -0.110  11.015  19.281  0.00  0.00    +0.000 C 
ATOM      2  C   UNL     1      -1.155  10.694  18.180  0.00  0.00    +0.000 C 
ATOM      3  C   UNL     1       0.841  12.132  18.774  0.00  0.00    +0.000 C 
ATOM      4  C   UNL     1       0.121  13.431  18.837  0.00  0.00    +0.000 C 
ATOM      5  C   UNL     1      -0.026  13.627  20.307  0.00  0.00    +0.000 A 
ATOM      6  C   UNL     1       0.629  14.630  21.022  0.00  0.00    +0.000 A 
ATOM      7  C   UNL     1       1.781  15.402  20.436  0.00  0.00    +0.000 C 
ATOM      8  C   UNL     1       0.255  14.834  22.355  0.00  0.00    +0.000 A 
ATOM      9  C   UNL     1      -0.836  14.150  22.931  0.00  0.00    +0.000 A 
ATOM     10  C   UNL     1      -1.371  14.627  24.248  0.00  0.00    +0.000 C 
ATOM     11  C   UNL     1      -1.380  13.048  22.220  0.00  0.00    +0.000 A 
ATOM     12  C   UNL     1      -2.686  12.437  22.668  0.00  0.00    +0.000 C 
ATOM     13  C   UNL     1      -0.804  12.680  20.979  0.00  0.00    +0.000 A 
ATOM     14  O   UNL     1      -0.913  11.388  20.479  0.00  0.00    +0.000 OA
ENDROOT
BRANCH   1  17
ATOM     15  C   UNL     1       1.952   7.902  19.245  0.00  0.00    +0.000 A 
ATOM     16  C   UNL     1       1.479   8.964  18.495  0.00  0.00    +0.000 A 
ATOM     17  C   UNL     1       0.815   9.802  19.431  0.00  0.00    +0.000 A 
ATOM     18  N   UNL     1       0.918   9.274  20.666  0.00  0.00    +0.000 NA
ATOM     19  O   UNL     1       1.598   8.101  20.540  0.00  0.00    +0.000 OA
BRANCH  15  23
ATOM     20  C   UNL     1       3.941   4.199  18.432  0.00  0.00    +0.000 A 
ATOM     21  C   UNL     1       3.354   4.430  19.677  0.00  0.00    +0.000 A 
ATOM     22  C   UNL     1       2.750   5.659  19.971  0.00  0.00    +0.000 A 
ATOM     23  C   UNL     1       2.727   6.681  19.019  0.00  0.00    +0.000 A 
ATOM     24  C   UNL     1       3.408   6.466  17.805  0.00  0.00    +0.000 A 
ATOM     25  C   UNL     1       4.010   5.241  17.515  0.00  0.00    +0.000 A 
BRANCH  20  27
ATOM     26  C   UNL     1       3.454   1.925  18.068  0.00  0.00    +0.000 C 
ATOM     27  O   UNL     1       4.441   2.943  18.226  0.00  0.00    +0.000 OA
ENDBRANCH  20  27
ENDBRANCH  15  23
ENDBRANCH   1  17
BRANCH   8  28
ATOM     28  O   UNL     1       0.930  15.747  23.125  0.00  0.00    +0.000 OA
ATOM     29  H   UNL     1       1.102  15.328  23.985  0.00  0.00    +0.000 HD
ENDBRANCH   8  28
TORSDOF 4
ENDMDL
MODEL 9
REMARK VINA RESULT:      -7.4      6.866     10.034
REMARK  Name = 
REMARK  9 active torsions:
REMARK  status: ('A' for Active; 'I' for Inactive)
REMARK    1  A    between atoms: C_1  and  O_2
REMARK    2  A    between atoms: O_2  and  C_3
REMARK    3  A    between atoms: C_6  and  C_7
REMARK    4  A    between atoms: C_9  and  C_10
REMARK    5  A    between atoms: C_10  and  C_11
REMARK    6  A    between atoms: C_15  and  C_16
REMARK    7  A    between atoms: C_17  and  O_18
REMARK    8  A    between atoms: C_19  and  C_20
REMARK    9  A    between atoms: C_21  and  C_22
REMARK                            x       y       z     vdW  Elec       q    Type
REMARK                         _______ _______ _______ _____ _____    ______ ____
ROOT
ATOM      1  C   UNL     1       0.486  11.295  19.626  0.00  0.00    +0.000 C 
ATOM      2  C   UNL     1       1.414  12.034  18.626  0.00  0.00    +0.000 C 
ATOM      3  C   UNL     1       0.563  11.994  21.010  0.00  0.00    +0.000 C 
ATOM      4  C   UNL     1      -0.223  13.254  20.947  0.00  0.00    +0.000 C 
ATOM      5  C   UNL     1      -1.613  12.739  20.803  0.00  0.00    +0.000 A 
ATOM      6  C   UNL     1      -2.593  12.874  21.788  0.00  0.00    +0.000 A 
ATOM      7  C   UNL     1      -2.251  13.264  23.201  0.00  0.00    +0.000 C 
ATOM      8  C   UNL     1      -3.907  12.528  21.455  0.00  0.00    +0.000 A 
ATOM      9  C   UNL     1      -4.271  12.183  20.136  0.00  0.00    +0.000 A 
ATOM     10  C   UNL     1      -5.727  12.120  19.784  0.00  0.00    +0.000 C 
ATOM     11  C   UNL     1      -3.231  11.925  19.206  0.00  0.00    +0.000 A 
ATOM     12  C   UNL     1      -3.553  11.789  17.737  0.00  0.00    +0.000 C 
ATOM     13  C   UNL     1      -1.884  12.014  19.639  0.00  0.00    +0.000 A 
ATOM     14  O   UNL     1      -0.863  11.325  18.996  0.00  0.00    +0.000 OA
ENDROOT
BRANCH   1  17
ATOM     15  C   UNL     1       1.760   7.792  19.860  0.00  0.00    +0.000 A 
ATOM     16  C   UNL     1       1.638   8.909  19.052  0.00  0.00    +0.000 A 
ATOM     17  C   UNL     1       1.081   9.908  19.896  0.00  0.00    +0.000 A 
ATOM     18  N   UNL     1       0.912   9.412  21.136  0.00  0.00    +0.000 NA
ATOM     19  O   UNL     1       1.312   8.111  21.101  0.00  0.00    +0.000 OA
BRANCH  15  23
ATOM     20  C   UNL     1       3.440   3.857  19.731  0.00  0.00    +0.000 A 
ATOM     21  C   UNL     1       3.794   4.810  18.776  0.00  0.00    +0.000 A 
ATOM     22  C   UNL     1       3.208   6.082  18.777  0.00  0.00    +0.000 A 
ATOM     23  C   UNL     1       2.252   6.420  19.738  0.00  0.00    +0.000 A 
ATOM     24  C   UNL     1       1.835   5.415  20.633  0.00  0.00    +0.000 A 
ATOM     25  C   UNL     1       2.420   4.148  20.629  0.00  0.00    +0.000 A 
BRANCH  20  27
ATOM     26  C   UNL     1       3.614   1.729  18.738  0.00  0.00    +0.000 C 
ATOM     27  O   UNL     1       4.122   2.672  19.681  0.00  0.00    +0.000 OA
ENDBRANCH  20  27
ENDBRANCH  15  23
ENDBRANCH   1  17
BRANCH   8  28
ATOM     28  O   UNL     1      -4.888  12.558  22.414  0.00  0.00    +0.000 OA
ATOM     29  H   UNL     1      -4.517  13.007  23.192  0.00  0.00    +0.000 HD
ENDBRANCH   8  28
TORSDOF 4
ENDMDL
