MODEL 1
REMARK VINA RESULT:      -8.1      0.000      0.000
REMARK  Name = 
REMARK  2 active torsions:
REMARK  status: ('A' for Active; 'I' for Inactive)
REMARK    1  A    between atoms: C_1  and  C_2
REMARK    2  A    between atoms: C_5  and  C_6
REMARK                            x       y       z     vdW  Elec       q    Type
REMARK                         _______ _______ _______ _____ _____    ______ ____
ROOT
ATOM      1  C   UNL     1       3.336   6.188  17.752  0.00  0.00    +0.000 C 
ATOM      2  S   UNL     1       4.997   6.707  17.146  0.00  0.00    +0.000 S 
ATOM      3  C   UNL     1       5.876   5.293  17.922  0.00  0.00    +0.000 C 
ATOM      4  C   UNL     1       4.859   4.601  18.741  0.00  0.00    +0.000 A 
ATOM      5  N   UNL     1       4.936   3.584  19.568  0.00  0.00    +0.000 NA
ATOM      6  C   UNL     1       3.642   3.392  20.009  0.00  0.00    +0.000 A 
ATOM      7  C   UNL     1       3.141   2.442  20.910  0.00  0.00    +0.000 A 
ATOM      8  C   UNL     1       1.771   2.444  21.204  0.00  0.00    +0.000 A 
ATOM      9  C   UNL     1       0.915   3.372  20.609  0.00  0.00    +0.000 A 
ATOM     10  C   UNL     1       1.392   4.329  19.705  0.00  0.00    +0.000 A 
ATOM     11  C   UNL     1       2.762   4.311  19.430  0.00  0.00    +0.000 A 
ATOM     12  N   UNL     1       3.577   5.069  18.646  0.00  0.00    +0.000 N 
ENDROOT
BRANCH   1  17
ATOM     13  C   UNL     1       0.217  10.454  20.228  0.00  0.00    +0.000 C 
ATOM     14  C   UNL     1       1.041   9.377  19.590  0.00  0.00    +0.000 A 
ATOM     15  C   UNL     1       1.308   9.384  18.217  0.00  0.00    +0.000 A 
ATOM     16  C   UNL     1       2.068   8.367  17.638  0.00  0.00    +0.000 A 
ATOM     17  C   UNL     1       2.571   7.311  18.416  0.00  0.00    +0.000 A 
ATOM     18  C   UNL     1       2.303   7.313  19.795  0.00  0.00    +0.000 A 
ATOM     19  C   UNL     1       1.548   8.334  20.373  0.00  0.00    +0.000 A 
ENDBRANCH   1  17
TORSDOF 1
ENDMDL
MODEL 2
REMARK VINA RESULT:      -8.0      0.075      1.109
REMARK  Name = 
REMARK  2 active torsions:
REMARK  status: ('A' for Active; 'I' for Inactive)
REMARK    1  A    between atoms: C_1  and  C_2
REMARK    2  A    between atoms: C_5  and  C_6
REMARK                            x       y       z     vdW  Elec       q    Type
REMARK                         _______ _______ _______ _____ _____    ______ ____
ROOT
ATOM      1  C   UNL     1       3.346   6.201  17.749  0.00  0.00    +0.000 C 
ATOM      2  S   UNL     1       5.015   6.765  17.208  0.00  0.00    +0.000 S 
ATOM      3  C   UNL     1       5.901   5.375  18.018  0.00  0.00    +0.000 C 
ATOM      4  C   UNL     1       4.872   4.655  18.798  0.00  0.00    +0.000 A 
ATOM      5  N   UNL     1       4.945   3.640  19.628  0.00  0.00    +0.000 NA
ATOM      6  C   UNL     1       3.640   3.414  20.019  0.00  0.00    +0.000 A 
ATOM      7  C   UNL     1       3.130   2.450  20.901  0.00  0.00    +0.000 A 
ATOM      8  C   UNL     1       1.751   2.415  21.141  0.00  0.00    +0.000 A 
ATOM      9  C   UNL     1       0.893   3.320  20.513  0.00  0.00    +0.000 A 
ATOM     10  C   UNL     1       1.379   4.290  19.628  0.00  0.00    +0.000 A 
ATOM     11  C   UNL     1       2.759   4.309  19.405  0.00  0.00    +0.000 A 
ATOM     12  N   UNL     1       3.582   5.089  18.653  0.00  0.00    +0.000 N 
ENDROOT
BRANCH   1  17
ATOM     13  C   UNL     1       0.351  10.524  20.280  0.00  0.00    +0.000 C 
ATOM     14  C   UNL     1       1.098   9.396  19.633  0.00  0.00    +0.000 A 
ATOM     15  C   UNL     1       1.596   8.329  20.387  0.00  0.00    +0.000 A 
ATOM     16  C   UNL     1       2.297   7.293  19.768  0.00  0.00    +0.000 A 
ATOM     17  C   UNL     1       2.527   7.303  18.383  0.00  0.00    +0.000 A 
ATOM     18  C   UNL     1       2.018   8.376  17.631  0.00  0.00    +0.000 A 
ATOM     19  C   UNL     1       1.312   9.408  18.251  0.00  0.00    +0.000 A 
ENDBRANCH   1  17
TORSDOF 1
ENDMDL
MODEL 3
REMARK VINA RESULT:      -8.0      1.034      1.512
REMARK  Name = 
REMARK  2 active torsions:
REMARK  status: ('A' for Active; 'I' for Inactive)
REMARK    1  A    between atoms: C_1  and  C_2
REMARK    2  A    between atoms: C_5  and  C_6
REMARK                            x       y       z     vdW  Elec       q    Type
REMARK                         _______ _______ _______ _____ _____    ______ ____
ROOT
ATOM      1  C   UNL     1       3.952   6.390  17.517  0.00  0.00    +0.000 C 
ATOM      2  S   UNL     1       5.686   7.005  17.626  0.00  0.00    +0.000 S 
ATOM      3  C   UNL     1       6.363   5.404  18.224  0.00  0.00    +0.000 C 
ATOM      4  C   UNL     1       5.183   4.546  18.464  0.00  0.00    +0.000 A 
ATOM      5  N   UNL     1       5.061   3.338  18.965  0.00  0.00    +0.000 NA
ATOM      6  C   UNL     1       3.706   3.074  18.910  0.00  0.00    +0.000 A 
ATOM      7  C   UNL     1       3.007   1.927  19.315  0.00  0.00    +0.000 A 
ATOM      8  C   UNL     1       1.616   1.892  19.154  0.00  0.00    +0.000 A 
ATOM      9  C   UNL     1       0.933   2.974  18.596  0.00  0.00    +0.000 A 
ATOM     10  C   UNL     1       1.610   4.128  18.183  0.00  0.00    +0.000 A 
ATOM     11  C   UNL     1       2.998   4.143  18.356  0.00  0.00    +0.000 A 
ATOM     12  N   UNL     1       3.969   5.062  18.103  0.00  0.00    +0.000 N 
ENDROOT
BRANCH   1  17
ATOM     13  C   UNL     1       0.260  10.021  20.209  0.00  0.00    +0.000 C 
ATOM     14  C   UNL     1       1.187   9.068  19.517  0.00  0.00    +0.000 A 
ATOM     15  C   UNL     1       1.754   7.984  20.195  0.00  0.00    +0.000 A 
ATOM     16  C   UNL     1       2.623   7.113  19.536  0.00  0.00    +0.000 A 
ATOM     17  C   UNL     1       2.956   7.311  18.186  0.00  0.00    +0.000 A 
ATOM     18  C   UNL     1       2.379   8.399  17.510  0.00  0.00    +0.000 A 
ATOM     19  C   UNL     1       1.505   9.265  18.169  0.00  0.00    +0.000 A 
ENDBRANCH   1  17
TORSDOF 1
ENDMDL
MODEL 4
REMARK VINA RESULT:      -7.9      1.017      1.017
REMARK  Name = 
REMARK  2 active torsions:
REMARK  status: ('A' for Active; 'I' for Inactive)
REMARK    1  A    between atoms: C_1  and  C_2
REMARK    2  A    between atoms: C_5  and  C_6
REMARK                            x       y       z     vdW  Elec       q    Type
REMARK                         _______ _______ _______ _____ _____    ______ ____
ROOT
ATOM      1  C   UNL     1       3.894   6.398  17.465  0.00  0.00    +0.000 C 
ATOM      2  S   UNL     1       5.642   6.985  17.462  0.00  0.00    +0.000 S 
ATOM      3  C   UNL     1       6.332   5.367  17.996  0.00  0.00    +0.000 C 
ATOM      4  C   UNL     1       5.158   4.524  18.307  0.00  0.00    +0.000 A 
ATOM      5  N   UNL     1       5.050   3.314  18.803  0.00  0.00    +0.000 NA
ATOM      6  C   UNL     1       3.691   3.070  18.838  0.00  0.00    +0.000 A 
ATOM      7  C   UNL     1       3.003   1.930  19.279  0.00  0.00    +0.000 A 
ATOM      8  C   UNL     1       1.604   1.918  19.214  0.00  0.00    +0.000 A 
ATOM      9  C   UNL     1       0.902   3.017  18.715  0.00  0.00    +0.000 A 
ATOM     10  C   UNL     1       1.567   4.164  18.267  0.00  0.00    +0.000 A 
ATOM     11  C   UNL     1       2.963   4.156  18.345  0.00  0.00    +0.000 A 
ATOM     12  N   UNL     1       3.930   5.063  18.036  0.00  0.00    +0.000 N 
ENDROOT
BRANCH   1  17
ATOM     13  C   UNL     1       0.139   9.901  20.239  0.00  0.00    +0.000 C 
ATOM     14  C   UNL     1       1.124   9.022  19.527  0.00  0.00    +0.000 A 
ATOM     15  C   UNL     1       1.444   9.231  18.182  0.00  0.00    +0.000 A 
ATOM     16  C   UNL     1       2.356   8.397  17.534  0.00  0.00    +0.000 A 
ATOM     17  C   UNL     1       2.962   7.326  18.211  0.00  0.00    +0.000 A 
ATOM     18  C   UNL     1       2.639   7.125  19.564  0.00  0.00    +0.000 A 
ATOM     19  C   UNL     1       1.732   7.964  20.212  0.00  0.00    +0.000 A 
ENDBRANCH   1  17
TORSDOF 1
ENDMDL
MODEL 5
REMARK VINA RESULT:      -7.6      1.857      3.727
REMARK  Name = 
REMARK  2 active torsions:
REMARK  status: ('A' for Active; 'I' for Inactive)
REMARK    1  A    between atoms: C_1  and  C_2
REMARK    2  A    between atoms: C_5  and  C_6
REMARK                            x       y       z     vdW  Elec       q    Type
REMARK                         _______ _______ _______ _____ _____    ______ ____
ROOT
ATOM      1  C   UNL     1       2.858   5.229  19.695  0.00  0.00    +0.000 C 
ATOM      2  S   UNL     1       1.462   4.054  19.953  0.00  0.00    +0.000 S 
ATOM      3  C   UNL     1       2.106   2.809  18.764  0.00  0.00    +0.000 C 
ATOM      4  C   UNL     1       3.269   3.452  18.117  0.00  0.00    +0.000 A 
ATOM      5  N   UNL     1       4.058   3.065  17.141  0.00  0.00    +0.000 NA
ATOM      6  C   UNL     1       4.972   4.092  17.004  0.00  0.00    +0.000 A 
ATOM      7  C   UNL     1       6.045   4.213  16.109  0.00  0.00    +0.000 A 
ATOM      8  C   UNL     1       6.844   5.362  16.163  0.00  0.00    +0.000 A 
ATOM      9  C   UNL     1       6.583   6.370  17.093  0.00  0.00    +0.000 A 
ATOM     10  C   UNL     1       5.519   6.270  17.997  0.00  0.00    +0.000 A 
ATOM     11  C   UNL     1       4.733   5.116  17.923  0.00  0.00    +0.000 A 
ATOM     12  N   UNL     1       3.635   4.679  18.597  0.00  0.00    +0.000 N 
ENDROOT
BRANCH   1  17
ATOM     13  C   UNL     1       0.916  10.619  18.585  0.00  0.00    +0.000 C 
ATOM     14  C   UNL     1       1.442   9.244  18.866  0.00  0.00    +0.000 A 
ATOM     15  C   UNL     1       1.940   8.434  17.841  0.00  0.00    +0.000 A 
ATOM     16  C   UNL     1       2.417   7.152  18.121  0.00  0.00    +0.000 A 
ATOM     17  C   UNL     1       2.397   6.644  19.431  0.00  0.00    +0.000 A 
ATOM     18  C   UNL     1       1.900   7.467  20.456  0.00  0.00    +0.000 A 
ATOM     19  C   UNL     1       1.430   8.750  20.175  0.00  0.00    +0.000 A 
ENDBRANCH   1  17
TORSDOF 1
ENDMDL
MODEL 6
REMARK VINA RESULT:      -7.6      1.821      3.804
REMARK  Name = 
REMARK  2 active torsions:
REMARK  status: ('A' for Active; 'I' for Inactive)
REMARK    1  A    between atoms: C_1  and  C_2
REMARK    2  A    between atoms: C_5  and  C_6
REMARK                            x       y       z     vdW  Elec       q    Type
REMARK                         _______ _______ _______ _____ _____    ______ ____
ROOT
ATOM      1  C   UNL     1       2.811   5.355  19.838  0.00  0.00    +0.000 C 
ATOM      2  S   UNL     1       1.479   4.191  20.356  0.00  0.00    +0.000 S 
ATOM      3  C   UNL     1       2.027   2.844  19.232  0.00  0.00    +0.000 C 
ATOM      4  C   UNL     1       3.101   3.437  18.405  0.00  0.00    +0.000 A 
ATOM      5  N   UNL     1       3.793   2.967  17.394  0.00  0.00    +0.000 NA
ATOM      6  C   UNL     1       4.662   3.988  17.062  0.00  0.00    +0.000 A 
ATOM      7  C   UNL     1       5.633   4.036  16.051  0.00  0.00    +0.000 A 
ATOM      8  C   UNL     1       6.404   5.196  15.908  0.00  0.00    +0.000 A 
ATOM      9  C   UNL     1       6.216   6.288  16.758  0.00  0.00    +0.000 A 
ATOM     10  C   UNL     1       5.255   6.262  17.775  0.00  0.00    +0.000 A 
ATOM     11  C   UNL     1       4.494   5.095  17.897  0.00  0.00    +0.000 A 
ATOM     12  N   UNL     1       3.483   4.711  18.723  0.00  0.00    +0.000 N 
ENDROOT
BRANCH   1  17
ATOM     13  C   UNL     1       0.959  10.745  18.581  0.00  0.00    +0.000 C 
ATOM     14  C   UNL     1       1.407   9.352  18.907  0.00  0.00    +0.000 A 
ATOM     15  C   UNL     1       1.348   8.858  20.213  0.00  0.00    +0.000 A 
ATOM     16  C   UNL     1       1.779   7.561  20.499  0.00  0.00    +0.000 A 
ATOM     17  C   UNL     1       2.290   6.731  19.488  0.00  0.00    +0.000 A 
ATOM     18  C   UNL     1       2.342   7.234  18.176  0.00  0.00    +0.000 A 
ATOM     19  C   UNL     1       1.904   8.528  17.892  0.00  0.00    +0.000 A 
ENDBRANCH   1  17
TORSDOF 1
ENDMDL
MODEL 7
REMARK VINA RESULT:      -7.3      2.145      5.393
REMARK  Name = 
REMARK  2 active torsions:
REMARK  status: ('A' for Active; 'I' for Inactive)
REMARK    1  A    between atoms: C_1  and  C_2
REMARK    2  A    between atoms: C_5  and  C_6
REMARK                            x       y       z     vdW  Elec       q    Type
REMARK                         _______ _______ _______ _____ _____    ______ ____
ROOT
ATOM      1  C   UNL     1       3.217   3.529  18.112  0.00  0.00    +0.000 C 
ATOM      2  S   UNL     1       3.509   2.032  19.146  0.00  0.00    +0.000 S 
ATOM      3  C   UNL     1       2.854   2.797  20.684  0.00  0.00    +0.000 C 
ATOM      4  C   UNL     1       2.607   4.214  20.342  0.00  0.00    +0.000 A 
ATOM      5  N   UNL     1       2.219   5.239  21.065  0.00  0.00    +0.000 NA
ATOM      6  C   UNL     1       2.152   6.290  20.172  0.00  0.00    +0.000 A 
ATOM      7  C   UNL     1       1.793   7.627  20.397  0.00  0.00    +0.000 A 
ATOM      8  C   UNL     1       1.798   8.520  19.318  0.00  0.00    +0.000 A 
ATOM      9  C   UNL     1       2.150   8.091  18.037  0.00  0.00    +0.000 A 
ATOM     10  C   UNL     1       2.510   6.761  17.788  0.00  0.00    +0.000 A 
ATOM     11  C   UNL     1       2.501   5.888  18.880  0.00  0.00    +0.000 A 
ATOM     12  N   UNL     1       2.799   4.569  19.035  0.00  0.00    +0.000 N 
ENDROOT
BRANCH   1  17
ATOM     13  C   UNL     1       7.789   5.240  14.914  0.00  0.00    +0.000 C 
ATOM     14  C   UNL     1       6.619   4.773  15.726  0.00  0.00    +0.000 A 
ATOM     15  C   UNL     1       5.403   4.440  15.122  0.00  0.00    +0.000 A 
ATOM     16  C   UNL     1       4.320   4.017  15.895  0.00  0.00    +0.000 A 
ATOM     17  C   UNL     1       4.424   3.927  17.293  0.00  0.00    +0.000 A 
ATOM     18  C   UNL     1       5.652   4.258  17.892  0.00  0.00    +0.000 A 
ATOM     19  C   UNL     1       6.734   4.675  17.117  0.00  0.00    +0.000 A 
ENDBRANCH   1  17
TORSDOF 1
ENDMDL
MODEL 8
REMARK VINA RESULT:      -7.3      2.155      5.467
REMARK  Name = 
REMARK  2 active torsions:
REMARK  status: ('A' for Active; 'I' for Inactive)
REMARK    1  A    between atoms: C_1  and  C_2
REMARK    2  A    between atoms: C_5  and  C_6
REMARK                            x       y       z     vdW  Elec       q    Type
REMARK                         _______ _______ _______ _____ _____    ______ ____
ROOT
ATOM      1  C   UNL     1       3.214   3.601  17.968  0.00  0.00    +0.000 C 
ATOM      2  S   UNL     1       3.549   2.055  18.915  0.00  0.00    +0.000 S 
ATOM      3  C   UNL     1       2.922   2.729  20.506  0.00  0.00    +0.000 C 
ATOM      4  C   UNL     1       2.650   4.158  20.246  0.00  0.00    +0.000 A 
ATOM      5  N   UNL     1       2.266   5.139  21.030  0.00  0.00    +0.000 NA
ATOM      6  C   UNL     1       2.165   6.235  20.196  0.00  0.00    +0.000 A 
ATOM      7  C   UNL     1       1.796   7.553  20.501  0.00  0.00    +0.000 A 
ATOM      8  C   UNL     1       1.765   8.502  19.471  0.00  0.00    +0.000 A 
ATOM      9  C   UNL     1       2.091   8.145  18.161  0.00  0.00    +0.000 A 
ATOM     10  C   UNL     1       2.461   6.835  17.833  0.00  0.00    +0.000 A 
ATOM     11  C   UNL     1       2.488   5.906  18.877  0.00  0.00    +0.000 A 
ATOM     12  N   UNL     1       2.806   4.585  18.955  0.00  0.00    +0.000 N 
ENDROOT
BRANCH   1  17
ATOM     13  C   UNL     1       7.866   5.181  14.818  0.00  0.00    +0.000 C 
ATOM     14  C   UNL     1       6.669   4.803  15.637  0.00  0.00    +0.000 A 
ATOM     15  C   UNL     1       6.754   4.662  17.026  0.00  0.00    +0.000 A 
ATOM     16  C   UNL     1       5.631   4.299  17.771  0.00  0.00    +0.000 A 
ATOM     17  C   UNL     1       4.397   4.057  17.145  0.00  0.00    +0.000 A 
ATOM     18  C   UNL     1       4.318   4.205  15.749  0.00  0.00    +0.000 A 
ATOM     19  C   UNL     1       5.441   4.574  15.007  0.00  0.00    +0.000 A 
ENDBRANCH   1  17
TORSDOF 1
ENDMDL
MODEL 9
REMARK VINA RESULT:      -7.2      1.900      3.825
REMARK  Name = 
REMARK  2 active torsions:
REMARK  status: ('A' for Active; 'I' for Inactive)
REMARK    1  A    between atoms: C_1  and  C_2
REMARK    2  A    between atoms: C_5  and  C_6
REMARK                            x       y       z     vdW  Elec       q    Type
REMARK                         _______ _______ _______ _____ _____    ______ ____
ROOT
ATOM      1  C   UNL     1       2.708   4.314  19.299  0.00  0.00    +0.000 C 
ATOM      2  S   UNL     1       1.410   3.248  18.540  0.00  0.00    +0.000 S 
ATOM      3  C   UNL     1       2.553   2.485  17.320  0.00  0.00    +0.000 C 
ATOM      4  C   UNL     1       3.826   3.223  17.461  0.00  0.00    +0.000 A 
ATOM      5  N   UNL     1       4.957   3.163  16.797  0.00  0.00    +0.000 NA
ATOM      6  C   UNL     1       5.776   4.086  17.417  0.00  0.00    +0.000 A 
ATOM      7  C   UNL     1       7.100   4.442  17.121  0.00  0.00    +0.000 A 
ATOM      8  C   UNL     1       7.730   5.417  17.904  0.00  0.00    +0.000 A 
ATOM      9  C   UNL     1       7.057   6.026  18.965  0.00  0.00    +0.000 A 
ATOM     10  C   UNL     1       5.736   5.686  19.281  0.00  0.00    +0.000 A 
ATOM     11  C   UNL     1       5.126   4.712  18.484  0.00  0.00    +0.000 A 
ATOM     12  N   UNL     1       3.887   4.149  18.467  0.00  0.00    +0.000 N 
ENDROOT
BRANCH   1  17
ATOM     13  C   UNL     1       1.234   9.928  19.911  0.00  0.00    +0.000 C 
ATOM     14  C   UNL     1       1.584   8.479  19.754  0.00  0.00    +0.000 A 
ATOM     15  C   UNL     1       1.480   7.587  20.825  0.00  0.00    +0.000 A 
ATOM     16  C   UNL     1       1.821   6.242  20.663  0.00  0.00    +0.000 A 
ATOM     17  C   UNL     1       2.284   5.760  19.428  0.00  0.00    +0.000 A 
ATOM     18  C   UNL     1       2.381   6.661  18.354  0.00  0.00    +0.000 A 
ATOM     19  C   UNL     1       2.034   8.003  18.517  0.00  0.00    +0.000 A 
ENDBRANCH   1  17
TORSDOF 1
ENDMDL
