MODEL 1
REMARK VINA RESULT:      -6.6      0.000      0.000
REMARK  Name = 
REMARK  7 active torsions:
REMARK  status: ('A' for Active; 'I' for Inactive)
REMARK    1  A    between atoms: N_4  and  C_5
REMARK    2  A    between atoms: C_5  and  C_6
REMARK    3  A    between atoms: C_6  and  O_7
REMARK    4  A    between atoms: C_6  and  C_8
REMARK    5  A    between atoms: C_8  and  O_9
REMARK    6  A    between atoms: N_17  and  C_18
REMARK    7  A    between atoms: N_25  and  C_26
REMARK                            x       y       z     vdW  Elec       q    Type
REMARK                         _______ _______ _______ _____ _____    ______ ____
ROOT
ATOM      1  O   UNL     1       2.339  10.580  17.514  0.00  0.00    +0.000 OA
ATOM      2  C   UNL     1       1.815  10.270  18.560  0.00  0.00    +0.000 A 
ATOM      3  C   UNL     1       1.857   8.740  18.940  0.00  0.00    +0.000 A 
ATOM      4  N   UNL     1       2.559   7.869  18.106  0.00  0.00    +0.000 N 
ATOM      5  N   UNL     1       1.284   8.283  19.986  0.00  0.00    +0.000 NA
ATOM      6  C   UNL     1       0.620   9.178  20.847  0.00  0.00    +0.000 A 
ATOM      7  C   UNL     1       0.112   8.633  22.039  0.00  0.00    +0.000 A 
ATOM      8  C   UNL     1      -0.466   9.446  23.011  0.00  0.00    +0.000 A 
ATOM      9  C   UNL     1      -0.642  10.793  22.747  0.00  0.00    +0.000 A 
ATOM     10  C   UNL     1      -0.242  11.312  21.518  0.00  0.00    +0.000 A 
ATOM     11  C   UNL     1       0.492  10.544  20.597  0.00  0.00    +0.000 A 
ATOM     12  N   UNL     1       1.152  11.133  19.464  0.00  0.00    +0.000 N 
ATOM     13  H   UNL     1       3.158   8.272  17.403  0.00  0.00    +0.000 HD
ENDROOT
BRANCH  12  14
ATOM     14  C   UNL     1       1.304  12.643  19.416  0.00  0.00    +0.000 C 
ATOM     15  C   UNL     1       0.032  13.303  18.763  0.00  0.00    +0.000 C 
ATOM     16  C   UNL     1      -0.226  14.770  19.096  0.00  0.00    +0.000 C 
ATOM     17  C   UNL     1       0.950  15.578  18.509  0.00  0.00    +0.000 C 
ATOM     18  C   UNL     1       1.975  15.590  19.628  0.00  0.00    +0.000 C 
ATOM     19  C   UNL     1       1.284  14.843  20.789  0.00  0.00    +0.000 C 
ATOM     20  C   UNL     1       1.741  13.369  20.734  0.00  0.00    +0.000 C 
ATOM     21  N   UNL     1      -0.182  15.030  20.541  0.00  0.00    +0.000 NA
BRANCH  21  22
ATOM     22  C   UNL     1      -1.152  14.274  21.447  0.00  0.00    +0.000 C 
ATOM     23  C   UNL     1      -1.095  14.785  22.917  0.00  0.00    +0.000 C 
ATOM     24  C   UNL     1      -1.913  13.986  23.973  0.00  0.00    +0.000 C 
ATOM     25  C   UNL     1      -3.460  13.913  24.020  0.00  0.00    +0.000 C 
ATOM     26  C   UNL     1      -4.254  15.183  23.737  0.00  0.00    +0.000 C 
ATOM     27  C   UNL     1      -4.765  15.215  22.303  0.00  0.00    +0.000 C 
ATOM     28  C   UNL     1      -3.605  15.351  21.320  0.00  0.00    +0.000 C 
ATOM     29  C   UNL     1      -2.678  14.135  21.068  0.00  0.00    +0.000 C 
ENDBRANCH  21  22
ENDBRANCH  12  14
BRANCH   4  30
ATOM     30  C   UNL     1       2.237   6.449  17.979  0.00  0.00    +0.000 C 
BRANCH  30  31
ATOM     31  C   UNL     1       3.493   5.554  18.009  0.00  0.00    +0.000 C 
BRANCH  31  32
ATOM     32  O   UNL     1       4.472   6.039  17.079  0.00  0.00    +0.000 OA
ATOM     33  H   UNL     1       4.047   6.718  16.525  0.00  0.00    +0.000 HD
ENDBRANCH  31  32
BRANCH  31  34
ATOM     34  C   UNL     1       4.076   5.547  19.438  0.00  0.00    +0.000 C 
BRANCH  34  35
ATOM     35  O   UNL     1       3.089   5.785  20.437  0.00  0.00    +0.000 OA
ATOM     36  H   UNL     1       2.425   6.393  20.070  0.00  0.00    +0.000 HD
ENDBRANCH  34  35
ENDBRANCH  31  34
ENDBRANCH  30  31
ENDBRANCH   4  30
TORSDOF 7
ENDMDL
MODEL 2
REMARK VINA RESULT:      -6.6      4.234      8.136
REMARK  Name = 
REMARK  7 active torsions:
REMARK  status: ('A' for Active; 'I' for Inactive)
REMARK    1  A    between atoms: N_4  and  C_5
REMARK    2  A    between atoms: C_5  and  C_6
REMARK    3  A    between atoms: C_6  and  O_7
REMARK    4  A    between atoms: C_6  and  C_8
REMARK    5  A    between atoms: C_8  and  O_9
REMARK    6  A    between atoms: N_17  and  C_18
REMARK    7  A    between atoms: N_25  and  C_26
REMARK                            x       y       z     vdW  Elec       q    Type
REMARK                         _______ _______ _______ _____ _____    ______ ____
ROOT
ATOM      1  O   UNL     1      -3.289  13.828  22.087  0.00  0.00    +0.000 OA
ATOM      2  C   UNL     1      -3.525  13.237  21.058  0.00  0.00    +0.000 A 
ATOM      3  C   UNL     1      -5.034  12.863  20.792  0.00  0.00    +0.000 A 
ATOM      4  N   UNL     1      -5.996  13.306  21.703  0.00  0.00    +0.000 N 
ATOM      5  N   UNL     1      -5.399  12.185  19.773  0.00  0.00    +0.000 NA
ATOM      6  C   UNL     1      -4.426  11.786  18.836  0.00  0.00    +0.000 A 
ATOM      7  C   UNL     1      -4.904  11.148  17.678  0.00  0.00    +0.000 A 
ATOM      8  C   UNL     1      -4.042  10.810  16.638  0.00  0.00    +0.000 A 
ATOM      9  C   UNL     1      -2.681  11.005  16.797  0.00  0.00    +0.000 A 
ATOM     10  C   UNL     1      -2.197  11.533  17.991  0.00  0.00    +0.000 A 
ATOM     11  C   UNL     1      -3.061  12.033  18.981  0.00  0.00    +0.000 A 
ATOM     12  N   UNL     1      -2.587  12.831  20.079  0.00  0.00    +0.000 N 
ATOM     13  H   UNL     1      -5.717  13.992  22.385  0.00  0.00    +0.000 HD
ENDROOT
BRANCH  12  14
ATOM     14  C   UNL     1      -1.175  13.385  20.018  0.00  0.00    +0.000 C 
ATOM     15  C   UNL     1      -0.249  12.648  21.056  0.00  0.00    +0.000 C 
ATOM     16  C   UNL     1       1.252  12.689  20.785  0.00  0.00    +0.000 C 
ATOM     17  C   UNL     1       1.687  14.166  20.888  0.00  0.00    +0.000 C 
ATOM     18  C   UNL     1       1.502  14.697  19.478  0.00  0.00    +0.000 C 
ATOM     19  C   UNL     1       1.036  13.469  18.665  0.00  0.00    +0.000 C 
ATOM     20  C   UNL     1      -0.507  13.508  18.605  0.00  0.00    +0.000 C 
ATOM     21  N   UNL     1       1.583  12.291  19.410  0.00  0.00    +0.000 NA
BRANCH  21  22
ATOM     22  C   UNL     1       1.165  10.901  18.935  0.00  0.00    +0.000 C 
ATOM     23  C   UNL     1       2.332  10.150  18.230  0.00  0.00    +0.000 C 
ATOM     24  C   UNL     1       1.991   8.791  17.552  0.00  0.00    +0.000 C 
ATOM     25  C   UNL     1       1.576   7.506  18.313  0.00  0.00    +0.000 C 
ATOM     26  C   UNL     1       2.300   7.165  19.610  0.00  0.00    +0.000 C 
ATOM     27  C   UNL     1       1.491   7.587  20.829  0.00  0.00    +0.000 C 
ATOM     28  C   UNL     1       1.400   9.109  20.916  0.00  0.00    +0.000 C 
ATOM     29  C   UNL     1       0.488   9.872  19.923  0.00  0.00    +0.000 C 
ENDBRANCH  21  22
ENDBRANCH  12  14
BRANCH   4  30
ATOM     30  C   UNL     1      -7.261  12.611  21.929  0.00  0.00    +0.000 C 
BRANCH  30  31
ATOM     31  C   UNL     1      -7.562  12.406  23.429  0.00  0.00    +0.000 C 
BRANCH  31  32
ATOM     32  O   UNL     1      -6.434  11.807  24.084  0.00  0.00    +0.000 OA
ATOM     33  H   UNL     1      -6.497  10.842  23.965  0.00  0.00    +0.000 HD
ENDBRANCH  31  32
BRANCH  31  34
ATOM     34  C   UNL     1      -7.887  13.770  24.072  0.00  0.00    +0.000 C 
BRANCH  34  35
ATOM     35  O   UNL     1      -6.721  14.532  24.367  0.00  0.00    +0.000 OA
ATOM     36  H   UNL     1      -6.169  14.019  24.982  0.00  0.00    +0.000 HD
ENDBRANCH  34  35
ENDBRANCH  31  34
ENDBRANCH  30  31
ENDBRANCH   4  30
TORSDOF 7
ENDMDL
MODEL 3
REMARK VINA RESULT:      -6.6      2.835      9.008
REMARK  Name = 
REMARK  7 active torsions:
REMARK  status: ('A' for Active; 'I' for Inactive)
REMARK    1  A    between atoms: N_4  and  C_5
REMARK    2  A    between atoms: C_5  and  C_6
REMARK    3  A    between atoms: C_6  and  O_7
REMARK    4  A    between atoms: C_6  and  C_8
REMARK    5  A    between atoms: C_8  and  O_9
REMARK    6  A    between atoms: N_17  and  C_18
REMARK    7  A    between atoms: N_25  and  C_26
REMARK                            x       y       z     vdW  Elec       q    Type
REMARK                         _______ _______ _______ _____ _____    ______ ____
ROOT
ATOM      1  O   UNL     1       2.561   8.761  18.022  0.00  0.00    +0.000 OA
ATOM      2  C   UNL     1       1.895   9.187  18.938  0.00  0.00    +0.000 A 
ATOM      3  C   UNL     1       1.522  10.718  18.883  0.00  0.00    +0.000 A 
ATOM      4  N   UNL     1       1.901  11.452  17.757  0.00  0.00    +0.000 N 
ATOM      5  N   UNL     1       0.878  11.296  19.822  0.00  0.00    +0.000 NA
ATOM      6  C   UNL     1       0.457  10.536  20.929  0.00  0.00    +0.000 A 
ATOM      7  C   UNL     1      -0.349  11.201  21.870  0.00  0.00    +0.000 A 
ATOM      8  C   UNL     1      -0.910  10.516  22.946  0.00  0.00    +0.000 A 
ATOM      9  C   UNL     1      -0.576   9.189  23.150  0.00  0.00    +0.000 A 
ATOM     10  C   UNL     1       0.313   8.561  22.281  0.00  0.00    +0.000 A 
ATOM     11  C   UNL     1       0.755   9.184  21.101  0.00  0.00    +0.000 A 
ATOM     12  N   UNL     1       1.435   8.460  20.062  0.00  0.00    +0.000 N 
ATOM     13  H   UNL     1       2.232  10.943  16.953  0.00  0.00    +0.000 HD
ENDROOT
BRANCH  12  14
ATOM     14  C   UNL     1       1.424   6.943  20.107  0.00  0.00    +0.000 C 
ATOM     15  C   UNL     1       1.360   6.350  18.650  0.00  0.00    +0.000 C 
ATOM     16  C   UNL     1       1.856   4.917  18.471  0.00  0.00    +0.000 C 
ATOM     17  C   UNL     1       0.907   4.008  19.280  0.00  0.00    +0.000 C 
ATOM     18  C   UNL     1       1.536   3.966  20.661  0.00  0.00    +0.000 C 
ATOM     19  C   UNL     1       2.827   4.801  20.519  0.00  0.00    +0.000 C 
ATOM     20  C   UNL     1       2.508   6.237  20.991  0.00  0.00    +0.000 C 
ATOM     21  N   UNL     1       3.182   4.707  19.067  0.00  0.00    +0.000 NA
BRANCH  21  22
ATOM     22  C   UNL     1       4.347   5.561  18.569  0.00  0.00    +0.000 C 
ATOM     23  C   UNL     1       5.723   4.979  19.005  0.00  0.00    +0.000 C 
ATOM     24  C   UNL     1       6.982   5.845  18.705  0.00  0.00    +0.000 C 
ATOM     25  C   UNL     1       7.521   6.155  17.286  0.00  0.00    +0.000 C 
ATOM     26  C   UNL     1       7.514   5.039  16.247  0.00  0.00    +0.000 C 
ATOM     27  C   UNL     1       6.319   5.154  15.311  0.00  0.00    +0.000 C 
ATOM     28  C   UNL     1       5.016   4.887  16.062  0.00  0.00    +0.000 C 
ATOM     29  C   UNL     1       4.476   5.954  17.047  0.00  0.00    +0.000 C 
ENDBRANCH  21  22
ENDBRANCH  12  14
BRANCH   4  30
ATOM     30  C   UNL     1       2.150  12.892  17.788  0.00  0.00    +0.000 C 
BRANCH  30  31
ATOM     31  C   UNL     1       3.411  13.255  18.601  0.00  0.00    +0.000 C 
BRANCH  31  32
ATOM     32  O   UNL     1       4.337  13.982  17.781  0.00  0.00    +0.000 OA
ATOM     33  H   UNL     1       4.261  13.643  16.871  0.00  0.00    +0.000 HD
ENDBRANCH  31  32
BRANCH  31  34
ATOM     34  C   UNL     1       3.001  14.105  19.821  0.00  0.00    +0.000 C 
BRANCH  34  35
ATOM     35  O   UNL     1       2.807  13.324  20.996  0.00  0.00    +0.000 OA
ATOM     36  H   UNL     1       3.299  13.741  21.724  0.00  0.00    +0.000 HD
ENDBRANCH  34  35
ENDBRANCH  31  34
ENDBRANCH  30  31
ENDBRANCH   4  30
TORSDOF 7
ENDMDL
MODEL 4
REMARK VINA RESULT:      -6.5      0.724      1.019
REMARK  Name = 
REMARK  7 active torsions:
REMARK  status: ('A' for Active; 'I' for Inactive)
REMARK    1  A    between atoms: N_4  and  C_5
REMARK    2  A    between atoms: C_5  and  C_6
REMARK    3  A    between atoms: C_6  and  O_7
REMARK    4  A    between atoms: C_6  and  C_8
REMARK    5  A    between atoms: C_8  and  O_9
REMARK    6  A    between atoms: N_17  and  C_18
REMARK    7  A    between atoms: N_25  and  C_26
REMARK                            x       y       z     vdW  Elec       q    Type
REMARK                         _______ _______ _______ _____ _____    ______ ____
ROOT
ATOM      1  O   UNL     1       2.286  10.316  17.494  0.00  0.00    +0.000 OA
ATOM      2  C   UNL     1       1.818  10.045  18.576  0.00  0.00    +0.000 A 
ATOM      3  C   UNL     1       2.007   8.559  19.071  0.00  0.00    +0.000 A 
ATOM      4  N   UNL     1       2.764   7.690  18.284  0.00  0.00    +0.000 N 
ATOM      5  N   UNL     1       1.504   8.137  20.166  0.00  0.00    +0.000 NA
ATOM      6  C   UNL     1       0.783   9.035  20.977  0.00  0.00    +0.000 A 
ATOM      7  C   UNL     1       0.357   8.543  22.223  0.00  0.00    +0.000 A 
ATOM      8  C   UNL     1      -0.267   9.377  23.148  0.00  0.00    +0.000 A 
ATOM      9  C   UNL     1      -0.571  10.678  22.788  0.00  0.00    +0.000 A 
ATOM     10  C   UNL     1      -0.250  11.132  21.511  0.00  0.00    +0.000 A 
ATOM     11  C   UNL     1       0.526  10.361  20.628  0.00  0.00    +0.000 A 
ATOM     12  N   UNL     1       1.102  10.915  19.433  0.00  0.00    +0.000 N 
ATOM     13  H   UNL     1       3.306   8.088  17.533  0.00  0.00    +0.000 HD
ENDROOT
BRANCH  12  14
ATOM     14  C   UNL     1       1.115  12.424  19.265  0.00  0.00    +0.000 C 
ATOM     15  C   UNL     1      -0.248  12.921  18.655  0.00  0.00    +0.000 C 
ATOM     16  C   UNL     1      -0.615  14.383  18.898  0.00  0.00    +0.000 C 
ATOM     17  C   UNL     1       0.446  15.238  18.174  0.00  0.00    +0.000 C 
ATOM     18  C   UNL     1       1.534  15.424  19.215  0.00  0.00    +0.000 C 
ATOM     19  C   UNL     1       0.986  14.714  20.473  0.00  0.00    +0.000 C 
ATOM     20  C   UNL     1       1.569  13.284  20.493  0.00  0.00    +0.000 C 
ATOM     21  N   UNL     1      -0.503  14.759  20.315  0.00  0.00    +0.000 NA
BRANCH  21  22
ATOM     22  C   UNL     1      -1.343  13.997  21.338  0.00  0.00    +0.000 C 
ATOM     23  C   UNL     1      -1.248  14.631  22.757  0.00  0.00    +0.000 C 
ATOM     24  C   UNL     1      -1.924  13.853  23.924  0.00  0.00    +0.000 C 
ATOM     25  C   UNL     1      -3.452  13.647  24.078  0.00  0.00    +0.000 C 
ATOM     26  C   UNL     1      -4.377  14.814  23.750  0.00  0.00    +0.000 C 
ATOM     27  C   UNL     1      -4.972  14.681  22.355  0.00  0.00    +0.000 C 
ATOM     28  C   UNL     1      -3.889  14.836  21.289  0.00  0.00    +0.000 C 
ATOM     29  C   UNL     1      -2.868  13.691  21.073  0.00  0.00    +0.000 C 
ENDBRANCH  21  22
ENDBRANCH  12  14
BRANCH   4  30
ATOM     30  C   UNL     1       2.568   6.242  18.276  0.00  0.00    +0.000 C 
BRANCH  30  31
ATOM     31  C   UNL     1       3.547   5.509  19.218  0.00  0.00    +0.000 C 
BRANCH  31  32
ATOM     32  O   UNL     1       3.001   5.436  20.542  0.00  0.00    +0.000 OA
ATOM     33  H   UNL     1       2.260   6.067  20.596  0.00  0.00    +0.000 HD
ENDBRANCH  31  32
BRANCH  31  34
ATOM     34  C   UNL     1       3.808   4.090  18.672  0.00  0.00    +0.000 C 
BRANCH  34  35
ATOM     35  O   UNL     1       5.129   3.631  18.941  0.00  0.00    +0.000 OA
ATOM     36  H   UNL     1       5.702   4.406  19.066  0.00  0.00    +0.000 HD
ENDBRANCH  34  35
ENDBRANCH  31  34
ENDBRANCH  30  31
ENDBRANCH   4  30
TORSDOF 7
ENDMDL
MODEL 5
REMARK VINA RESULT:      -6.4      4.563      6.877
REMARK  Name = 
REMARK  7 active torsions:
REMARK  status: ('A' for Active; 'I' for Inactive)
REMARK    1  A    between atoms: N_4  and  C_5
REMARK    2  A    between atoms: C_5  and  C_6
REMARK    3  A    between atoms: C_6  and  O_7
REMARK    4  A    between atoms: C_6  and  C_8
REMARK    5  A    between atoms: C_8  and  O_9
REMARK    6  A    between atoms: N_17  and  C_18
REMARK    7  A    between atoms: N_25  and  C_26
REMARK                            x       y       z     vdW  Elec       q    Type
REMARK                         _______ _______ _______ _____ _____    ______ ____
ROOT
ATOM      1  O   UNL     1      -2.953  13.193  21.939  0.00  0.00    +0.000 OA
ATOM      2  C   UNL     1      -3.252  12.755  20.852  0.00  0.00    +0.000 A 
ATOM      3  C   UNL     1      -4.791  12.535  20.582  0.00  0.00    +0.000 A 
ATOM      4  N   UNL     1      -5.699  12.935  21.565  0.00  0.00    +0.000 N 
ATOM      5  N   UNL     1      -5.226  12.020  19.497  0.00  0.00    +0.000 NA
ATOM      6  C   UNL     1      -4.304  11.667  18.493  0.00  0.00    +0.000 A 
ATOM      7  C   UNL     1      -4.851  11.217  17.278  0.00  0.00    +0.000 A 
ATOM      8  C   UNL     1      -4.036  10.945  16.182  0.00  0.00    +0.000 A 
ATOM      9  C   UNL     1      -2.662  11.012  16.329  0.00  0.00    +0.000 A 
ATOM     10  C   UNL     1      -2.117  11.347  17.565  0.00  0.00    +0.000 A 
ATOM     11  C   UNL     1      -2.922  11.786  18.632  0.00  0.00    +0.000 A 
ATOM     12  N   UNL     1      -2.367  12.401  19.806  0.00  0.00    +0.000 N 
ATOM     13  H   UNL     1      -5.354  13.507  22.319  0.00  0.00    +0.000 HD
ENDROOT
BRANCH  12  14
ATOM     14  C   UNL     1      -0.916  12.847  19.776  0.00  0.00    +0.000 C 
ATOM     15  C   UNL     1      -0.799  14.299  19.180  0.00  0.00    +0.000 C 
ATOM     16  C   UNL     1       0.454  15.092  19.544  0.00  0.00    +0.000 C 
ATOM     17  C   UNL     1       1.654  14.343  18.929  0.00  0.00    +0.000 C 
ATOM     18  C   UNL     1       2.061  13.360  20.010  0.00  0.00    +0.000 C 
ATOM     19  C   UNL     1       1.104  13.662  21.184  0.00  0.00    +0.000 C 
ATOM     20  C   UNL     1      -0.078  12.673  21.089  0.00  0.00    +0.000 C 
ATOM     21  N   UNL     1       0.710  15.095  20.992  0.00  0.00    +0.000 NA
BRANCH  21  22
ATOM     22  C   UNL     1      -0.363  15.661  21.919  0.00  0.00    +0.000 C 
ATOM     23  C   UNL     1      -0.304  15.021  23.337  0.00  0.00    +0.000 C 
ATOM     24  C   UNL     1      -1.448  15.390  24.326  0.00  0.00    +0.000 C 
ATOM     25  C   UNL     1      -1.671  16.798  24.932  0.00  0.00    +0.000 C 
ATOM     26  C   UNL     1      -0.451  17.599  25.374  0.00  0.00    +0.000 C 
ATOM     27  C   UNL     1      -0.046  18.626  24.325  0.00  0.00    +0.000 C 
ATOM     28  C   UNL     1       0.477  17.935  23.067  0.00  0.00    +0.000 C 
ATOM     29  C   UNL     1      -0.523  17.218  22.124  0.00  0.00    +0.000 C 
ENDBRANCH  21  22
ENDBRANCH  12  14
BRANCH   4  30
ATOM     30  C   UNL     1      -7.013  12.318  21.737  0.00  0.00    +0.000 C 
BRANCH  30  31
ATOM     31  C   UNL     1      -7.476  12.318  23.209  0.00  0.00    +0.000 C 
BRANCH  31  32
ATOM     32  O   UNL     1      -7.865  10.997  23.608  0.00  0.00    +0.000 OA
ATOM     33  H   UNL     1      -7.991  11.000  24.574  0.00  0.00    +0.000 HD
ENDBRANCH  31  32
BRANCH  31  34
ATOM     34  C   UNL     1      -6.324  12.825  24.103  0.00  0.00    +0.000 C 
BRANCH  34  35
ATOM     35  O   UNL     1      -5.485  11.773  24.569  0.00  0.00    +0.000 OA
ATOM     36  H   UNL     1      -4.927  12.122  25.285  0.00  0.00    +0.000 HD
ENDBRANCH  34  35
ENDBRANCH  31  34
ENDBRANCH  30  31
ENDBRANCH   4  30
TORSDOF 7
ENDMDL
MODEL 6
REMARK VINA RESULT:      -6.3      3.817      5.646
REMARK  Name = 
REMARK  7 active torsions:
REMARK  status: ('A' for Active; 'I' for Inactive)
REMARK    1  A    between atoms: N_4  and  C_5
REMARK    2  A    between atoms: C_5  and  C_6
REMARK    3  A    between atoms: C_6  and  O_7
REMARK    4  A    between atoms: C_6  and  C_8
REMARK    5  A    between atoms: C_8  and  O_9
REMARK    6  A    between atoms: N_17  and  C_18
REMARK    7  A    between atoms: N_25  and  C_26
REMARK                            x       y       z     vdW  Elec       q    Type
REMARK                         _______ _______ _______ _____ _____    ______ ____
ROOT
ATOM      1  O   UNL     1      -3.247  13.260  20.012  0.00  0.00    +0.000 OA
ATOM      2  C   UNL     1      -2.429  12.411  20.285  0.00  0.00    +0.000 A 
ATOM      3  C   UNL     1      -1.817  11.609  19.073  0.00  0.00    +0.000 A 
ATOM      4  N   UNL     1      -2.186  11.981  17.778  0.00  0.00    +0.000 N 
ATOM      5  N   UNL     1      -0.992  10.648  19.239  0.00  0.00    +0.000 NA
ATOM      6  C   UNL     1      -0.589  10.314  20.546  0.00  0.00    +0.000 A 
ATOM      7  C   UNL     1       0.409   9.329  20.656  0.00  0.00    +0.000 A 
ATOM      8  C   UNL     1       0.959   9.000  21.892  0.00  0.00    +0.000 A 
ATOM      9  C   UNL     1       0.435   9.572  23.039  0.00  0.00    +0.000 A 
ATOM     10  C   UNL     1      -0.631  10.462  22.938  0.00  0.00    +0.000 A 
ATOM     11  C   UNL     1      -1.085  10.932  21.693  0.00  0.00    +0.000 A 
ATOM     12  N   UNL     1      -1.980  12.051  21.578  0.00  0.00    +0.000 N 
ATOM     13  H   UNL     1      -2.679  12.853  17.662  0.00  0.00    +0.000 HD
ENDROOT
BRANCH  12  14
ATOM     14  C   UNL     1      -2.213  12.924  22.798  0.00  0.00    +0.000 C 
ATOM     15  C   UNL     1      -1.757  14.403  22.512  0.00  0.00    +0.000 C 
ATOM     16  C   UNL     1      -2.374  15.492  23.386  0.00  0.00    +0.000 C 
ATOM     17  C   UNL     1      -1.898  15.233  24.831  0.00  0.00    +0.000 C 
ATOM     18  C   UNL     1      -2.951  14.297  25.396  0.00  0.00    +0.000 C 
ATOM     19  C   UNL     1      -3.979  14.142  24.255  0.00  0.00    +0.000 C 
ATOM     20  C   UNL     1      -3.623  12.856  23.478  0.00  0.00    +0.000 C 
ATOM     21  N   UNL     1      -3.839  15.395  23.446  0.00  0.00    +0.000 NA
BRANCH  21  22
ATOM     22  C   UNL     1      -4.628  15.483  22.141  0.00  0.00    +0.000 C 
ATOM     23  C   UNL     1      -6.165  15.418  22.383  0.00  0.00    +0.000 C 
ATOM     24  C   UNL     1      -7.075  15.330  21.124  0.00  0.00    +0.000 C 
ATOM     25  C   UNL     1      -7.251  16.462  20.081  0.00  0.00    +0.000 C 
ATOM     26  C   UNL     1      -7.354  17.899  20.582  0.00  0.00    +0.000 C 
ATOM     27  C   UNL     1      -6.023  18.630  20.461  0.00  0.00    +0.000 C 
ATOM     28  C   UNL     1      -4.994  18.040  21.422  0.00  0.00    +0.000 C 
ATOM     29  C   UNL     1      -4.375  16.654  21.114  0.00  0.00    +0.000 C 
ENDBRANCH  21  22
ENDBRANCH  12  14
BRANCH   4  30
ATOM     30  C   UNL     1      -2.190  11.052  16.651  0.00  0.00    +0.000 C 
BRANCH  30  31
ATOM     31  C   UNL     1      -3.464  11.179  15.787  0.00  0.00    +0.000 C 
BRANCH  31  32
ATOM     32  O   UNL     1      -3.744   9.935  15.130  0.00  0.00    +0.000 OA
ATOM     33  H   UNL     1      -3.884   9.259  15.816  0.00  0.00    +0.000 HD
ENDBRANCH  31  32
BRANCH  31  34
ATOM     34  C   UNL     1      -4.649  11.581  16.690  0.00  0.00    +0.000 C 
BRANCH  34  35
ATOM     35  O   UNL     1      -4.874  10.657  17.749  0.00  0.00    +0.000 OA
ATOM     36  H   UNL     1      -4.965  11.158  18.577  0.00  0.00    +0.000 HD
ENDBRANCH  34  35
ENDBRANCH  31  34
ENDBRANCH  30  31
ENDBRANCH   4  30
TORSDOF 7
ENDMDL
MODEL 7
REMARK VINA RESULT:      -6.3      3.141      7.450
REMARK  Name = 
REMARK  7 active torsions:
REMARK  status: ('A' for Active; 'I' for Inactive)
REMARK    1  A    between atoms: N_4  and  C_5
REMARK    2  A    between atoms: C_5  and  C_6
REMARK    3  A    between atoms: C_6  and  O_7
REMARK    4  A    between atoms: C_6  and  C_8
REMARK    5  A    between atoms: C_8  and  O_9
REMARK    6  A    between atoms: N_17  and  C_18
REMARK    7  A    between atoms: N_25  and  C_26
REMARK                            x       y       z     vdW  Elec       q    Type
REMARK                         _______ _______ _______ _____ _____    ______ ____
ROOT
ATOM      1  O   UNL     1       1.969  13.356  20.995  0.00  0.00    +0.000 OA
ATOM      2  C   UNL     1       1.829  14.299  20.250  0.00  0.00    +0.000 A 
ATOM      3  C   UNL     1       3.147  15.039  19.798  0.00  0.00    +0.000 A 
ATOM      4  N   UNL     1       4.375  14.515  20.208  0.00  0.00    +0.000 N 
ATOM      5  N   UNL     1       3.124  16.084  19.065  0.00  0.00    +0.000 NA
ATOM      6  C   UNL     1       1.883  16.576  18.616  0.00  0.00    +0.000 A 
ATOM      7  C   UNL     1       1.931  17.656  17.717  0.00  0.00    +0.000 A 
ATOM      8  C   UNL     1       0.770  18.149  17.127  0.00  0.00    +0.000 A 
ATOM      9  C   UNL     1      -0.457  17.640  17.519  0.00  0.00    +0.000 A 
ATOM     10  C   UNL     1      -0.510  16.648  18.494  0.00  0.00    +0.000 A 
ATOM     11  C   UNL     1       0.654  16.024  18.976  0.00  0.00    +0.000 A 
ATOM     12  N   UNL     1       0.608  14.819  19.759  0.00  0.00    +0.000 N 
ATOM     13  H   UNL     1       4.380  13.594  20.617  0.00  0.00    +0.000 HD
ENDROOT
BRANCH  12  14
ATOM     14  C   UNL     1      -0.697  14.046  19.828  0.00  0.00    +0.000 C 
ATOM     15  C   UNL     1      -0.807  13.046  18.617  0.00  0.00    +0.000 C 
ATOM     16  C   UNL     1      -1.750  11.858  18.793  0.00  0.00    +0.000 C 
ATOM     17  C   UNL     1      -3.176  12.432  18.928  0.00  0.00    +0.000 C 
ATOM     18  C   UNL     1      -3.331  12.671  20.419  0.00  0.00    +0.000 C 
ATOM     19  C   UNL     1      -2.008  12.159  21.029  0.00  0.00    +0.000 C 
ATOM     20  C   UNL     1      -1.069  13.373  21.193  0.00  0.00    +0.000 C 
ATOM     21  N   UNL     1      -1.511  11.138  20.052  0.00  0.00    +0.000 NA
BRANCH  21  22
ATOM     22  C   UNL     1      -0.125  10.544  20.297  0.00  0.00    +0.000 C 
ATOM     23  C   UNL     1      -0.204   9.079  20.820  0.00  0.00    +0.000 C 
ATOM     24  C   UNL     1       1.132   8.417  21.268  0.00  0.00    +0.000 C 
ATOM     25  C   UNL     1       2.298   8.053  20.316  0.00  0.00    +0.000 C 
ATOM     26  C   UNL     1       1.963   7.457  18.953  0.00  0.00    +0.000 C 
ATOM     27  C   UNL     1       2.013   8.510  17.855  0.00  0.00    +0.000 C 
ATOM     28  C   UNL     1       0.889   9.529  18.032  0.00  0.00    +0.000 C 
ATOM     29  C   UNL     1       0.983  10.571  19.174  0.00  0.00    +0.000 C 
ENDBRANCH  21  22
ENDBRANCH  12  14
BRANCH   4  30
ATOM     30  C   UNL     1       5.576  15.330  20.375  0.00  0.00    +0.000 C 
BRANCH  30  31
ATOM     31  C   UNL     1       6.479  15.314  19.123  0.00  0.00    +0.000 C 
BRANCH  31  32
ATOM     32  O   UNL     1       5.803  14.673  18.032  0.00  0.00    +0.000 OA
ATOM     33  H   UNL     1       5.044  15.229  17.782  0.00  0.00    +0.000 HD
ENDBRANCH  31  32
BRANCH  31  34
ATOM     34  C   UNL     1       6.843  16.765  18.744  0.00  0.00    +0.000 C 
BRANCH  34  35
ATOM     35  O   UNL     1       5.778  17.680  18.980  0.00  0.00    +0.000 OA
ATOM     36  H   UNL     1       5.588  17.687  19.933  0.00  0.00    +0.000 HD
ENDBRANCH  34  35
ENDBRANCH  31  34
ENDBRANCH  30  31
ENDBRANCH   4  30
TORSDOF 7
ENDMDL
MODEL 8
REMARK VINA RESULT:      -6.2      3.418      5.963
REMARK  Name = 
REMARK  7 active torsions:
REMARK  status: ('A' for Active; 'I' for Inactive)
REMARK    1  A    between atoms: N_4  and  C_5
REMARK    2  A    between atoms: C_5  and  C_6
REMARK    3  A    between atoms: C_6  and  O_7
REMARK    4  A    between atoms: C_6  and  C_8
REMARK    5  A    between atoms: C_8  and  O_9
REMARK    6  A    between atoms: N_17  and  C_18
REMARK    7  A    between atoms: N_25  and  C_26
REMARK                            x       y       z     vdW  Elec       q    Type
REMARK                         _______ _______ _______ _____ _____    ______ ____
ROOT
ATOM      1  O   UNL     1      -1.069  12.793  21.676  0.00  0.00    +0.000 OA
ATOM      2  C   UNL     1      -1.686  12.406  20.710  0.00  0.00    +0.000 A 
ATOM      3  C   UNL     1      -0.845  11.709  19.572  0.00  0.00    +0.000 A 
ATOM      4  N   UNL     1       0.520  11.505  19.787  0.00  0.00    +0.000 N 
ATOM      5  N   UNL     1      -1.374  11.316  18.478  0.00  0.00    +0.000 NA
ATOM      6  C   UNL     1      -2.760  11.481  18.293  0.00  0.00    +0.000 A 
ATOM      7  C   UNL     1      -3.301  10.923  17.121  0.00  0.00    +0.000 A 
ATOM      8  C   UNL     1      -4.675  10.932  16.890  0.00  0.00    +0.000 A 
ATOM      9  C   UNL     1      -5.504  11.600  17.774  0.00  0.00    +0.000 A 
ATOM     10  C   UNL     1      -4.954  12.251  18.876  0.00  0.00    +0.000 A 
ATOM     11  C   UNL     1      -3.597  12.110  19.214  0.00  0.00    +0.000 A 
ATOM     12  N   UNL     1      -3.077  12.533  20.486  0.00  0.00    +0.000 N 
ATOM     13  H   UNL     1       0.874  11.644  20.720  0.00  0.00    +0.000 HD
ENDROOT
BRANCH  12  14
ATOM     14  C   UNL     1      -4.058  12.873  21.594  0.00  0.00    +0.000 C 
ATOM     15  C   UNL     1      -3.486  12.425  22.990  0.00  0.00    +0.000 C 
ATOM     16  C   UNL     1      -4.054  13.126  24.221  0.00  0.00    +0.000 C 
ATOM     17  C   UNL     1      -5.550  12.755  24.300  0.00  0.00    +0.000 C 
ATOM     18  C   UNL     1      -6.234  13.829  23.473  0.00  0.00    +0.000 C 
ATOM     19  C   UNL     1      -5.086  14.766  23.038  0.00  0.00    +0.000 C 
ATOM     20  C   UNL     1      -4.637  14.329  21.627  0.00  0.00    +0.000 C 
ATOM     21  N   UNL     1      -4.033  14.590  24.089  0.00  0.00    +0.000 NA
BRANCH  21  22
ATOM     22  C   UNL     1      -2.690  15.281  23.864  0.00  0.00    +0.000 C 
ATOM     23  C   UNL     1      -2.834  16.830  23.805  0.00  0.00    +0.000 C 
ATOM     24  C   UNL     1      -1.566  17.642  23.413  0.00  0.00    +0.000 C 
ATOM     25  C   UNL     1      -0.289  17.758  24.284  0.00  0.00    +0.000 C 
ATOM     26  C   UNL     1      -0.452  17.921  25.791  0.00  0.00    +0.000 C 
ATOM     27  C   UNL     1      -0.264  16.597  26.520  0.00  0.00    +0.000 C 
ATOM     28  C   UNL     1      -1.401  15.633  26.188  0.00  0.00    +0.000 C 
ATOM     29  C   UNL     1      -1.450  14.970  24.789  0.00  0.00    +0.000 C 
ENDBRANCH  21  22
ENDBRANCH  12  14
BRANCH   4  30
ATOM     30  C   UNL     1       1.496  11.426  18.703  0.00  0.00    +0.000 C 
BRANCH  30  31
ATOM     31  C   UNL     1       2.450  12.639  18.678  0.00  0.00    +0.000 C 
BRANCH  31  32
ATOM     32  O   UNL     1       2.413  13.274  17.392  0.00  0.00    +0.000 OA
ATOM     33  H   UNL     1       2.894  14.118  17.461  0.00  0.00    +0.000 HD
ENDBRANCH  31  32
BRANCH  31  34
ATOM     34  C   UNL     1       2.029  13.637  19.776  0.00  0.00    +0.000 C 
BRANCH  34  35
ATOM     35  O   UNL     1       2.492  13.261  21.069  0.00  0.00    +0.000 OA
ATOM     36  H   UNL     1       3.386  12.891  20.977  0.00  0.00    +0.000 HD
ENDBRANCH  34  35
ENDBRANCH  31  34
ENDBRANCH  30  31
ENDBRANCH   4  30
TORSDOF 7
ENDMDL
MODEL 9
REMARK VINA RESULT:      -6.2      3.537      7.157
REMARK  Name = 
REMARK  7 active torsions:
REMARK  status: ('A' for Active; 'I' for Inactive)
REMARK    1  A    between atoms: N_4  and  C_5
REMARK    2  A    between atoms: C_5  and  C_6
REMARK    3  A    between atoms: C_6  and  O_7
REMARK    4  A    between atoms: C_6  and  C_8
REMARK    5  A    between atoms: C_8  and  O_9
REMARK    6  A    between atoms: N_17  and  C_18
REMARK    7  A    between atoms: N_25  and  C_26
REMARK                            x       y       z     vdW  Elec       q    Type
REMARK                         _______ _______ _______ _____ _____    ______ ____
ROOT
ATOM      1  O   UNL     1       1.582  14.153  21.903  0.00  0.00    +0.000 OA
ATOM      2  C   UNL     1       1.440  14.925  20.982  0.00  0.00    +0.000 A 
ATOM      3  C   UNL     1       2.753  15.378  20.235  0.00  0.00    +0.000 A 
ATOM      4  N   UNL     1       3.966  14.802  20.620  0.00  0.00    +0.000 N 
ATOM      5  N   UNL     1       2.737  16.236  19.290  0.00  0.00    +0.000 NA
ATOM      6  C   UNL     1       1.503  16.774  18.877  0.00  0.00    +0.000 A 
ATOM      7  C   UNL     1       1.539  17.622  17.756  0.00  0.00    +0.000 A 
ATOM      8  C   UNL     1       0.365  18.121  17.197  0.00  0.00    +0.000 A 
ATOM      9  C   UNL     1      -0.843  17.867  17.824  0.00  0.00    +0.000 A 
ATOM     10  C   UNL     1      -0.865  17.122  18.999  0.00  0.00    +0.000 A 
ATOM     11  C   UNL     1       0.284  16.472  19.483  0.00  0.00    +0.000 A 
ATOM     12  N   UNL     1       0.222  15.479  20.520  0.00  0.00    +0.000 N 
ATOM     13  H   UNL     1       3.933  13.997  21.225  0.00  0.00    +0.000 HD
ENDROOT
BRANCH  12  14
ATOM     14  C   UNL     1      -1.133  14.911  20.902  0.00  0.00    +0.000 C 
ATOM     15  C   UNL     1      -1.479  13.664  20.006  0.00  0.00    +0.000 C 
ATOM     16  C   UNL     1      -2.502  12.680  20.566  0.00  0.00    +0.000 C 
ATOM     17  C   UNL     1      -3.842  13.437  20.676  0.00  0.00    +0.000 C 
ATOM     18  C   UNL     1      -3.798  14.053  22.062  0.00  0.00    +0.000 C 
ATOM     19  C   UNL     1      -2.466  13.551  22.662  0.00  0.00    +0.000 C 
ATOM     20  C   UNL     1      -1.404  14.645  22.423  0.00  0.00    +0.000 C 
ATOM     21  N   UNL     1      -2.186  12.268  21.941  0.00  0.00    +0.000 NA
BRANCH  21  22
ATOM     22  C   UNL     1      -0.843  11.589  22.207  0.00  0.00    +0.000 C 
ATOM     23  C   UNL     1      -1.016  10.218  22.924  0.00  0.00    +0.000 C 
ATOM     24  C   UNL     1       0.282   9.503  23.401  0.00  0.00    +0.000 C 
ATOM     25  C   UNL     1       1.362   8.915  22.458  0.00  0.00    +0.000 C 
ATOM     26  C   UNL     1       0.907   8.180  21.203  0.00  0.00    +0.000 C 
ATOM     27  C   UNL     1       0.985   9.072  19.972  0.00  0.00    +0.000 C 
ATOM     28  C   UNL     1      -0.039  10.202  20.058  0.00  0.00    +0.000 C 
ATOM     29  C   UNL     1       0.202  11.371  21.045  0.00  0.00    +0.000 C 
ENDBRANCH  21  22
ENDBRANCH  12  14
BRANCH   4  30
ATOM     30  C   UNL     1       5.254  15.474  20.467  0.00  0.00    +0.000 C 
BRANCH  30  31
ATOM     31  C   UNL     1       6.005  15.620  21.808  0.00  0.00    +0.000 C 
BRANCH  31  32
ATOM     32  O   UNL     1       5.652  16.857  22.443  0.00  0.00    +0.000 OA
ATOM     33  H   UNL     1       5.138  16.646  23.244  0.00  0.00    +0.000 HD
ENDBRANCH  31  32
BRANCH  31  34
ATOM     34  C   UNL     1       5.644  14.431  22.723  0.00  0.00    +0.000 C 
BRANCH  34  35
ATOM     35  O   UNL     1       4.394  14.603  23.383  0.00  0.00    +0.000 OA
ATOM     36  H   UNL     1       3.687  14.534  22.719  0.00  0.00    +0.000 HD
ENDBRANCH  34  35
ENDBRANCH  31  34
ENDBRANCH  30  31
ENDBRANCH   4  30
TORSDOF 7
ENDMDL
