MODEL 1
REMARK VINA RESULT:      -8.5      0.000      0.000
REMARK  Name = 
REMARK  6 active torsions:
REMARK  status: ('A' for Active; 'I' for Inactive)
REMARK    1  A    between atoms: C_1  and  C_2
REMARK    2  A    between atoms: C_6  and  C_7
REMARK    3  A    between atoms: C_8  and  O_9
REMARK    4  A    between atoms: O_9  and  C_10
REMARK    5  A    between atoms: C_10  and  C_11
REMARK    6  A    between atoms: N_18  and  C_19
REMARK                            x       y       z     vdW  Elec       q    Type
REMARK                         _______ _______ _______ _____ _____    ______ ____
ROOT
ATOM      1  C   UNL     1       4.330   5.603  17.614  0.00  0.00    +0.000 A 
ATOM      2  N   UNL     1       4.608   6.201  16.464  0.00  0.00    +0.000 NA
ATOM      3  N   UNL     1       3.974   7.430  16.439  0.00  0.00    +0.000 NA
ATOM      4  C   UNL     1       3.340   7.545  17.577  0.00  0.00    +0.000 A 
ATOM      5  C   UNL     1       2.492   8.596  18.113  0.00  0.00    +0.000 A 
ATOM      6  C   UNL     1       1.986   9.799  17.667  0.00  0.00    +0.000 A 
ATOM      7  N   UNL     1       1.184  10.348  18.583  0.00  0.00    +0.000 NA
ATOM      8  N   UNL     1       1.203   9.489  19.659  0.00  0.00    +0.000 N 
ATOM      9  C   UNL     1       2.011   8.374  19.387  0.00  0.00    +0.000 A 
ATOM     10  N   UNL     1       2.249   7.274  20.180  0.00  0.00    +0.000 NA
ATOM     11  C   UNL     1       2.994   6.335  19.645  0.00  0.00    +0.000 A 
ATOM     12  N   UNL     1       3.537   6.439  18.360  0.00  0.00    +0.000 N 
ENDROOT
BRANCH   8  13
ATOM     13  C   UNL     1       0.455   9.811  20.829  0.00  0.00    +0.000 A 
ATOM     14  C   UNL     1      -0.298  11.000  20.846  0.00  0.00    +0.000 A 
ATOM     15  C   UNL     1      -1.038  11.355  21.977  0.00  0.00    +0.000 A 
ATOM     16  C   UNL     1      -1.026  10.538  23.102  0.00  0.00    +0.000 A 
ATOM     17  C   UNL     1      -0.278   9.361  23.098  0.00  0.00    +0.000 A 
ATOM     18  C   UNL     1       0.455   8.994  21.963  0.00  0.00    +0.000 A 
ENDBRANCH   8  13
BRANCH   1  19
ATOM     19  C   UNL     1       4.877   4.308  18.094  0.00  0.00    +0.000 C 
BRANCH  19  20
ATOM     20  O   UNL     1       3.857   3.322  18.010  0.00  0.00    +0.000 OA
BRANCH  20  28
ATOM     21  C   UNL     1       4.834   2.057  20.751  0.00  0.00    +0.000 C 
ATOM     22  C   UNL     1       3.453   2.509  20.356  0.00  0.00    +0.000 A 
ATOM     23  C   UNL     1       2.470   2.354  21.363  0.00  0.00    +0.000 A 
ATOM     24  C   UNL     1       1.147   2.717  21.166  0.00  0.00    +0.000 A 
ATOM     25  C   UNL     1       0.763   3.244  19.942  0.00  0.00    +0.000 A 
ATOM     26  C   UNL     1       1.704   3.416  18.915  0.00  0.00    +0.000 A 
ATOM     27  C   UNL     1       1.214   3.983  17.603  0.00  0.00    +0.000 C 
ATOM     28  C   UNL     1       3.067   3.055  19.109  0.00  0.00    +0.000 A 
ENDBRANCH  20  28
ENDBRANCH  19  20
ENDBRANCH   1  19
TORSDOF 4
ENDMDL
MODEL 2
REMARK VINA RESULT:      -8.4      1.989      3.402
REMARK  Name = 
REMARK  6 active torsions:
REMARK  status: ('A' for Active; 'I' for Inactive)
REMARK    1  A    between atoms: C_1  and  C_2
REMARK    2  A    between atoms: C_6  and  C_7
REMARK    3  A    between atoms: C_8  and  O_9
REMARK    4  A    between atoms: O_9  and  C_10
REMARK    5  A    between atoms: C_10  and  C_11
REMARK    6  A    between atoms: N_18  and  C_19
REMARK                            x       y       z     vdW  Elec       q    Type
REMARK                         _______ _______ _______ _____ _____    ______ ____
ROOT
ATOM      1  C   UNL     1       2.183   7.895  18.936  0.00  0.00    +0.000 A 
ATOM      2  N   UNL     1       2.514   8.369  17.743  0.00  0.00    +0.000 NA
ATOM      3  N   UNL     1       2.012   9.652  17.621  0.00  0.00    +0.000 NA
ATOM      4  C   UNL     1       1.401   9.921  18.745  0.00  0.00    +0.000 A 
ATOM      5  C   UNL     1       0.670  11.093  19.196  0.00  0.00    +0.000 A 
ATOM      6  C   UNL     1       0.288  12.304  18.656  0.00  0.00    +0.000 A 
ATOM      7  N   UNL     1      -0.446  13.004  19.525  0.00  0.00    +0.000 NA
ATOM      8  N   UNL     1      -0.509  12.234  20.665  0.00  0.00    +0.000 N 
ATOM      9  C   UNL     1       0.176  11.023  20.482  0.00  0.00    +0.000 A 
ATOM     10  N   UNL     1       0.304   9.969  21.360  0.00  0.00    +0.000 NA
ATOM     11  C   UNL     1       0.943   8.919  20.901  0.00  0.00    +0.000 A 
ATOM     12  N   UNL     1       1.486   8.865  19.613  0.00  0.00    +0.000 N 
ENDROOT
BRANCH   8  13
ATOM     13  C   UNL     1      -1.213  12.723  21.805  0.00  0.00    +0.000 A 
ATOM     14  C   UNL     1      -0.641  13.765  22.558  0.00  0.00    +0.000 A 
ATOM     15  C   UNL     1      -1.294  14.266  23.687  0.00  0.00    +0.000 A 
ATOM     16  C   UNL     1      -2.515  13.728  24.081  0.00  0.00    +0.000 A 
ATOM     17  C   UNL     1      -3.087  12.691  23.345  0.00  0.00    +0.000 A 
ATOM     18  C   UNL     1      -2.443  12.194  22.207  0.00  0.00    +0.000 A 
ENDBRANCH   8  13
BRANCH   1  19
ATOM     19  C   UNL     1       2.595   6.592  19.517  0.00  0.00    +0.000 C 
BRANCH  19  20
ATOM     20  O   UNL     1       1.858   5.555  18.883  0.00  0.00    +0.000 OA
BRANCH  20  28
ATOM     21  C   UNL     1       4.301   5.186  16.894  0.00  0.00    +0.000 C 
ATOM     22  C   UNL     1       3.577   4.146  17.706  0.00  0.00    +0.000 A 
ATOM     23  C   UNL     1       4.077   2.829  17.560  0.00  0.00    +0.000 A 
ATOM     24  C   UNL     1       3.524   1.751  18.234  0.00  0.00    +0.000 A 
ATOM     25  C   UNL     1       2.441   1.959  19.076  0.00  0.00    +0.000 A 
ATOM     26  C   UNL     1       1.914   3.248  19.250  0.00  0.00    +0.000 A 
ATOM     27  C   UNL     1       0.726   3.400  20.171  0.00  0.00    +0.000 C 
ATOM     28  C   UNL     1       2.478   4.363  18.571  0.00  0.00    +0.000 A 
ENDBRANCH  20  28
ENDBRANCH  19  20
ENDBRANCH   1  19
TORSDOF 4
ENDMDL
MODEL 3
REMARK VINA RESULT:      -8.4      2.020      3.463
REMARK  Name = 
REMARK  6 active torsions:
REMARK  status: ('A' for Active; 'I' for Inactive)
REMARK    1  A    between atoms: C_1  and  C_2
REMARK    2  A    between atoms: C_6  and  C_7
REMARK    3  A    between atoms: C_8  and  O_9
REMARK    4  A    between atoms: O_9  and  C_10
REMARK    5  A    between atoms: C_10  and  C_11
REMARK    6  A    between atoms: N_18  and  C_19
REMARK                            x       y       z     vdW  Elec       q    Type
REMARK                         _______ _______ _______ _____ _____    ______ ____
ROOT
ATOM      1  C   UNL     1       2.142   8.122  18.713  0.00  0.00    +0.000 A 
ATOM      2  N   UNL     1       2.543   8.666  17.573  0.00  0.00    +0.000 NA
ATOM      3  N   UNL     1       2.063   9.962  17.508  0.00  0.00    +0.000 NA
ATOM      4  C   UNL     1       1.395  10.167  18.613  0.00  0.00    +0.000 A 
ATOM      5  C   UNL     1       0.655  11.319  19.100  0.00  0.00    +0.000 A 
ATOM      6  C   UNL     1       0.317  12.568  18.620  0.00  0.00    +0.000 A 
ATOM      7  N   UNL     1      -0.454  13.222  19.492  0.00  0.00    +0.000 NA
ATOM      8  N   UNL     1      -0.589  12.381  20.574  0.00  0.00    +0.000 N 
ATOM      9  C   UNL     1       0.091  11.175  20.351  0.00  0.00    +0.000 A 
ATOM     10  N   UNL     1       0.159  10.064  21.163  0.00  0.00    +0.000 NA
ATOM     11  C   UNL     1       0.809   9.037  20.672  0.00  0.00    +0.000 A 
ATOM     12  N   UNL     1       1.421   9.057  19.414  0.00  0.00    +0.000 N 
ENDROOT
BRANCH   8  13
ATOM     13  C   UNL     1      -1.347  12.807  21.705  0.00  0.00    +0.000 A 
ATOM     14  C   UNL     1      -0.747  13.675  22.636  0.00  0.00    +0.000 A 
ATOM     15  C   UNL     1      -1.454  14.107  23.761  0.00  0.00    +0.000 A 
ATOM     16  C   UNL     1      -2.758  13.672  23.974  0.00  0.00    +0.000 A 
ATOM     17  C   UNL     1      -3.359  12.808  23.060  0.00  0.00    +0.000 A 
ATOM     18  C   UNL     1      -2.660  12.381  21.926  0.00  0.00    +0.000 A 
ENDBRANCH   8  13
BRANCH   1  19
ATOM     19  C   UNL     1       2.507   6.778  19.230  0.00  0.00    +0.000 C 
BRANCH  19  20
ATOM     20  O   UNL     1       2.217   5.810  18.230  0.00  0.00    +0.000 OA
BRANCH  20  28
ATOM     21  C   UNL     1       0.746   3.842  20.237  0.00  0.00    +0.000 C 
ATOM     22  C   UNL     1       1.901   3.562  19.313  0.00  0.00    +0.000 A 
ATOM     23  C   UNL     1       2.376   2.228  19.347  0.00  0.00    +0.000 A 
ATOM     24  C   UNL     1       3.435   1.801  18.562  0.00  0.00    +0.000 A 
ATOM     25  C   UNL     1       4.061   2.705  17.717  0.00  0.00    +0.000 A 
ATOM     26  C   UNL     1       3.624   4.037  17.650  0.00  0.00    +0.000 A 
ATOM     27  C   UNL     1       4.361   4.970  16.718  0.00  0.00    +0.000 C 
ATOM     28  C   UNL     1       2.533   4.485  18.445  0.00  0.00    +0.000 A 
ENDBRANCH  20  28
ENDBRANCH  19  20
ENDBRANCH   1  19
TORSDOF 4
ENDMDL
MODEL 4
REMARK VINA RESULT:      -8.4      2.578      8.208
REMARK  Name = 
REMARK  6 active torsions:
REMARK  status: ('A' for Active; 'I' for Inactive)
REMARK    1  A    between atoms: C_1  and  C_2
REMARK    2  A    between atoms: C_6  and  C_7
REMARK    3  A    between atoms: C_8  and  O_9
REMARK    4  A    between atoms: O_9  and  C_10
REMARK    5  A    between atoms: C_10  and  C_11
REMARK    6  A    between atoms: N_18  and  C_19
REMARK                            x       y       z     vdW  Elec       q    Type
REMARK                         _______ _______ _______ _____ _____    ______ ____
ROOT
ATOM      1  C   UNL     1       1.457   8.353  19.975  0.00  0.00    +0.000 A 
ATOM      2  N   UNL     1       1.153   7.570  21.000  0.00  0.00    +0.000 NA
ATOM      3  N   UNL     1       1.789   6.353  20.833  0.00  0.00    +0.000 NA
ATOM      4  C   UNL     1       2.466   6.437  19.719  0.00  0.00    +0.000 A 
ATOM      5  C   UNL     1       3.305   5.479  19.018  0.00  0.00    +0.000 A 
ATOM      6  C   UNL     1       3.670   4.159  19.185  0.00  0.00    +0.000 A 
ATOM      7  N   UNL     1       4.443   3.748  18.176  0.00  0.00    +0.000 NA
ATOM      8  N   UNL     1       4.604   4.844  17.358  0.00  0.00    +0.000 N 
ATOM      9  C   UNL     1       3.891   5.944  17.859  0.00  0.00    +0.000 A 
ATOM     10  N   UNL     1       3.757   7.201  17.312  0.00  0.00    +0.000 NA
ATOM     11  C   UNL     1       2.966   8.023  17.959  0.00  0.00    +0.000 A 
ATOM     12  N   UNL     1       2.310   7.670  19.143  0.00  0.00    +0.000 N 
ENDROOT
BRANCH   8  13
ATOM     13  C   UNL     1       5.412   4.735  16.188  0.00  0.00    +0.000 A 
ATOM     14  C   UNL     1       6.712   5.273  16.209  0.00  0.00    +0.000 A 
ATOM     15  C   UNL     1       7.532   5.195  15.081  0.00  0.00    +0.000 A 
ATOM     16  C   UNL     1       7.062   4.590  13.920  0.00  0.00    +0.000 A 
ATOM     17  C   UNL     1       5.773   4.059  13.886  0.00  0.00    +0.000 A 
ATOM     18  C   UNL     1       4.953   4.124  15.017  0.00  0.00    +0.000 A 
ENDBRANCH   8  13
BRANCH   1  19
ATOM     19  C   UNL     1       1.065   9.774  19.797  0.00  0.00    +0.000 C 
BRANCH  19  20
ATOM     20  O   UNL     1      -0.335   9.892  20.015  0.00  0.00    +0.000 OA
BRANCH  20  28
ATOM     21  C   UNL     1      -0.266   9.801  23.185  0.00  0.00    +0.000 C 
ATOM     22  C   UNL     1      -0.798  10.880  22.281  0.00  0.00    +0.000 A 
ATOM     23  C   UNL     1      -1.325  12.009  22.955  0.00  0.00    +0.000 A 
ATOM     24  C   UNL     1      -1.859  13.092  22.274  0.00  0.00    +0.000 A 
ATOM     25  C   UNL     1      -1.888  13.075  20.888  0.00  0.00    +0.000 A 
ATOM     26  C   UNL     1      -1.377  11.977  20.179  0.00  0.00    +0.000 A 
ATOM     27  C   UNL     1      -1.454  12.020  18.671  0.00  0.00    +0.000 C 
ATOM     28  C   UNL     1      -0.819  10.864  20.866  0.00  0.00    +0.000 A 
ENDBRANCH  20  28
ENDBRANCH  19  20
ENDBRANCH   1  19
TORSDOF 4
ENDMDL
MODEL 5
REMARK VINA RESULT:      -8.4      2.060      3.448
REMARK  Name = 
REMARK  6 active torsions:
REMARK  status: ('A' for Active; 'I' for Inactive)
REMARK    1  A    between atoms: C_1  and  C_2
REMARK    2  A    between atoms: C_6  and  C_7
REMARK    3  A    between atoms: C_8  and  O_9
REMARK    4  A    between atoms: O_9  and  C_10
REMARK    5  A    between atoms: C_10  and  C_11
REMARK    6  A    between atoms: N_18  and  C_19
REMARK                            x       y       z     vdW  Elec       q    Type
REMARK                         _______ _______ _______ _____ _____    ______ ____
ROOT
ATOM      1  C   UNL     1       2.182   8.144  18.698  0.00  0.00    +0.000 A 
ATOM      2  N   UNL     1       2.686   8.800  17.662  0.00  0.00    +0.000 NA
ATOM      3  N   UNL     1       2.093  10.048  17.597  0.00  0.00    +0.000 NA
ATOM      4  C   UNL     1       1.256  10.115  18.599  0.00  0.00    +0.000 A 
ATOM      5  C   UNL     1       0.342  11.158  19.031  0.00  0.00    +0.000 A 
ATOM      6  C   UNL     1      -0.046  12.401  18.575  0.00  0.00    +0.000 A 
ATOM      7  N   UNL     1      -0.997  12.921  19.356  0.00  0.00    +0.000 NA
ATOM      8  N   UNL     1      -1.200  11.999  20.359  0.00  0.00    +0.000 N 
ATOM      9  C   UNL     1      -0.377  10.877  20.174  0.00  0.00    +0.000 A 
ATOM     10  N   UNL     1      -0.316   9.725  20.926  0.00  0.00    +0.000 NA
ATOM     11  C   UNL     1       0.498   8.797  20.483  0.00  0.00    +0.000 A 
ATOM     12  N   UNL     1       1.278   8.959  19.333  0.00  0.00    +0.000 N 
ENDROOT
BRANCH   8  13
ATOM     13  C   UNL     1      -2.151  12.275  21.385  0.00  0.00    +0.000 A 
ATOM     14  C   UNL     1      -3.440  12.705  21.018  0.00  0.00    +0.000 A 
ATOM     15  C   UNL     1      -4.397  12.994  21.993  0.00  0.00    +0.000 A 
ATOM     16  C   UNL     1      -4.078  12.867  23.341  0.00  0.00    +0.000 A 
ATOM     17  C   UNL     1      -2.803  12.447  23.716  0.00  0.00    +0.000 A 
ATOM     18  C   UNL     1      -1.844  12.145  22.743  0.00  0.00    +0.000 A 
ENDBRANCH   8  13
BRANCH   1  19
ATOM     19  C   UNL     1       2.602   6.807  19.189  0.00  0.00    +0.000 C 
BRANCH  19  20
ATOM     20  O   UNL     1       2.305   5.839  18.191  0.00  0.00    +0.000 OA
BRANCH  20  28
ATOM     21  C   UNL     1       0.798   3.976  20.270  0.00  0.00    +0.000 C 
ATOM     22  C   UNL     1       1.918   3.629  19.327  0.00  0.00    +0.000 A 
ATOM     23  C   UNL     1       2.335   2.276  19.378  0.00  0.00    +0.000 A 
ATOM     24  C   UNL     1       3.357   1.788  18.579  0.00  0.00    +0.000 A 
ATOM     25  C   UNL     1       4.002   2.647  17.701  0.00  0.00    +0.000 A 
ATOM     26  C   UNL     1       3.621   3.995  17.617  0.00  0.00    +0.000 A 
ATOM     27  C   UNL     1       4.375   4.877  16.650  0.00  0.00    +0.000 C 
ATOM     28  C   UNL     1       2.568   4.506  18.426  0.00  0.00    +0.000 A 
ENDBRANCH  20  28
ENDBRANCH  19  20
ENDBRANCH   1  19
TORSDOF 4
ENDMDL
MODEL 6
REMARK VINA RESULT:      -8.4      2.048      3.452
REMARK  Name = 
REMARK  6 active torsions:
REMARK  status: ('A' for Active; 'I' for Inactive)
REMARK    1  A    between atoms: C_1  and  C_2
REMARK    2  A    between atoms: C_6  and  C_7
REMARK    3  A    between atoms: C_8  and  O_9
REMARK    4  A    between atoms: O_9  and  C_10
REMARK    5  A    between atoms: C_10  and  C_11
REMARK    6  A    between atoms: N_18  and  C_19
REMARK                            x       y       z     vdW  Elec       q    Type
REMARK                         _______ _______ _______ _____ _____    ______ ____
ROOT
ATOM      1  C   UNL     1       2.186   8.060  18.788  0.00  0.00    +0.000 A 
ATOM      2  N   UNL     1       2.631   8.665  17.696  0.00  0.00    +0.000 NA
ATOM      3  N   UNL     1       1.998   9.889  17.579  0.00  0.00    +0.000 NA
ATOM      4  C   UNL     1       1.197   9.994  18.606  0.00  0.00    +0.000 A 
ATOM      5  C   UNL     1       0.267  11.036  19.009  0.00  0.00    +0.000 A 
ATOM      6  C   UNL     1      -0.175  12.237  18.494  0.00  0.00    +0.000 A 
ATOM      7  N   UNL     1      -1.112  12.776  19.278  0.00  0.00    +0.000 NA
ATOM      8  N   UNL     1      -1.251  11.912  20.341  0.00  0.00    +0.000 N 
ATOM      9  C   UNL     1      -0.401  10.805  20.193  0.00  0.00    +0.000 A 
ATOM     10  N   UNL     1      -0.278   9.703  21.010  0.00  0.00    +0.000 NA
ATOM     11  C   UNL     1       0.547   8.773  20.593  0.00  0.00    +0.000 A 
ATOM     12  N   UNL     1       1.281   8.886  19.407  0.00  0.00    +0.000 N 
ENDROOT
BRANCH   8  13
ATOM     13  C   UNL     1      -2.173  12.223  21.384  0.00  0.00    +0.000 A 
ATOM     14  C   UNL     1      -3.435  12.741  21.041  0.00  0.00    +0.000 A 
ATOM     15  C   UNL     1      -4.363  13.067  22.034  0.00  0.00    +0.000 A 
ATOM     16  C   UNL     1      -4.038  12.890  23.375  0.00  0.00    +0.000 A 
ATOM     17  C   UNL     1      -2.788  12.383  23.726  0.00  0.00    +0.000 A 
ATOM     18  C   UNL     1      -1.860  12.044  22.735  0.00  0.00    +0.000 A 
ENDBRANCH   8  13
BRANCH   1  19
ATOM     19  C   UNL     1       2.664   6.768  19.343  0.00  0.00    +0.000 C 
BRANCH  19  20
ATOM     20  O   UNL     1       1.921   5.712  18.747  0.00  0.00    +0.000 OA
BRANCH  20  28
ATOM     21  C   UNL     1       4.373   5.192  16.804  0.00  0.00    +0.000 C 
ATOM     22  C   UNL     1       3.627   4.212  17.669  0.00  0.00    +0.000 A 
ATOM     23  C   UNL     1       4.109   2.882  17.605  0.00  0.00    +0.000 A 
ATOM     24  C   UNL     1       3.535   1.853  18.336  0.00  0.00    +0.000 A 
ATOM     25  C   UNL     1       2.449   2.125  19.154  0.00  0.00    +0.000 A 
ATOM     26  C   UNL     1       1.940   3.430  19.249  0.00  0.00    +0.000 A 
ATOM     27  C   UNL     1       0.747   3.652  20.149  0.00  0.00    +0.000 C 
ATOM     28  C   UNL     1       2.525   4.495  18.510  0.00  0.00    +0.000 A 
ENDBRANCH  20  28
ENDBRANCH  19  20
ENDBRANCH   1  19
TORSDOF 4
ENDMDL
MODEL 7
REMARK VINA RESULT:      -8.3      2.596      8.352
REMARK  Name = 
REMARK  6 active torsions:
REMARK  status: ('A' for Active; 'I' for Inactive)
REMARK    1  A    between atoms: C_1  and  C_2
REMARK    2  A    between atoms: C_6  and  C_7
REMARK    3  A    between atoms: C_8  and  O_9
REMARK    4  A    between atoms: O_9  and  C_10
REMARK    5  A    between atoms: C_10  and  C_11
REMARK    6  A    between atoms: N_18  and  C_19
REMARK                            x       y       z     vdW  Elec       q    Type
REMARK                         _______ _______ _______ _____ _____    ______ ____
ROOT
ATOM      1  C   UNL     1       1.514   7.980  20.062  0.00  0.00    +0.000 A 
ATOM      2  N   UNL     1       1.206   7.131  21.032  0.00  0.00    +0.000 NA
ATOM      3  N   UNL     1       1.840   5.926  20.785  0.00  0.00    +0.000 NA
ATOM      4  C   UNL     1       2.520   6.084  19.680  0.00  0.00    +0.000 A 
ATOM      5  C   UNL     1       3.359   5.174  18.918  0.00  0.00    +0.000 A 
ATOM      6  C   UNL     1       3.722   3.845  18.996  0.00  0.00    +0.000 A 
ATOM      7  N   UNL     1       4.496   3.501  17.963  0.00  0.00    +0.000 NA
ATOM      8  N   UNL     1       4.660   4.650  17.221  0.00  0.00    +0.000 N 
ATOM      9  C   UNL     1       3.949   5.715  17.794  0.00  0.00    +0.000 A 
ATOM     10  N   UNL     1       3.818   7.006  17.332  0.00  0.00    +0.000 NA
ATOM     11  C   UNL     1       3.027   7.784  18.032  0.00  0.00    +0.000 A 
ATOM     12  N   UNL     1       2.367   7.354  19.188  0.00  0.00    +0.000 N 
ENDROOT
BRANCH   8  13
ATOM     13  C   UNL     1       5.471   4.619  16.048  0.00  0.00    +0.000 A 
ATOM     14  C   UNL     1       6.705   5.296  16.058  0.00  0.00    +0.000 A 
ATOM     15  C   UNL     1       7.524   5.296  14.926  0.00  0.00    +0.000 A 
ATOM     16  C   UNL     1       7.118   4.633  13.773  0.00  0.00    +0.000 A 
ATOM     17  C   UNL     1       5.895   3.964  13.751  0.00  0.00    +0.000 A 
ATOM     18  C   UNL     1       5.076   3.950  14.886  0.00  0.00    +0.000 A 
ENDBRANCH   8  13
BRANCH   1  19
ATOM     19  C   UNL     1       1.124   9.411  19.980  0.00  0.00    +0.000 C 
BRANCH  19  20
ATOM     20  O   UNL     1      -0.215   9.546  20.438  0.00  0.00    +0.000 OA
BRANCH  20  28
ATOM     21  C   UNL     1      -1.054  12.014  18.629  0.00  0.00    +0.000 C 
ATOM     22  C   UNL     1      -1.067  11.893  20.129  0.00  0.00    +0.000 A 
ATOM     23  C   UNL     1      -1.533  13.043  20.811  0.00  0.00    +0.000 A 
ATOM     24  C   UNL     1      -1.608  13.102  22.194  0.00  0.00    +0.000 A 
ATOM     25  C   UNL     1      -1.207  12.005  22.943  0.00  0.00    +0.000 A 
ATOM     26  C   UNL     1      -0.739  10.844  22.309  0.00  0.00    +0.000 A 
ATOM     27  C   UNL     1      -0.307   9.693  23.186  0.00  0.00    +0.000 C 
ATOM     28  C   UNL     1      -0.666  10.768  20.890  0.00  0.00    +0.000 A 
ENDBRANCH  20  28
ENDBRANCH  19  20
ENDBRANCH   1  19
TORSDOF 4
ENDMDL
MODEL 8
REMARK VINA RESULT:      -8.3      2.954      8.167
REMARK  Name = 
REMARK  6 active torsions:
REMARK  status: ('A' for Active; 'I' for Inactive)
REMARK    1  A    between atoms: C_1  and  C_2
REMARK    2  A    between atoms: C_6  and  C_7
REMARK    3  A    between atoms: C_8  and  O_9
REMARK    4  A    between atoms: O_9  and  C_10
REMARK    5  A    between atoms: C_10  and  C_11
REMARK    6  A    between atoms: N_18  and  C_19
REMARK                            x       y       z     vdW  Elec       q    Type
REMARK                         _______ _______ _______ _____ _____    ______ ____
ROOT
ATOM      1  C   UNL     1       0.838   9.554  19.710  0.00  0.00    +0.000 A 
ATOM      2  N   UNL     1       0.386   9.068  20.857  0.00  0.00    +0.000 NA
ATOM      3  N   UNL     1       0.967   7.832  21.075  0.00  0.00    +0.000 NA
ATOM      4  C   UNL     1       1.761   7.611  20.061  0.00  0.00    +0.000 A 
ATOM      5  C   UNL     1       2.615   6.483  19.725  0.00  0.00    +0.000 A 
ATOM      6  C   UNL     1       2.887   5.240  20.258  0.00  0.00    +0.000 A 
ATOM      7  N   UNL     1       3.738   4.564  19.481  0.00  0.00    +0.000 NA
ATOM      8  N   UNL     1       4.043   5.410  18.438  0.00  0.00    +0.000 N 
ATOM      9  C   UNL     1       3.344   6.620  18.562  0.00  0.00    +0.000 A 
ATOM     10  N   UNL     1       3.338   7.699  17.705  0.00  0.00    +0.000 NA
ATOM     11  C   UNL     1       2.530   8.680  18.029  0.00  0.00    +0.000 A 
ATOM     12  N   UNL     1       1.735   8.659  19.180  0.00  0.00    +0.000 N 
ENDROOT
BRANCH   8  13
ATOM     13  C   UNL     1       4.962   4.985  17.434  0.00  0.00    +0.000 A 
ATOM     14  C   UNL     1       6.342   5.118  17.677  0.00  0.00    +0.000 A 
ATOM     15  C   UNL     1       7.274   4.721  16.715  0.00  0.00    +0.000 A 
ATOM     16  C   UNL     1       6.842   4.198  15.501  0.00  0.00    +0.000 A 
ATOM     17  C   UNL     1       5.477   4.067  15.248  0.00  0.00    +0.000 A 
ATOM     18  C   UNL     1       4.540   4.452  16.213  0.00  0.00    +0.000 A 
ENDBRANCH   8  13
BRANCH   1  19
ATOM     19  C   UNL     1       0.546  10.893  19.138  0.00  0.00    +0.000 C 
BRANCH  19  20
ATOM     20  O   UNL     1      -0.536  10.773  18.224  0.00  0.00    +0.000 OA
BRANCH  20  28
ATOM     21  C   UNL     1      -1.215  12.634  20.701  0.00  0.00    +0.000 C 
ATOM     22  C   UNL     1      -2.143  12.070  19.659  0.00  0.00    +0.000 A 
ATOM     23  C   UNL     1      -3.501  12.443  19.813  0.00  0.00    +0.000 A 
ATOM     24  C   UNL     1      -4.488  12.010  18.943  0.00  0.00    +0.000 A 
ATOM     25  C   UNL     1      -4.146  11.178  17.888  0.00  0.00    +0.000 A 
ATOM     26  C   UNL     1      -2.813  10.783  17.696  0.00  0.00    +0.000 A 
ATOM     27  C   UNL     1      -2.513   9.865  16.535  0.00  0.00    +0.000 C 
ATOM     28  C   UNL     1      -1.789  11.228  18.578  0.00  0.00    +0.000 A 
ENDBRANCH  20  28
ENDBRANCH  19  20
ENDBRANCH   1  19
TORSDOF 4
ENDMDL
MODEL 9
REMARK VINA RESULT:      -8.2      2.697      8.283
REMARK  Name = 
REMARK  6 active torsions:
REMARK  status: ('A' for Active; 'I' for Inactive)
REMARK    1  A    between atoms: C_1  and  C_2
REMARK    2  A    between atoms: C_6  and  C_7
REMARK    3  A    between atoms: C_8  and  O_9
REMARK    4  A    between atoms: O_9  and  C_10
REMARK    5  A    between atoms: C_10  and  C_11
REMARK    6  A    between atoms: N_18  and  C_19
REMARK                            x       y       z     vdW  Elec       q    Type
REMARK                         _______ _______ _______ _____ _____    ______ ____
ROOT
ATOM      1  C   UNL     1       1.825   7.263  20.070  0.00  0.00    +0.000 A 
ATOM      2  N   UNL     1       1.505   6.292  20.914  0.00  0.00    +0.000 NA
ATOM      3  N   UNL     1       2.092   5.117  20.481  0.00  0.00    +0.000 NA
ATOM      4  C   UNL     1       2.759   5.411  19.396  0.00  0.00    +0.000 A 
ATOM      5  C   UNL     1       3.552   4.595  18.493  0.00  0.00    +0.000 A 
ATOM      6  C   UNL     1       3.870   3.258  18.370  0.00  0.00    +0.000 A 
ATOM      7  N   UNL     1       4.614   3.042  17.283  0.00  0.00    +0.000 NA
ATOM      8  N   UNL     1       4.805   4.280  16.710  0.00  0.00    +0.000 N 
ATOM      9  C   UNL     1       4.141   5.273  17.446  0.00  0.00    +0.000 A 
ATOM     10  N   UNL     1       4.047   6.621  17.178  0.00  0.00    +0.000 NA
ATOM     11  C   UNL     1       3.296   7.315  18.000  0.00  0.00    +0.000 A 
ATOM     12  N   UNL     1       2.642   6.743  19.096  0.00  0.00    +0.000 N 
ENDROOT
BRANCH   8  13
ATOM     13  C   UNL     1       5.594   4.394  15.527  0.00  0.00    +0.000 A 
ATOM     14  C   UNL     1       5.167   3.732  14.361  0.00  0.00    +0.000 A 
ATOM     15  C   UNL     1       5.917   3.811  13.185  0.00  0.00    +0.000 A 
ATOM     16  C   UNL     1       7.101   4.540  13.162  0.00  0.00    +0.000 A 
ATOM     17  C   UNL     1       7.537   5.194  14.313  0.00  0.00    +0.000 A 
ATOM     18  C   UNL     1       6.783   5.128  15.491  0.00  0.00    +0.000 A 
ENDBRANCH   8  13
BRANCH   1  19
ATOM     19  C   UNL     1       1.484   8.702  20.203  0.00  0.00    +0.000 C 
BRANCH  19  20
ATOM     20  O   UNL     1       0.200   8.814  20.802  0.00  0.00    +0.000 OA
BRANCH  20  28
ATOM     21  C   UNL     1      -0.794  10.769  18.510  0.00  0.00    +0.000 C 
ATOM     22  C   UNL     1      -0.841  10.959  20.003  0.00  0.00    +0.000 A 
ATOM     23  C   UNL     1      -1.424  12.179  20.425  0.00  0.00    +0.000 A 
ATOM     24  C   UNL     1      -1.543  12.515  21.764  0.00  0.00    +0.000 A 
ATOM     25  C   UNL     1      -1.072  11.638  22.729  0.00  0.00    +0.000 A 
ATOM     26  C   UNL     1      -0.487  10.418  22.356  0.00  0.00    +0.000 A 
ATOM     27  C   UNL     1       0.016   9.516  23.459  0.00  0.00    +0.000 C 
ATOM     28  C   UNL     1      -0.367  10.057  20.985  0.00  0.00    +0.000 A 
ENDBRANCH  20  28
ENDBRANCH  19  20
ENDBRANCH   1  19
TORSDOF 4
ENDMDL
