MODEL 1
REMARK VINA RESULT:      -8.5      0.000      0.000
REMARK  Name = 
REMARK  11 active torsions:
REMARK  status: ('A' for Active; 'I' for Inactive)
REMARK    1  A    between atoms: C_1  and  C_2
REMARK    2  A    between atoms: C_4  and  C_5
REMARK    3  A    between atoms: C_6  and  S_7
REMARK    4  A    between atoms: S_7  and  N_10
REMARK    5  A    between atoms: C_13  and  C_14
REMARK    6  A    between atoms: N_16  and  C_17
REMARK    7  A    between atoms: C_17  and  C_18
REMARK    8  A    between atoms: C_18  and  C_19
REMARK    9  A    between atoms: C_19  and  C_20
REMARK   10  A    between atoms: C_19  and  C_21
REMARK   11  A    between atoms: C_24  and  C_25
REMARK                            x       y       z     vdW  Elec       q    Type
REMARK                         _______ _______ _______ _____ _____    ______ ____
ROOT
ATOM      1  N   UNL     1       5.349   4.154  18.404  0.00  0.00    +0.000 NA
ATOM      2  C   UNL     1       6.137   4.285  17.145  0.00  0.00    +0.000 C 
ATOM      3  C   UNL     1       7.623   4.533  17.391  0.00  0.00    +0.000 C 
ATOM      4  C   UNL     1       7.904   5.684  18.357  0.00  0.00    +0.000 C 
ATOM      5  C   UNL     1       7.126   5.440  19.649  0.00  0.00    +0.000 C 
ATOM      6  C   UNL     1       5.634   5.218  19.422  0.00  0.00    +0.000 C 
ENDROOT
BRANCH   4   7
ATOM      7  C   UNL     1       7.658   7.082  17.784  0.00  0.00    +0.000 C 
ATOM      8  O   UNL     1       6.855   7.299  16.883  0.00  0.00    +0.000 OA
ATOM      9  N   UNL     1       8.371   8.096  18.402  0.00  0.00    +0.000 N 
ATOM     10  H   UNL     1       8.941   7.881  19.204  0.00  0.00    +0.000 HD
BRANCH   9  11
ATOM     11  C   UNL     1       8.175   9.497  18.051  0.00  0.00    +0.000 C 
BRANCH  11  12
ATOM     12  C   UNL     1       9.098  10.452  18.820  0.00  0.00    +0.000 C 
BRANCH  12  13
ATOM     13  C   UNL     1      10.000  11.351  17.948  0.00  0.00    +0.000 C 
ATOM     14  C   UNL     1       9.373  12.717  17.667  0.00  0.00    +0.000 C 
ATOM     15  C   UNL     1      11.360  11.552  18.629  0.00  0.00    +0.000 C 
ENDBRANCH  12  13
ENDBRANCH  11  12
ENDBRANCH   9  11
ENDBRANCH   4   7
BRANCH   1  16
ATOM     16  S   UNL     1       3.623   4.075  18.107  0.00  0.00    +0.000 S 
ATOM     17  O   UNL     1       3.214   2.788  18.621  0.00  0.00    +0.000 OA
ATOM     18  O   UNL     1       3.392   4.406  16.716  0.00  0.00    +0.000 OA
BRANCH  16  24
ATOM     19  C   UNL     1       0.937   8.669  21.183  0.00  0.00    +0.000 C 
ATOM     20  C   UNL     1       1.648   7.566  20.457  0.00  0.00    +0.000 A 
ATOM     21  C   UNL     1       2.300   7.781  19.247  0.00  0.00    +0.000 A 
ATOM     22  C   UNL     1       2.928   6.728  18.549  0.00  0.00    +0.000 A 
ATOM     23  C   UNL     1       3.558   7.073  17.224  0.00  0.00    +0.000 C 
ATOM     24  C   UNL     1       2.898   5.409  19.090  0.00  0.00    +0.000 A 
ATOM     25  C   UNL     1       2.221   5.177  20.315  0.00  0.00    +0.000 A 
ATOM     26  C   UNL     1       1.993   3.870  21.030  0.00  0.00    +0.000 C 
ATOM     27  C   UNL     1       1.624   6.274  20.978  0.00  0.00    +0.000 A 
ENDBRANCH  16  24
ENDBRANCH   1  16
TORSDOF 6
ENDMDL
MODEL 2
REMARK VINA RESULT:      -8.5      0.214      1.740
REMARK  Name = 
REMARK  11 active torsions:
REMARK  status: ('A' for Active; 'I' for Inactive)
REMARK    1  A    between atoms: C_1  and  C_2
REMARK    2  A    between atoms: C_4  and  C_5
REMARK    3  A    between atoms: C_6  and  S_7
REMARK    4  A    between atoms: S_7  and  N_10
REMARK    5  A    between atoms: C_13  and  C_14
REMARK    6  A    between atoms: N_16  and  C_17
REMARK    7  A    between atoms: C_17  and  C_18
REMARK    8  A    between atoms: C_18  and  C_19
REMARK    9  A    between atoms: C_19  and  C_20
REMARK   10  A    between atoms: C_19  and  C_21
REMARK   11  A    between atoms: C_24  and  C_25
REMARK                            x       y       z     vdW  Elec       q    Type
REMARK                         _______ _______ _______ _____ _____    ______ ____
ROOT
ATOM      1  N   UNL     1       5.276   4.096  18.338  0.00  0.00    +0.000 NA
ATOM      2  C   UNL     1       6.110   4.214  17.108  0.00  0.00    +0.000 C 
ATOM      3  C   UNL     1       7.583   4.480  17.407  0.00  0.00    +0.000 C 
ATOM      4  C   UNL     1       7.818   5.648  18.365  0.00  0.00    +0.000 C 
ATOM      5  C   UNL     1       6.992   5.417  19.630  0.00  0.00    +0.000 C 
ATOM      6  C   UNL     1       5.512   5.178  19.349  0.00  0.00    +0.000 C 
ENDROOT
BRANCH   4   7
ATOM      7  C   UNL     1       7.581   7.035  17.760  0.00  0.00    +0.000 C 
ATOM      8  O   UNL     1       6.765   7.242  16.870  0.00  0.00    +0.000 OA
ATOM      9  N   UNL     1       8.322   8.053  18.337  0.00  0.00    +0.000 N 
ATOM     10  H   UNL     1       8.904   7.850  19.134  0.00  0.00    +0.000 HD
BRANCH   9  11
ATOM     11  C   UNL     1       8.140   9.448  17.954  0.00  0.00    +0.000 C 
BRANCH  11  12
ATOM     12  C   UNL     1       9.057  10.413  18.718  0.00  0.00    +0.000 C 
BRANCH  12  13
ATOM     13  C   UNL     1       9.733  11.505  17.862  0.00  0.00    +0.000 C 
ATOM     14  C   UNL     1       8.972  12.831  17.894  0.00  0.00    +0.000 C 
ATOM     15  C   UNL     1      11.171  11.739  18.344  0.00  0.00    +0.000 C 
ENDBRANCH  12  13
ENDBRANCH  11  12
ENDBRANCH   9  11
ENDBRANCH   4   7
BRANCH   1  16
ATOM     16  S   UNL     1       3.562   3.998  17.977  0.00  0.00    +0.000 S 
ATOM     17  O   UNL     1       3.142   2.720  18.506  0.00  0.00    +0.000 OA
ATOM     18  O   UNL     1       3.384   4.293  16.570  0.00  0.00    +0.000 OA
BRANCH  16  24
ATOM     19  C   UNL     1       1.163   8.523  21.373  0.00  0.00    +0.000 C 
ATOM     20  C   UNL     1       1.689   7.406  20.522  0.00  0.00    +0.000 A 
ATOM     21  C   UNL     1       1.646   6.079  20.938  0.00  0.00    +0.000 A 
ATOM     22  C   UNL     1       2.185   5.041  20.151  0.00  0.00    +0.000 A 
ATOM     23  C   UNL     1       2.123   3.650  20.729  0.00  0.00    +0.000 C 
ATOM     24  C   UNL     1       2.791   5.349  18.898  0.00  0.00    +0.000 A 
ATOM     25  C   UNL     1       2.855   6.701  18.473  0.00  0.00    +0.000 A 
ATOM     26  C   UNL     1       3.510   7.269  17.240  0.00  0.00    +0.000 C 
ATOM     27  C   UNL     1       2.284   7.698  19.296  0.00  0.00    +0.000 A 
ENDBRANCH  16  24
ENDBRANCH   1  16
TORSDOF 6
ENDMDL
MODEL 3
REMARK VINA RESULT:      -8.1      1.311      2.715
REMARK  Name = 
REMARK  11 active torsions:
REMARK  status: ('A' for Active; 'I' for Inactive)
REMARK    1  A    between atoms: C_1  and  C_2
REMARK    2  A    between atoms: C_4  and  C_5
REMARK    3  A    between atoms: C_6  and  S_7
REMARK    4  A    between atoms: S_7  and  N_10
REMARK    5  A    between atoms: C_13  and  C_14
REMARK    6  A    between atoms: N_16  and  C_17
REMARK    7  A    between atoms: C_17  and  C_18
REMARK    8  A    between atoms: C_18  and  C_19
REMARK    9  A    between atoms: C_19  and  C_20
REMARK   10  A    between atoms: C_19  and  C_21
REMARK   11  A    between atoms: C_24  and  C_25
REMARK                            x       y       z     vdW  Elec       q    Type
REMARK                         _______ _______ _______ _____ _____    ______ ____
ROOT
ATOM      1  N   UNL     1       5.313   4.536  18.009  0.00  0.00    +0.000 NA
ATOM      2  C   UNL     1       6.194   4.757  16.827  0.00  0.00    +0.000 C 
ATOM      3  C   UNL     1       7.672   4.862  17.192  0.00  0.00    +0.000 C 
ATOM      4  C   UNL     1       7.962   5.864  18.310  0.00  0.00    +0.000 C 
ATOM      5  C   UNL     1       7.081   5.526  19.511  0.00  0.00    +0.000 C 
ATOM      6  C   UNL     1       5.597   5.446  19.167  0.00  0.00    +0.000 C 
ENDROOT
BRANCH   4   7
ATOM      7  C   UNL     1       7.851   7.335  17.901  0.00  0.00    +0.000 C 
ATOM      8  O   UNL     1       7.064   7.731  17.049  0.00  0.00    +0.000 OA
ATOM      9  N   UNL     1       8.669   8.198  18.612  0.00  0.00    +0.000 N 
ATOM     10  H   UNL     1       9.223   7.839  19.372  0.00  0.00    +0.000 HD
BRANCH   9  11
ATOM     11  C   UNL     1       8.611   9.642  18.423  0.00  0.00    +0.000 C 
BRANCH  11  12
ATOM     12  C   UNL     1       9.395  10.426  19.484  0.00  0.00    +0.000 C 
BRANCH  12  13
ATOM     13  C   UNL     1      10.029  11.748  19.000  0.00  0.00    +0.000 C 
ATOM     14  C   UNL     1      11.471  11.568  18.525  0.00  0.00    +0.000 C 
ATOM     15  C   UNL     1       9.195  12.347  17.860  0.00  0.00    +0.000 C 
ENDBRANCH  12  13
ENDBRANCH  11  12
ENDBRANCH   9  11
ENDBRANCH   4   7
BRANCH   1  16
ATOM     16  S   UNL     1       3.610   4.624  17.600  0.00  0.00    +0.000 S 
ATOM     17  O   UNL     1       3.458   3.760  16.450  0.00  0.00    +0.000 OA
ATOM     18  O   UNL     1       3.243   6.022  17.509  0.00  0.00    +0.000 OA
BRANCH  16  24
ATOM     19  C   UNL     1       0.924   2.172  22.554  0.00  0.00    +0.000 C 
ATOM     20  C   UNL     1       1.526   2.757  21.311  0.00  0.00    +0.000 A 
ATOM     21  C   UNL     1       2.144   1.965  20.349  0.00  0.00    +0.000 A 
ATOM     22  C   UNL     1       2.748   2.528  19.205  0.00  0.00    +0.000 A 
ATOM     23  C   UNL     1       3.429   1.574  18.258  0.00  0.00    +0.000 C 
ATOM     24  C   UNL     1       2.730   3.943  19.025  0.00  0.00    +0.000 A 
ATOM     25  C   UNL     1       2.117   4.759  20.009  0.00  0.00    +0.000 A 
ATOM     26  C   UNL     1       2.047   6.264  20.072  0.00  0.00    +0.000 C 
ATOM     27  C   UNL     1       1.514   4.137  21.126  0.00  0.00    +0.000 A 
ENDBRANCH  16  24
ENDBRANCH   1  16
TORSDOF 6
ENDMDL
MODEL 4
REMARK VINA RESULT:      -7.5      1.331      2.588
REMARK  Name = 
REMARK  11 active torsions:
REMARK  status: ('A' for Active; 'I' for Inactive)
REMARK    1  A    between atoms: C_1  and  C_2
REMARK    2  A    between atoms: C_4  and  C_5
REMARK    3  A    between atoms: C_6  and  S_7
REMARK    4  A    between atoms: S_7  and  N_10
REMARK    5  A    between atoms: C_13  and  C_14
REMARK    6  A    between atoms: N_16  and  C_17
REMARK    7  A    between atoms: C_17  and  C_18
REMARK    8  A    between atoms: C_18  and  C_19
REMARK    9  A    between atoms: C_19  and  C_20
REMARK   10  A    between atoms: C_19  and  C_21
REMARK   11  A    between atoms: C_24  and  C_25
REMARK                            x       y       z     vdW  Elec       q    Type
REMARK                         _______ _______ _______ _____ _____    ______ ____
ROOT
ATOM      1  N   UNL     1       5.322   4.614  17.946  0.00  0.00    +0.000 NA
ATOM      2  C   UNL     1       6.073   4.936  16.699  0.00  0.00    +0.000 C 
ATOM      3  C   UNL     1       7.582   5.025  16.915  0.00  0.00    +0.000 C 
ATOM      4  C   UNL     1       7.987   5.938  18.072  0.00  0.00    +0.000 C 
ATOM      5  C   UNL     1       7.237   5.499  19.328  0.00  0.00    +0.000 C 
ATOM      6  C   UNL     1       5.725   5.433  19.136  0.00  0.00    +0.000 C 
ENDROOT
BRANCH   4   7
ATOM      7  C   UNL     1       7.832   7.436  17.795  0.00  0.00    +0.000 C 
ATOM      8  O   UNL     1       7.026   7.883  16.987  0.00  0.00    +0.000 OA
ATOM      9  N   UNL     1       8.636   8.255  18.570  0.00  0.00    +0.000 N 
ATOM     10  H   UNL     1       9.208   7.846  19.292  0.00  0.00    +0.000 HD
BRANCH   9  11
ATOM     11  C   UNL     1       8.537   9.708  18.510  0.00  0.00    +0.000 C 
BRANCH  11  12
ATOM     12  C   UNL     1       9.416  10.421  19.546  0.00  0.00    +0.000 C 
BRANCH  12  13
ATOM     13  C   UNL     1      10.007  11.775  19.098  0.00  0.00    +0.000 C 
ATOM     14  C   UNL     1      11.526  11.728  18.934  0.00  0.00    +0.000 C 
ATOM     15  C   UNL     1       9.372  12.215  17.772  0.00  0.00    +0.000 C 
ENDBRANCH  12  13
ENDBRANCH  11  12
ENDBRANCH   9  11
ENDBRANCH   4   7
BRANCH   1  16
ATOM     16  S   UNL     1       3.585   4.720  17.725  0.00  0.00    +0.000 S 
ATOM     17  O   UNL     1       3.312   3.939  16.540  0.00  0.00    +0.000 OA
ATOM     18  O   UNL     1       3.211   6.118  17.773  0.00  0.00    +0.000 OA
BRANCH  16  24
ATOM     19  C   UNL     1       0.806   2.172  22.579  0.00  0.00    +0.000 C 
ATOM     20  C   UNL     1       1.535   2.806  21.433  0.00  0.00    +0.000 A 
ATOM     21  C   UNL     1       1.547   4.184  21.238  0.00  0.00    +0.000 A 
ATOM     22  C   UNL     1       2.197   4.767  20.131  0.00  0.00    +0.000 A 
ATOM     23  C   UNL     1       2.100   6.265  20.000  0.00  0.00    +0.000 C 
ATOM     24  C   UNL     1       2.859   3.933  19.183  0.00  0.00    +0.000 A 
ATOM     25  C   UNL     1       2.838   2.526  19.364  0.00  0.00    +0.000 A 
ATOM     26  C   UNL     1       3.394   1.454  18.462  0.00  0.00    +0.000 C 
ATOM     27  C   UNL     1       2.184   1.999  20.501  0.00  0.00    +0.000 A 
ENDBRANCH  16  24
ENDBRANCH   1  16
TORSDOF 6
ENDMDL
MODEL 5
REMARK VINA RESULT:      -7.4      2.764      5.144
REMARK  Name = 
REMARK  11 active torsions:
REMARK  status: ('A' for Active; 'I' for Inactive)
REMARK    1  A    between atoms: C_1  and  C_2
REMARK    2  A    between atoms: C_4  and  C_5
REMARK    3  A    between atoms: C_6  and  S_7
REMARK    4  A    between atoms: S_7  and  N_10
REMARK    5  A    between atoms: C_13  and  C_14
REMARK    6  A    between atoms: N_16  and  C_17
REMARK    7  A    between atoms: C_17  and  C_18
REMARK    8  A    between atoms: C_18  and  C_19
REMARK    9  A    between atoms: C_19  and  C_20
REMARK   10  A    between atoms: C_19  and  C_21
REMARK   11  A    between atoms: C_24  and  C_25
REMARK                            x       y       z     vdW  Elec       q    Type
REMARK                         _______ _______ _______ _____ _____    ______ ____
ROOT
ATOM      1  N   UNL     1       4.809   6.146  18.611  0.00  0.00    +0.000 NA
ATOM      2  C   UNL     1       5.836   5.139  19.007  0.00  0.00    +0.000 C 
ATOM      3  C   UNL     1       7.266   5.637  18.820  0.00  0.00    +0.000 C 
ATOM      4  C   UNL     1       7.543   6.213  17.432  0.00  0.00    +0.000 C 
ATOM      5  C   UNL     1       6.501   7.289  17.131  0.00  0.00    +0.000 C 
ATOM      6  C   UNL     1       5.066   6.797  17.285  0.00  0.00    +0.000 C 
ENDROOT
BRANCH   4   7
ATOM      7  C   UNL     1       7.648   5.174  16.312  0.00  0.00    +0.000 C 
ATOM      8  O   UNL     1       7.968   4.008  16.514  0.00  0.00    +0.000 OA
ATOM      9  N   UNL     1       7.296   5.638  15.056  0.00  0.00    +0.000 N 
ATOM     10  H   UNL     1       6.942   6.576  14.957  0.00  0.00    +0.000 HD
BRANCH   9  11
ATOM     11  C   UNL     1       7.237   4.754  13.898  0.00  0.00    +0.000 C 
BRANCH  11  12
ATOM     12  C   UNL     1       5.880   4.056  13.734  0.00  0.00    +0.000 C 
BRANCH  12  13
ATOM     13  C   UNL     1       5.746   3.146  12.495  0.00  0.00    +0.000 C 
ATOM     14  C   UNL     1       4.501   3.461  11.666  0.00  0.00    +0.000 C 
ATOM     15  C   UNL     1       6.989   3.279  11.606  0.00  0.00    +0.000 C 
ENDBRANCH  12  13
ENDBRANCH  11  12
ENDBRANCH   9  11
ENDBRANCH   4   7
BRANCH   1  16
ATOM     16  S   UNL     1       3.184   5.487  18.636  0.00  0.00    +0.000 S 
ATOM     17  O   UNL     1       3.283   4.279  19.423  0.00  0.00    +0.000 OA
ATOM     18  O   UNL     1       2.706   5.425  17.270  0.00  0.00    +0.000 OA
BRANCH  16  24
ATOM     19  C   UNL     1      -0.022   9.667  21.803  0.00  0.00    +0.000 C 
ATOM     20  C   UNL     1       0.705   8.621  21.010  0.00  0.00    +0.000 A 
ATOM     21  C   UNL     1       0.927   7.341  21.508  0.00  0.00    +0.000 A 
ATOM     22  C   UNL     1       1.651   6.379  20.773  0.00  0.00    +0.000 A 
ATOM     23  C   UNL     1       1.870   5.043  21.436  0.00  0.00    +0.000 C 
ATOM     24  C   UNL     1       2.172   6.719  19.490  0.00  0.00    +0.000 A 
ATOM     25  C   UNL     1       1.965   8.027  18.982  0.00  0.00    +0.000 A 
ATOM     26  C   UNL     1       2.483   8.631  17.702  0.00  0.00    +0.000 C 
ATOM     27  C   UNL     1       1.218   8.944  19.756  0.00  0.00    +0.000 A 
ENDBRANCH  16  24
ENDBRANCH   1  16
TORSDOF 6
ENDMDL
MODEL 6
REMARK VINA RESULT:      -7.4      2.913      5.314
REMARK  Name = 
REMARK  11 active torsions:
REMARK  status: ('A' for Active; 'I' for Inactive)
REMARK    1  A    between atoms: C_1  and  C_2
REMARK    2  A    between atoms: C_4  and  C_5
REMARK    3  A    between atoms: C_6  and  S_7
REMARK    4  A    between atoms: S_7  and  N_10
REMARK    5  A    between atoms: C_13  and  C_14
REMARK    6  A    between atoms: N_16  and  C_17
REMARK    7  A    between atoms: C_17  and  C_18
REMARK    8  A    between atoms: C_18  and  C_19
REMARK    9  A    between atoms: C_19  and  C_20
REMARK   10  A    between atoms: C_19  and  C_21
REMARK   11  A    between atoms: C_24  and  C_25
REMARK                            x       y       z     vdW  Elec       q    Type
REMARK                         _______ _______ _______ _____ _____    ______ ____
ROOT
ATOM      1  N   UNL     1       4.251   5.982  18.244  0.00  0.00    +0.000 NA
ATOM      2  C   UNL     1       5.150   4.933  18.804  0.00  0.00    +0.000 C 
ATOM      3  C   UNL     1       6.576   5.426  19.034  0.00  0.00    +0.000 C 
ATOM      4  C   UNL     1       7.196   6.111  17.816  0.00  0.00    +0.000 C 
ATOM      5  C   UNL     1       6.257   7.222  17.349  0.00  0.00    +0.000 C 
ATOM      6  C   UNL     1       4.834   6.738  17.088  0.00  0.00    +0.000 C 
ENDROOT
BRANCH   4   7
ATOM      7  C   UNL     1       7.594   5.167  16.678  0.00  0.00    +0.000 C 
ATOM      8  O   UNL     1       8.212   4.125  16.864  0.00  0.00    +0.000 OA
ATOM      9  N   UNL     1       7.150   5.552  15.425  0.00  0.00    +0.000 N 
ATOM     10  H   UNL     1       6.559   6.363  15.337  0.00  0.00    +0.000 HD
BRANCH   9  11
ATOM     11  C   UNL     1       7.350   4.714  14.248  0.00  0.00    +0.000 C 
BRANCH  11  12
ATOM     12  C   UNL     1       6.106   3.902  13.861  0.00  0.00    +0.000 C 
BRANCH  12  13
ATOM     13  C   UNL     1       6.115   3.311  12.435  0.00  0.00    +0.000 C 
ATOM     14  C   UNL     1       4.739   3.361  11.770  0.00  0.00    +0.000 C 
ATOM     15  C   UNL     1       7.125   4.063  11.559  0.00  0.00    +0.000 C 
ENDBRANCH  12  13
ENDBRANCH  11  12
ENDBRANCH   9  11
ENDBRANCH   4   7
BRANCH   1  16
ATOM     16  S   UNL     1       2.680   5.346  17.795  0.00  0.00    +0.000 S 
ATOM     17  O   UNL     1       2.936   4.488  16.660  0.00  0.00    +0.000 OA
ATOM     18  O   UNL     1       1.765   6.461  17.669  0.00  0.00    +0.000 OA
BRANCH  16  24
ATOM     19  C   UNL     1       1.112   1.878  22.620  0.00  0.00    +0.000 C 
ATOM     20  C   UNL     1       1.435   2.717  21.421  0.00  0.00    +0.000 A 
ATOM     21  C   UNL     1       1.783   2.152  20.198  0.00  0.00    +0.000 A 
ATOM     22  C   UNL     1       2.129   2.950  19.088  0.00  0.00    +0.000 A 
ATOM     23  C   UNL     1       2.536   2.224  17.831  0.00  0.00    +0.000 C 
ATOM     24  C   UNL     1       2.125   4.371  19.213  0.00  0.00    +0.000 A 
ATOM     25  C   UNL     1       1.788   4.955  20.461  0.00  0.00    +0.000 A 
ATOM     26  C   UNL     1       1.793   6.412  20.848  0.00  0.00    +0.000 C 
ATOM     27  C   UNL     1       1.434   4.106  21.534  0.00  0.00    +0.000 A 
ENDBRANCH  16  24
ENDBRANCH   1  16
TORSDOF 6
ENDMDL
MODEL 7
REMARK VINA RESULT:      -7.3      2.949      5.461
REMARK  Name = 
REMARK  11 active torsions:
REMARK  status: ('A' for Active; 'I' for Inactive)
REMARK    1  A    between atoms: C_1  and  C_2
REMARK    2  A    between atoms: C_4  and  C_5
REMARK    3  A    between atoms: C_6  and  S_7
REMARK    4  A    between atoms: S_7  and  N_10
REMARK    5  A    between atoms: C_13  and  C_14
REMARK    6  A    between atoms: N_16  and  C_17
REMARK    7  A    between atoms: C_17  and  C_18
REMARK    8  A    between atoms: C_18  and  C_19
REMARK    9  A    between atoms: C_19  and  C_20
REMARK   10  A    between atoms: C_19  and  C_21
REMARK   11  A    between atoms: C_24  and  C_25
REMARK                            x       y       z     vdW  Elec       q    Type
REMARK                         _______ _______ _______ _____ _____    ______ ____
ROOT
ATOM      1  N   UNL     1       4.310   5.936  18.136  0.00  0.00    +0.000 NA
ATOM      2  C   UNL     1       5.277   4.943  18.686  0.00  0.00    +0.000 C 
ATOM      3  C   UNL     1       6.692   5.498  18.822  0.00  0.00    +0.000 C 
ATOM      4  C   UNL     1       7.221   6.158  17.548  0.00  0.00    +0.000 C 
ATOM      5  C   UNL     1       6.216   7.213  17.090  0.00  0.00    +0.000 C 
ATOM      6  C   UNL     1       4.802   6.667  16.923  0.00  0.00    +0.000 C 
ENDROOT
BRANCH   4   7
ATOM      7  C   UNL     1       7.597   5.185  16.427  0.00  0.00    +0.000 C 
ATOM      8  O   UNL     1       8.114   4.094  16.638  0.00  0.00    +0.000 OA
ATOM      9  N   UNL     1       7.254   5.609  15.154  0.00  0.00    +0.000 N 
ATOM     10  H   UNL     1       6.739   6.467  15.040  0.00  0.00    +0.000 HD
BRANCH   9  11
ATOM     11  C   UNL     1       7.444   4.759  13.984  0.00  0.00    +0.000 C 
BRANCH  11  12
ATOM     12  C   UNL     1       6.206   3.922  13.633  0.00  0.00    +0.000 C 
BRANCH  12  13
ATOM     13  C   UNL     1       6.029   3.593  12.135  0.00  0.00    +0.000 C 
ATOM     14  C   UNL     1       6.830   2.363  11.706  0.00  0.00    +0.000 C 
ATOM     15  C   UNL     1       4.546   3.364  11.816  0.00  0.00    +0.000 C 
ENDBRANCH  12  13
ENDBRANCH  11  12
ENDBRANCH   9  11
ENDBRANCH   4   7
BRANCH   1  16
ATOM     16  S   UNL     1       2.744   5.224  17.794  0.00  0.00    +0.000 S 
ATOM     17  O   UNL     1       2.956   4.397  16.627  0.00  0.00    +0.000 OA
ATOM     18  O   UNL     1       1.765   6.290  17.758  0.00  0.00    +0.000 OA
BRANCH  16  24
ATOM     19  C   UNL     1       1.087   1.895  22.688  0.00  0.00    +0.000 C 
ATOM     20  C   UNL     1       1.550   2.711  21.519  0.00  0.00    +0.000 A 
ATOM     21  C   UNL     1       1.614   4.100  21.568  0.00  0.00    +0.000 A 
ATOM     22  C   UNL     1       2.007   4.862  20.448  0.00  0.00    +0.000 A 
ATOM     23  C   UNL     1       1.989   6.360  20.606  0.00  0.00    +0.000 C 
ATOM     24  C   UNL     1       2.350   4.200  19.232  0.00  0.00    +0.000 A 
ATOM     25  C   UNL     1       2.272   2.785  19.167  0.00  0.00    +0.000 A 
ATOM     26  C   UNL     1       2.506   1.884  17.982  0.00  0.00    +0.000 C 
ATOM     27  C   UNL     1       1.887   2.074  20.327  0.00  0.00    +0.000 A 
ENDBRANCH  16  24
ENDBRANCH   1  16
TORSDOF 6
ENDMDL
MODEL 8
REMARK VINA RESULT:      -7.2      3.048      5.102
REMARK  Name = 
REMARK  11 active torsions:
REMARK  status: ('A' for Active; 'I' for Inactive)
REMARK    1  A    between atoms: C_1  and  C_2
REMARK    2  A    between atoms: C_4  and  C_5
REMARK    3  A    between atoms: C_6  and  S_7
REMARK    4  A    between atoms: S_7  and  N_10
REMARK    5  A    between atoms: C_13  and  C_14
REMARK    6  A    between atoms: N_16  and  C_17
REMARK    7  A    between atoms: C_17  and  C_18
REMARK    8  A    between atoms: C_18  and  C_19
REMARK    9  A    between atoms: C_19  and  C_20
REMARK   10  A    between atoms: C_19  and  C_21
REMARK   11  A    between atoms: C_24  and  C_25
REMARK                            x       y       z     vdW  Elec       q    Type
REMARK                         _______ _______ _______ _____ _____    ______ ____
ROOT
ATOM      1  N   UNL     1       4.324   6.462  18.314  0.00  0.00    +0.000 NA
ATOM      2  C   UNL     1       4.505   4.991  18.484  0.00  0.00    +0.000 C 
ATOM      3  C   UNL     1       5.963   4.587  18.688  0.00  0.00    +0.000 C 
ATOM      4  C   UNL     1       6.915   5.157  17.637  0.00  0.00    +0.000 C 
ATOM      5  C   UNL     1       6.726   6.672  17.576  0.00  0.00    +0.000 C 
ATOM      6  C   UNL     1       5.279   7.091  17.344  0.00  0.00    +0.000 C 
ENDROOT
BRANCH   4   7
ATOM      7  C   UNL     1       6.817   4.503  16.256  0.00  0.00    +0.000 C 
ATOM      8  O   UNL     1       6.245   3.436  16.066  0.00  0.00    +0.000 OA
ATOM      9  N   UNL     1       7.376   5.238  15.225  0.00  0.00    +0.000 N 
ATOM     10  H   UNL     1       7.744   6.157  15.416  0.00  0.00    +0.000 HD
BRANCH   9  11
ATOM     11  C   UNL     1       7.277   4.812  13.835  0.00  0.00    +0.000 C 
BRANCH  11  12
ATOM     12  C   UNL     1       5.837   4.517  13.390  0.00  0.00    +0.000 C 
BRANCH  12  13
ATOM     13  C   UNL     1       5.655   3.252  12.524  0.00  0.00    +0.000 C 
ATOM     14  C   UNL     1       4.436   3.339  11.606  0.00  0.00    +0.000 C 
ATOM     15  C   UNL     1       6.909   3.009  11.674  0.00  0.00    +0.000 C 
ENDBRANCH  12  13
ENDBRANCH  11  12
ENDBRANCH   9  11
ENDBRANCH   4   7
BRANCH   1  16
ATOM     16  S   UNL     1       2.680   6.886  17.877  0.00  0.00    +0.000 S 
ATOM     17  O   UNL     1       2.027   5.624  17.610  0.00  0.00    +0.000 OA
ATOM     18  O   UNL     1       2.739   7.903  16.847  0.00  0.00    +0.000 OA
BRANCH  16  24
ATOM     19  C   UNL     1      -0.019   9.613  22.678  0.00  0.00    +0.000 C 
ATOM     20  C   UNL     1       0.696   8.973  21.526  0.00  0.00    +0.000 A 
ATOM     21  C   UNL     1       0.980   9.669  20.356  0.00  0.00    +0.000 A 
ATOM     22  C   UNL     1       1.611   9.045  19.260  0.00  0.00    +0.000 A 
ATOM     23  C   UNL     1       1.822   9.888  18.028  0.00  0.00    +0.000 C 
ATOM     24  C   UNL     1       1.970   7.668  19.345  0.00  0.00    +0.000 A 
ATOM     25  C   UNL     1       1.670   6.945  20.528  0.00  0.00    +0.000 A 
ATOM     26  C   UNL     1       1.880   5.480  20.814  0.00  0.00    +0.000 C 
ATOM     27  C   UNL     1       1.050   7.627  21.600  0.00  0.00    +0.000 A 
ENDBRANCH  16  24
ENDBRANCH   1  16
TORSDOF 6
ENDMDL
MODEL 9
REMARK VINA RESULT:      -7.0      0.775      1.006
REMARK  Name = 
REMARK  11 active torsions:
REMARK  status: ('A' for Active; 'I' for Inactive)
REMARK    1  A    between atoms: C_1  and  C_2
REMARK    2  A    between atoms: C_4  and  C_5
REMARK    3  A    between atoms: C_6  and  S_7
REMARK    4  A    between atoms: S_7  and  N_10
REMARK    5  A    between atoms: C_13  and  C_14
REMARK    6  A    between atoms: N_16  and  C_17
REMARK    7  A    between atoms: C_17  and  C_18
REMARK    8  A    between atoms: C_18  and  C_19
REMARK    9  A    between atoms: C_19  and  C_20
REMARK   10  A    between atoms: C_19  and  C_21
REMARK   11  A    between atoms: C_24  and  C_25
REMARK                            x       y       z     vdW  Elec       q    Type
REMARK                         _______ _______ _______ _____ _____    ______ ____
ROOT
ATOM      1  N   UNL     1       4.671   3.816  18.072  0.00  0.00    +0.000 NA
ATOM      2  C   UNL     1       5.229   4.156  16.731  0.00  0.00    +0.000 C 
ATOM      3  C   UNL     1       6.751   4.275  16.730  0.00  0.00    +0.000 C 
ATOM      4  C   UNL     1       7.300   5.195  17.821  0.00  0.00    +0.000 C 
ATOM      5  C   UNL     1       6.746   4.738  19.170  0.00  0.00    +0.000 C 
ATOM      6  C   UNL     1       5.224   4.641  19.195  0.00  0.00    +0.000 C 
ENDROOT
BRANCH   4   7
ATOM      7  C   UNL     1       7.077   6.690  17.576  0.00  0.00    +0.000 C 
ATOM      8  O   UNL     1       6.075   7.131  17.025  0.00  0.00    +0.000 OA
ATOM      9  N   UNL     1       8.070   7.513  18.077  0.00  0.00    +0.000 N 
ATOM     10  H   UNL     1       8.823   7.110  18.612  0.00  0.00    +0.000 HD
BRANCH   9  11
ATOM     11  C   UNL     1       7.963   8.966  18.024  0.00  0.00    +0.000 C 
BRANCH  11  12
ATOM     12  C   UNL     1       9.091   9.687  18.775  0.00  0.00    +0.000 C 
BRANCH  12  13
ATOM     13  C   UNL     1       8.857  11.189  19.043  0.00  0.00    +0.000 C 
ATOM     14  C   UNL     1       9.246  11.601  20.463  0.00  0.00    +0.000 C 
ATOM     15  C   UNL     1       9.651  12.035  18.039  0.00  0.00    +0.000 C 
ENDBRANCH  12  13
ENDBRANCH  11  12
ENDBRANCH   9  11
ENDBRANCH   4   7
BRANCH   1  16
ATOM     16  S   UNL     1       2.919   3.886  18.102  0.00  0.00    +0.000 S 
ATOM     17  O   UNL     1       2.506   2.634  18.697  0.00  0.00    +0.000 OA
ATOM     18  O   UNL     1       2.462   4.244  16.776  0.00  0.00    +0.000 OA
BRANCH  16  24
ATOM     19  C   UNL     1       1.256   8.678  21.573  0.00  0.00    +0.000 C 
ATOM     20  C   UNL     1       1.723   7.521  20.742  0.00  0.00    +0.000 A 
ATOM     21  C   UNL     1       2.187   7.688  19.441  0.00  0.00    +0.000 A 
ATOM     22  C   UNL     1       2.581   6.588  18.650  0.00  0.00    +0.000 A 
ATOM     23  C   UNL     1       3.018   6.888  17.240  0.00  0.00    +0.000 C 
ATOM     24  C   UNL     1       2.505   5.270  19.190  0.00  0.00    +0.000 A 
ATOM     25  C   UNL     1       2.018   5.089  20.510  0.00  0.00    +0.000 A 
ATOM     26  C   UNL     1       1.777   3.800  21.254  0.00  0.00    +0.000 C 
ATOM     27  C   UNL     1       1.652   6.230  21.260  0.00  0.00    +0.000 A 
ENDBRANCH  16  24
ENDBRANCH   1  16
TORSDOF 6
ENDMDL
