MODEL 1
REMARK VINA RESULT:      -6.8      0.000      0.000
REMARK  Name = 
REMARK  2 active torsions:
REMARK  status: ('A' for Active; 'I' for Inactive)
REMARK    1  A    between atoms: N_2  and  C_4
REMARK    2  A    between atoms: C_7  and  C_8
REMARK                            x       y       z     vdW  Elec       q    Type
REMARK                         _______ _______ _______ _____ _____    ______ ____
ROOT
ATOM      1  C   UNL     1       6.124   5.055  16.995  0.00  0.00    +0.000 A 
ATOM      2  C   UNL     1       5.103   4.206  16.561  0.00  0.00    +0.000 A 
ATOM      3  C   UNL     1       4.131   3.774  17.472  0.00  0.00    +0.000 A 
ATOM      4  C   UNL     1       4.163   4.159  18.827  0.00  0.00    +0.000 A 
ATOM      5  C   UNL     1       5.203   5.020  19.230  0.00  0.00    +0.000 A 
ATOM      6  C   UNL     1       6.174   5.472  18.328  0.00  0.00    +0.000 A 
ENDROOT
BRANCH   4   7
ATOM      7  C   UNL     1       3.152   3.667  19.790  0.00  0.00    +0.000 A 
ATOM      8  C   UNL     1       1.778   3.891  19.612  0.00  0.00    +0.000 A 
ATOM      9  C   UNL     1       0.849   3.404  20.530  0.00  0.00    +0.000 A 
ATOM     10  C   UNL     1       1.314   2.687  21.616  0.00  0.00    +0.000 A 
ATOM     11  N   UNL     1       2.618   2.441  21.839  0.00  0.00    +0.000 NA
ATOM     12  C   UNL     1       3.495   2.936  20.931  0.00  0.00    +0.000 A 
ENDBRANCH   4   7
BRANCH   1  14
ATOM     13  O   UNL     1       7.678   6.607  16.249  0.00  0.00    +0.000 OA
ATOM     14  N   UNL     1       7.152   5.503  16.050  0.00  0.00    +0.000 N 
ATOM     15  O   UNL     1       7.432   4.752  15.104  0.00  0.00    +0.000 OA
ENDBRANCH   1  14
TORSDOF 2
ENDMDL
MODEL 2
REMARK VINA RESULT:      -6.8      0.328      1.475
REMARK  Name = 
REMARK  2 active torsions:
REMARK  status: ('A' for Active; 'I' for Inactive)
REMARK    1  A    between atoms: N_2  and  C_4
REMARK    2  A    between atoms: C_7  and  C_8
REMARK                            x       y       z     vdW  Elec       q    Type
REMARK                         _______ _______ _______ _____ _____    ______ ____
ROOT
ATOM      1  C   UNL     1       6.072   4.839  16.858  0.00  0.00    +0.000 A 
ATOM      2  C   UNL     1       6.384   4.828  18.220  0.00  0.00    +0.000 A 
ATOM      3  C   UNL     1       5.426   4.391  19.143  0.00  0.00    +0.000 A 
ATOM      4  C   UNL     1       4.143   3.975  18.738  0.00  0.00    +0.000 A 
ATOM      5  C   UNL     1       3.863   3.994  17.357  0.00  0.00    +0.000 A 
ATOM      6  C   UNL     1       4.815   4.415  16.420  0.00  0.00    +0.000 A 
ENDROOT
BRANCH   4   7
ATOM      7  C   UNL     1       3.125   3.550  19.725  0.00  0.00    +0.000 A 
ATOM      8  C   UNL     1       1.751   3.737  19.508  0.00  0.00    +0.000 A 
ATOM      9  C   UNL     1       0.814   3.314  20.451  0.00  0.00    +0.000 A 
ATOM     10  C   UNL     1       1.272   2.698  21.600  0.00  0.00    +0.000 A 
ATOM     11  N   UNL     1       2.576   2.493  21.863  0.00  0.00    +0.000 NA
ATOM     12  C   UNL     1       3.460   2.924  20.929  0.00  0.00    +0.000 A 
ENDBRANCH   4   7
BRANCH   1  14
ATOM     13  O   UNL     1       7.310   4.577  14.914  0.00  0.00    +0.000 OA
ATOM     14  N   UNL     1       7.067   5.305  15.886  0.00  0.00    +0.000 N 
ATOM     15  O   UNL     1       7.607   6.402  16.095  0.00  0.00    +0.000 OA
ENDBRANCH   1  14
TORSDOF 2
ENDMDL
MODEL 3
REMARK VINA RESULT:      -6.7      1.918      2.389
REMARK  Name = 
REMARK  2 active torsions:
REMARK  status: ('A' for Active; 'I' for Inactive)
REMARK    1  A    between atoms: N_2  and  C_4
REMARK    2  A    between atoms: C_7  and  C_8
REMARK                            x       y       z     vdW  Elec       q    Type
REMARK                         _______ _______ _______ _____ _____    ______ ____
ROOT
ATOM      1  C   UNL     1       5.941   4.849  15.331  0.00  0.00    +0.000 A 
ATOM      2  C   UNL     1       5.430   6.036  15.865  0.00  0.00    +0.000 A 
ATOM      3  C   UNL     1       4.491   5.978  16.902  0.00  0.00    +0.000 A 
ATOM      4  C   UNL     1       4.029   4.750  17.415  0.00  0.00    +0.000 A 
ATOM      5  C   UNL     1       4.568   3.573  16.858  0.00  0.00    +0.000 A 
ATOM      6  C   UNL     1       5.518   3.615  15.830  0.00  0.00    +0.000 A 
ENDROOT
BRANCH   4   7
ATOM      7  C   UNL     1       3.008   4.698  18.485  0.00  0.00    +0.000 A 
ATOM      8  C   UNL     1       2.034   3.689  18.541  0.00  0.00    +0.000 A 
ATOM      9  C   UNL     1       1.093   3.660  19.569  0.00  0.00    +0.000 A 
ATOM     10  C   UNL     1       1.147   4.644  20.537  0.00  0.00    +0.000 A 
ATOM     11  N   UNL     1       2.057   5.637  20.536  0.00  0.00    +0.000 NA
ATOM     12  C   UNL     1       2.953   5.640  19.516  0.00  0.00    +0.000 A 
ENDBRANCH   4   7
BRANCH   1  14
ATOM     13  O   UNL     1       6.689   4.224  13.227  0.00  0.00    +0.000 OA
ATOM     14  N   UNL     1       6.917   4.902  14.238  0.00  0.00    +0.000 N 
ATOM     15  O   UNL     1       7.916   5.621  14.392  0.00  0.00    +0.000 OA
ENDBRANCH   1  14
TORSDOF 2
ENDMDL
MODEL 4
REMARK VINA RESULT:      -6.7      1.884      2.028
REMARK  Name = 
REMARK  2 active torsions:
REMARK  status: ('A' for Active; 'I' for Inactive)
REMARK    1  A    between atoms: N_2  and  C_4
REMARK    2  A    between atoms: C_7  and  C_8
REMARK                            x       y       z     vdW  Elec       q    Type
REMARK                         _______ _______ _______ _____ _____    ______ ____
ROOT
ATOM      1  C   UNL     1       5.916   4.882  15.380  0.00  0.00    +0.000 A 
ATOM      2  C   UNL     1       5.485   3.638  15.848  0.00  0.00    +0.000 A 
ATOM      3  C   UNL     1       4.512   3.579  16.853  0.00  0.00    +0.000 A 
ATOM      4  C   UNL     1       3.963   4.745  17.422  0.00  0.00    +0.000 A 
ATOM      5  C   UNL     1       4.415   5.983  16.923  0.00  0.00    +0.000 A 
ATOM      6  C   UNL     1       5.378   6.058  15.908  0.00  0.00    +0.000 A 
ENDROOT
BRANCH   4   7
ATOM      7  C   UNL     1       2.962   4.673  18.510  0.00  0.00    +0.000 A 
ATOM      8  C   UNL     1       1.986   3.666  18.562  0.00  0.00    +0.000 A 
ATOM      9  C   UNL     1       1.064   3.616  19.607  0.00  0.00    +0.000 A 
ATOM     10  C   UNL     1       1.140   4.578  20.596  0.00  0.00    +0.000 A 
ATOM     11  N   UNL     1       2.054   5.567  20.599  0.00  0.00    +0.000 NA
ATOM     12  C   UNL     1       2.930   5.591  19.563  0.00  0.00    +0.000 A 
ENDBRANCH   4   7
BRANCH   1  14
ATOM     13  O   UNL     1       7.939   5.656  14.550  0.00  0.00    +0.000 OA
ATOM     14  N   UNL     1       6.942   4.952  14.334  0.00  0.00    +0.000 N 
ATOM     15  O   UNL     1       6.751   4.305  13.294  0.00  0.00    +0.000 OA
ENDBRANCH   1  14
TORSDOF 2
ENDMDL
MODEL 5
REMARK VINA RESULT:      -6.6      1.839      2.078
REMARK  Name = 
REMARK  2 active torsions:
REMARK  status: ('A' for Active; 'I' for Inactive)
REMARK    1  A    between atoms: N_2  and  C_4
REMARK    2  A    between atoms: C_7  and  C_8
REMARK                            x       y       z     vdW  Elec       q    Type
REMARK                         _______ _______ _______ _____ _____    ______ ____
ROOT
ATOM      1  C   UNL     1       5.925   4.858  15.393  0.00  0.00    +0.000 A 
ATOM      2  C   UNL     1       5.513   3.610  15.869  0.00  0.00    +0.000 A 
ATOM      3  C   UNL     1       4.543   3.544  16.877  0.00  0.00    +0.000 A 
ATOM      4  C   UNL     1       3.979   4.705  17.441  0.00  0.00    +0.000 A 
ATOM      5  C   UNL     1       4.414   5.946  16.934  0.00  0.00    +0.000 A 
ATOM      6  C   UNL     1       5.373   6.029  15.917  0.00  0.00    +0.000 A 
ENDROOT
BRANCH   4   7
ATOM      7  C   UNL     1       2.982   4.624  18.532  0.00  0.00    +0.000 A 
ATOM      8  C   UNL     1       2.955   5.547  19.589  0.00  0.00    +0.000 A 
ATOM      9  C   UNL     1       1.995   5.453  20.596  0.00  0.00    +0.000 A 
ATOM     10  C   UNL     1       1.065   4.434  20.523  0.00  0.00    +0.000 A 
ATOM     11  N   UNL     1       1.042   3.520  19.534  0.00  0.00    +0.000 NA
ATOM     12  C   UNL     1       1.995   3.636  18.576  0.00  0.00    +0.000 A 
ENDBRANCH   4   7
BRANCH   1  14
ATOM     13  O   UNL     1       7.939   5.649  14.557  0.00  0.00    +0.000 OA
ATOM     14  N   UNL     1       6.948   4.937  14.344  0.00  0.00    +0.000 N 
ATOM     15  O   UNL     1       6.760   4.287  13.305  0.00  0.00    +0.000 OA
ENDBRANCH   1  14
TORSDOF 2
ENDMDL
MODEL 6
REMARK VINA RESULT:      -6.6      3.435      6.267
REMARK  Name = 
REMARK  2 active torsions:
REMARK  status: ('A' for Active; 'I' for Inactive)
REMARK    1  A    between atoms: N_2  and  C_4
REMARK    2  A    between atoms: C_7  and  C_8
REMARK                            x       y       z     vdW  Elec       q    Type
REMARK                         _______ _______ _______ _____ _____    ______ ____
ROOT
ATOM      1  C   UNL     1       2.967   3.437  19.842  0.00  0.00    +0.000 A 
ATOM      2  C   UNL     1       3.590   4.685  19.764  0.00  0.00    +0.000 A 
ATOM      3  C   UNL     1       4.397   4.985  18.659  0.00  0.00    +0.000 A 
ATOM      4  C   UNL     1       4.613   4.053  17.625  0.00  0.00    +0.000 A 
ATOM      5  C   UNL     1       3.965   2.806  17.733  0.00  0.00    +0.000 A 
ATOM      6  C   UNL     1       3.145   2.496  18.825  0.00  0.00    +0.000 A 
ENDROOT
BRANCH   4   7
ATOM      7  C   UNL     1       5.497   4.365  16.480  0.00  0.00    +0.000 A 
ATOM      8  C   UNL     1       5.274   3.838  15.198  0.00  0.00    +0.000 A 
ATOM      9  C   UNL     1       6.117   4.161  14.136  0.00  0.00    +0.000 A 
ATOM     10  C   UNL     1       7.172   5.021  14.373  0.00  0.00    +0.000 A 
ATOM     11  N   UNL     1       7.436   5.557  15.579  0.00  0.00    +0.000 NA
ATOM     12  C   UNL     1       6.601   5.215  16.593  0.00  0.00    +0.000 A 
ENDBRANCH   4   7
BRANCH   1  14
ATOM     13  O   UNL     1       0.912   3.320  20.911  0.00  0.00    +0.000 OA
ATOM     14  N   UNL     1       2.129   3.111  21.002  0.00  0.00    +0.000 N 
ATOM     15  O   UNL     1       2.690   2.649  22.006  0.00  0.00    +0.000 OA
ENDBRANCH   1  14
TORSDOF 2
ENDMDL
MODEL 7
REMARK VINA RESULT:      -6.6      3.415      6.155
REMARK  Name = 
REMARK  2 active torsions:
REMARK  status: ('A' for Active; 'I' for Inactive)
REMARK    1  A    between atoms: N_2  and  C_4
REMARK    2  A    between atoms: C_7  and  C_8
REMARK                            x       y       z     vdW  Elec       q    Type
REMARK                         _______ _______ _______ _____ _____    ______ ____
ROOT
ATOM      1  C   UNL     1       2.981   3.596  19.848  0.00  0.00    +0.000 A 
ATOM      2  C   UNL     1       3.051   2.681  18.794  0.00  0.00    +0.000 A 
ATOM      3  C   UNL     1       3.898   2.943  17.709  0.00  0.00    +0.000 A 
ATOM      4  C   UNL     1       4.674   4.116  17.641  0.00  0.00    +0.000 A 
ATOM      5  C   UNL     1       4.584   5.014  18.724  0.00  0.00    +0.000 A 
ATOM      6  C   UNL     1       3.752   4.761  19.822  0.00  0.00    +0.000 A 
ENDROOT
BRANCH   4   7
ATOM      7  C   UNL     1       5.537   4.401  16.474  0.00  0.00    +0.000 A 
ATOM      8  C   UNL     1       5.288   3.849  15.208  0.00  0.00    +0.000 A 
ATOM      9  C   UNL     1       6.112   4.146  14.123  0.00  0.00    +0.000 A 
ATOM     10  C   UNL     1       7.176   5.006  14.323  0.00  0.00    +0.000 A 
ATOM     11  N   UNL     1       7.464   5.565  15.513  0.00  0.00    +0.000 NA
ATOM     12  C   UNL     1       6.647   5.248  16.549  0.00  0.00    +0.000 A 
ENDBRANCH   4   7
BRANCH   1  14
ATOM     13  O   UNL     1       0.879   3.545  20.826  0.00  0.00    +0.000 OA
ATOM     14  N   UNL     1       2.089   3.334  20.983  0.00  0.00    +0.000 N 
ATOM     15  O   UNL     1       2.600   2.919  22.034  0.00  0.00    +0.000 OA
ENDBRANCH   1  14
TORSDOF 2
ENDMDL
MODEL 8
REMARK VINA RESULT:      -6.5      3.626      6.365
REMARK  Name = 
REMARK  2 active torsions:
REMARK  status: ('A' for Active; 'I' for Inactive)
REMARK    1  A    between atoms: N_2  and  C_4
REMARK    2  A    between atoms: C_7  and  C_8
REMARK                            x       y       z     vdW  Elec       q    Type
REMARK                         _______ _______ _______ _____ _____    ______ ____
ROOT
ATOM      1  C   UNL     1       2.080   3.458  18.733  0.00  0.00    +0.000 A 
ATOM      2  C   UNL     1       2.916   2.443  18.260  0.00  0.00    +0.000 A 
ATOM      3  C   UNL     1       3.979   2.767  17.407  0.00  0.00    +0.000 A 
ATOM      4  C   UNL     1       4.221   4.092  16.995  0.00  0.00    +0.000 A 
ATOM      5  C   UNL     1       3.362   5.091  17.495  0.00  0.00    +0.000 A 
ATOM      6  C   UNL     1       2.303   4.785  18.359  0.00  0.00    +0.000 A 
ENDROOT
BRANCH   4   7
ATOM      7  C   UNL     1       5.324   4.419  16.064  0.00  0.00    +0.000 A 
ATOM      8  C   UNL     1       5.360   3.931  14.748  0.00  0.00    +0.000 A 
ATOM      9  C   UNL     1       6.407   4.267  13.890  0.00  0.00    +0.000 A 
ATOM     10  C   UNL     1       7.402   5.100  14.363  0.00  0.00    +0.000 A 
ATOM     11  N   UNL     1       7.421   5.598  15.614  0.00  0.00    +0.000 NA
ATOM     12  C   UNL     1       6.393   5.244  16.425  0.00  0.00    +0.000 A 
ENDBRANCH   4   7
BRANCH   1  14
ATOM     13  O   UNL     1       0.076   2.378  19.176  0.00  0.00    +0.000 OA
ATOM     14  N   UNL     1       0.958   3.126  19.618  0.00  0.00    +0.000 N 
ATOM     15  O   UNL     1       0.959   3.616  20.757  0.00  0.00    +0.000 OA
ENDBRANCH   1  14
TORSDOF 2
ENDMDL
MODEL 9
REMARK VINA RESULT:      -6.5      0.919      1.819
REMARK  Name = 
REMARK  2 active torsions:
REMARK  status: ('A' for Active; 'I' for Inactive)
REMARK    1  A    between atoms: N_2  and  C_4
REMARK    2  A    between atoms: C_7  and  C_8
REMARK                            x       y       z     vdW  Elec       q    Type
REMARK                         _______ _______ _______ _____ _____    ______ ____
ROOT
ATOM      1  C   UNL     1       5.997   4.784  16.484  0.00  0.00    +0.000 A 
ATOM      2  C   UNL     1       6.244   5.045  17.834  0.00  0.00    +0.000 A 
ATOM      3  C   UNL     1       5.307   4.647  18.796  0.00  0.00    +0.000 A 
ATOM      4  C   UNL     1       4.107   4.002  18.439  0.00  0.00    +0.000 A 
ATOM      5  C   UNL     1       3.892   3.749  17.069  0.00  0.00    +0.000 A 
ATOM      6  C   UNL     1       4.825   4.129  16.097  0.00  0.00    +0.000 A 
ENDROOT
BRANCH   4   7
ATOM      7  C   UNL     1       3.106   3.619  19.460  0.00  0.00    +0.000 A 
ATOM      8  C   UNL     1       3.425   2.783  20.542  0.00  0.00    +0.000 A 
ATOM      9  C   UNL     1       2.463   2.450  21.495  0.00  0.00    +0.000 A 
ATOM     10  C   UNL     1       1.191   2.970  21.353  0.00  0.00    +0.000 A 
ATOM     11  N   UNL     1       0.827   3.776  20.338  0.00  0.00    +0.000 NA
ATOM     12  C   UNL     1       1.785   4.073  19.424  0.00  0.00    +0.000 A 
ENDBRANCH   4   7
BRANCH   1  14
ATOM     13  O   UNL     1       7.736   6.135  15.757  0.00  0.00    +0.000 OA
ATOM     14  N   UNL     1       6.968   5.207  15.469  0.00  0.00    +0.000 N 
ATOM     15  O   UNL     1       6.961   4.611  14.382  0.00  0.00    +0.000 OA
ENDBRANCH   1  14
TORSDOF 2
ENDMDL
