MODEL 1
REMARK VINA RESULT:      -7.5      0.000      0.000
REMARK  Name = 
REMARK  12 active torsions:
REMARK  status: ('A' for Active; 'I' for Inactive)
REMARK    1  A    between atoms: C_1  and  C_2
REMARK    2  A    between atoms: C_2  and  C_3
REMARK    3  A    between atoms: C_2  and  N_4
REMARK    4  A    between atoms: N_4  and  C_5
REMARK    5  A    between atoms: C_6  and  C_8
REMARK    6  A    between atoms: C_8  and  C_9
REMARK    7  A    between atoms: C_9  and  C_10
REMARK    8  A    between atoms: C_10  and  C_11
REMARK    9  A    between atoms: C_10  and  C_12
REMARK   10  A    between atoms: C_21  and  O_22
REMARK   11  A    between atoms: C_25  and  C_26
REMARK   12  A    between atoms: C_30  and  C_31
REMARK                            x       y       z     vdW  Elec       q    Type
REMARK                         _______ _______ _______ _____ _____    ______ ____
ROOT
ATOM      1  C   UNL     1       1.349  10.600  19.469  0.00  0.00    +0.000 C 
ATOM      2  C   UNL     1       0.625  10.413  20.835  0.00  0.00    +0.000 C 
ATOM      3  C   UNL     1       0.632   8.910  21.162  0.00  0.00    +0.000 C 
ATOM      4  C   UNL     1       1.618   8.316  20.172  0.00  0.00    +0.000 C 
ATOM      5  C   UNL     1       1.555   6.814  19.856  0.00  0.00    +0.000 C 
ATOM      6  C   UNL     1       1.677   5.952  21.115  0.00  0.00    +0.000 C 
ATOM      7  C   UNL     1       1.896   4.505  20.794  0.00  0.00    +0.000 C 
ATOM      8  C   UNL     1       2.269   4.030  19.591  0.00  0.00    +0.000 C 
ATOM      9  C   UNL     1       2.438   2.543  19.376  0.00  0.00    +0.000 C 
ATOM     10  C   UNL     1       3.801   2.203  18.767  0.00  0.00    +0.000 C 
ATOM     11  C   UNL     1       4.080   3.022  17.509  0.00  0.00    +0.000 C 
ATOM     12  C   UNL     1       3.943   4.518  17.776  0.00  0.00    +0.000 C 
ATOM     13  C   UNL     1       2.572   4.933  18.387  0.00  0.00    +0.000 C 
ATOM     14  C   UNL     1       1.460   4.732  17.327  0.00  0.00    +0.000 C 
ATOM     15  C   UNL     1       2.674   6.438  18.837  0.00  0.00    +0.000 C 
ATOM     16  C   UNL     1       2.792   7.423  17.646  0.00  0.00    +0.000 C 
ATOM     17  C   UNL     1       2.695   8.886  18.067  0.00  0.00    +0.000 C 
ATOM     18  C   UNL     1       1.412   9.163  18.884  0.00  0.00    +0.000 C 
ATOM     19  C   UNL     1       0.085   8.749  18.189  0.00  0.00    +0.000 C 
ENDROOT
BRANCH   1  20
ATOM     20  C   UNL     1       0.843  11.815  18.620  0.00  0.00    +0.000 C 
ATOM     21  C   UNL     1       1.825  12.978  18.424  0.00  0.00    +0.000 C 
BRANCH  20  22
ATOM     22  C   UNL     1      -0.592  12.321  18.958  0.00  0.00    +0.000 C 
BRANCH  22  23
ATOM     23  C   UNL     1      -1.744  11.824  18.078  0.00  0.00    +0.000 C 
BRANCH  23  26
ATOM     24  N   UNL     1      -4.218  11.681  17.883  0.00  0.00    +0.000 N 
ATOM     25  C   UNL     1      -4.075  11.212  16.506  0.00  0.00    +0.000 C 
ATOM     26  C   UNL     1      -3.125  12.065  18.671  0.00  0.00    +0.000 C 
ATOM     27  O   UNL     1      -3.251  12.542  19.802  0.00  0.00    +0.000 OA
BRANCH  24  29
ATOM     28  C   UNL     1      -6.439  12.791  17.621  0.00  0.00    +0.000 C 
ATOM     29  C   UNL     1      -5.576  11.827  18.437  0.00  0.00    +0.000 C 
ATOM     30  C   UNL     1      -6.251  10.464  18.603  0.00  0.00    +0.000 C 
ENDBRANCH  24  29
ENDBRANCH  23  26
ENDBRANCH  22  23
ENDBRANCH  20  22
ENDBRANCH   1  20
BRANCH  10  31
ATOM     31  O   UNL     1       3.856   0.816  18.443  0.00  0.00    +0.000 OA
ATOM     32  H   UNL     1       2.942   0.497  18.341  0.00  0.00    +0.000 HD
ENDBRANCH  10  31
TORSDOF 6
ENDMDL
MODEL 2
REMARK VINA RESULT:      -7.4      3.664     10.141
REMARK  Name = 
REMARK  12 active torsions:
REMARK  status: ('A' for Active; 'I' for Inactive)
REMARK    1  A    between atoms: C_1  and  C_2
REMARK    2  A    between atoms: C_2  and  C_3
REMARK    3  A    between atoms: C_2  and  N_4
REMARK    4  A    between atoms: N_4  and  C_5
REMARK    5  A    between atoms: C_6  and  C_8
REMARK    6  A    between atoms: C_8  and  C_9
REMARK    7  A    between atoms: C_9  and  C_10
REMARK    8  A    between atoms: C_10  and  C_11
REMARK    9  A    between atoms: C_10  and  C_12
REMARK   10  A    between atoms: C_21  and  O_22
REMARK   11  A    between atoms: C_25  and  C_26
REMARK   12  A    between atoms: C_30  and  C_31
REMARK                            x       y       z     vdW  Elec       q    Type
REMARK                         _______ _______ _______ _____ _____    ______ ____
ROOT
ATOM      1  C   UNL     1       0.624   9.109  20.237  0.00  0.00    +0.000 C 
ATOM      2  C   UNL     1       0.947   8.763  21.721  0.00  0.00    +0.000 C 
ATOM      3  C   UNL     1       0.181   9.762  22.607  0.00  0.00    +0.000 C 
ATOM      4  C   UNL     1      -0.796  10.431  21.657  0.00  0.00    +0.000 C 
ATOM      5  C   UNL     1      -1.398  11.794  22.034  0.00  0.00    +0.000 C 
ATOM      6  C   UNL     1      -2.110  11.757  23.389  0.00  0.00    +0.000 C 
ATOM      7  C   UNL     1      -2.930  12.987  23.633  0.00  0.00    +0.000 C 
ATOM      8  C   UNL     1      -3.286  13.876  22.688  0.00  0.00    +0.000 C 
ATOM      9  C   UNL     1      -4.098  15.098  23.055  0.00  0.00    +0.000 C 
ATOM     10  C   UNL     1      -5.343  15.243  22.178  0.00  0.00    +0.000 C 
ATOM     11  C   UNL     1      -5.001  15.182  20.691  0.00  0.00    +0.000 C 
ATOM     12  C   UNL     1      -4.220  13.916  20.351  0.00  0.00    +0.000 C 
ATOM     13  C   UNL     1      -2.932  13.714  21.203  0.00  0.00    +0.000 C 
ATOM     14  C   UNL     1      -1.892  14.797  20.821  0.00  0.00    +0.000 C 
ATOM     15  C   UNL     1      -2.384  12.265  20.921  0.00  0.00    +0.000 C 
ATOM     16  C   UNL     1      -1.833  12.091  19.483  0.00  0.00    +0.000 C 
ATOM     17  C   UNL     1      -1.128  10.755  19.270  0.00  0.00    +0.000 C 
ATOM     18  C   UNL     1      -0.014  10.522  20.316  0.00  0.00    +0.000 C 
ATOM     19  C   UNL     1       1.054  11.648  20.406  0.00  0.00    +0.000 C 
ENDROOT
BRANCH   1  20
ATOM     20  C   UNL     1       1.770   8.776  19.223  0.00  0.00    +0.000 C 
ATOM     21  C   UNL     1       1.560   9.224  17.770  0.00  0.00    +0.000 C 
BRANCH  20  22
ATOM     22  C   UNL     1       2.343   7.328  19.304  0.00  0.00    +0.000 C 
BRANCH  22  23
ATOM     23  C   UNL     1       3.114   6.802  18.089  0.00  0.00    +0.000 C 
BRANCH  23  26
ATOM     24  N   UNL     1       5.360   5.926  17.485  0.00  0.00    +0.000 N 
ATOM     25  C   UNL     1       5.218   6.503  16.149  0.00  0.00    +0.000 C 
ATOM     26  C   UNL     1       4.341   5.975  18.445  0.00  0.00    +0.000 C 
ATOM     27  O   UNL     1       4.428   5.415  19.541  0.00  0.00    +0.000 OA
BRANCH  24  29
ATOM     28  C   UNL     1       7.195   4.490  16.587  0.00  0.00    +0.000 C 
ATOM     29  C   UNL     1       6.601   5.198  17.806  0.00  0.00    +0.000 C 
ATOM     30  C   UNL     1       7.621   6.119  18.479  0.00  0.00    +0.000 C 
ENDBRANCH  24  29
ENDBRANCH  23  26
ENDBRANCH  22  23
ENDBRANCH  20  22
ENDBRANCH   1  20
BRANCH  10  31
ATOM     31  O   UNL     1      -5.992  16.482  22.456  0.00  0.00    +0.000 OA
ATOM     32  H   UNL     1      -6.164  16.520  23.413  0.00  0.00    +0.000 HD
ENDBRANCH  10  31
TORSDOF 6
ENDMDL
MODEL 3
REMARK VINA RESULT:      -7.3      3.606     10.007
REMARK  Name = 
REMARK  12 active torsions:
REMARK  status: ('A' for Active; 'I' for Inactive)
REMARK    1  A    between atoms: C_1  and  C_2
REMARK    2  A    between atoms: C_2  and  C_3
REMARK    3  A    between atoms: C_2  and  N_4
REMARK    4  A    between atoms: N_4  and  C_5
REMARK    5  A    between atoms: C_6  and  C_8
REMARK    6  A    between atoms: C_8  and  C_9
REMARK    7  A    between atoms: C_9  and  C_10
REMARK    8  A    between atoms: C_10  and  C_11
REMARK    9  A    between atoms: C_10  and  C_12
REMARK   10  A    between atoms: C_21  and  O_22
REMARK   11  A    between atoms: C_25  and  C_26
REMARK   12  A    between atoms: C_30  and  C_31
REMARK                            x       y       z     vdW  Elec       q    Type
REMARK                         _______ _______ _______ _____ _____    ______ ____
ROOT
ATOM      1  C   UNL     1       0.721   8.946  20.232  0.00  0.00    +0.000 C 
ATOM      2  C   UNL     1       1.088   8.645  21.716  0.00  0.00    +0.000 C 
ATOM      3  C   UNL     1       0.336   9.660  22.595  0.00  0.00    +0.000 C 
ATOM      4  C   UNL     1      -0.675  10.292  21.655  0.00  0.00    +0.000 C 
ATOM      5  C   UNL     1      -1.280  11.659  22.011  0.00  0.00    +0.000 C 
ATOM      6  C   UNL     1      -1.954  11.652  23.386  0.00  0.00    +0.000 C 
ATOM      7  C   UNL     1      -2.781  12.880  23.619  0.00  0.00    +0.000 C 
ATOM      8  C   UNL     1      -3.172  13.739  22.660  0.00  0.00    +0.000 C 
ATOM      9  C   UNL     1      -3.987  14.962  23.016  0.00  0.00    +0.000 C 
ATOM     10  C   UNL     1      -5.259  15.070  22.170  0.00  0.00    +0.000 C 
ATOM     11  C   UNL     1      -4.956  14.971  20.677  0.00  0.00    +0.000 C 
ATOM     12  C   UNL     1      -4.171  13.704  20.350  0.00  0.00    +0.000 C 
ATOM     13  C   UNL     1      -2.858  13.539  21.171  0.00  0.00    +0.000 C 
ATOM     14  C   UNL     1      -1.842  14.622  20.730  0.00  0.00    +0.000 C 
ATOM     15  C   UNL     1      -2.302  12.088  20.914  0.00  0.00    +0.000 C 
ATOM     16  C   UNL     1      -1.789  11.880  19.466  0.00  0.00    +0.000 C 
ATOM     17  C   UNL     1      -1.075  10.547  19.270  0.00  0.00    +0.000 C 
ATOM     18  C   UNL     1       0.070  10.354  20.291  0.00  0.00    +0.000 C 
ATOM     19  C   UNL     1       1.127  11.493  20.320  0.00  0.00    +0.000 C 
ENDROOT
BRANCH   1  20
ATOM     20  C   UNL     1       1.842   8.597  19.196  0.00  0.00    +0.000 C 
ATOM     21  C   UNL     1       1.523   8.859  17.718  0.00  0.00    +0.000 C 
BRANCH  20  22
ATOM     22  C   UNL     1       2.544   7.220  19.401  0.00  0.00    +0.000 C 
BRANCH  22  23
ATOM     23  C   UNL     1       2.624   6.280  18.194  0.00  0.00    +0.000 C 
BRANCH  23  26
ATOM     24  N   UNL     1       4.671   5.024  17.551  0.00  0.00    +0.000 N 
ATOM     25  C   UNL     1       4.188   3.867  18.305  0.00  0.00    +0.000 C 
ATOM     26  C   UNL     1       3.990   6.248  17.523  0.00  0.00    +0.000 C 
ATOM     27  O   UNL     1       4.438   7.249  16.959  0.00  0.00    +0.000 OA
BRANCH  24  29
ATOM     28  C   UNL     1       7.124   4.642  17.817  0.00  0.00    +0.000 C 
ATOM     29  C   UNL     1       5.966   4.918  16.856  0.00  0.00    +0.000 C 
ATOM     30  C   UNL     1       5.903   3.881  15.732  0.00  0.00    +0.000 C 
ENDBRANCH  24  29
ENDBRANCH  23  26
ENDBRANCH  22  23
ENDBRANCH  20  22
ENDBRANCH   1  20
BRANCH  10  31
ATOM     31  O   UNL     1      -5.913  16.309  22.433  0.00  0.00    +0.000 OA
ATOM     32  H   UNL     1      -6.836  16.228  22.133  0.00  0.00    +0.000 HD
ENDBRANCH  10  31
TORSDOF 6
ENDMDL
MODEL 4
REMARK VINA RESULT:      -7.2      3.372      9.897
REMARK  Name = 
REMARK  12 active torsions:
REMARK  status: ('A' for Active; 'I' for Inactive)
REMARK    1  A    between atoms: C_1  and  C_2
REMARK    2  A    between atoms: C_2  and  C_3
REMARK    3  A    between atoms: C_2  and  N_4
REMARK    4  A    between atoms: N_4  and  C_5
REMARK    5  A    between atoms: C_6  and  C_8
REMARK    6  A    between atoms: C_8  and  C_9
REMARK    7  A    between atoms: C_9  and  C_10
REMARK    8  A    between atoms: C_10  and  C_11
REMARK    9  A    between atoms: C_10  and  C_12
REMARK   10  A    between atoms: C_21  and  O_22
REMARK   11  A    between atoms: C_25  and  C_26
REMARK   12  A    between atoms: C_30  and  C_31
REMARK                            x       y       z     vdW  Elec       q    Type
REMARK                         _______ _______ _______ _____ _____    ______ ____
ROOT
ATOM      1  C   UNL     1       0.713   9.030  20.186  0.00  0.00    +0.000 C 
ATOM      2  C   UNL     1       1.068   8.686  21.663  0.00  0.00    +0.000 C 
ATOM      3  C   UNL     1       0.299   9.666  22.566  0.00  0.00    +0.000 C 
ATOM      4  C   UNL     1      -0.708  10.319  21.636  0.00  0.00    +0.000 C 
ATOM      5  C   UNL     1      -1.329  11.669  22.028  0.00  0.00    +0.000 C 
ATOM      6  C   UNL     1      -2.016  11.613  23.395  0.00  0.00    +0.000 C 
ATOM      7  C   UNL     1      -2.856  12.826  23.659  0.00  0.00    +0.000 C 
ATOM      8  C   UNL     1      -3.245  13.712  22.723  0.00  0.00    +0.000 C 
ATOM      9  C   UNL     1      -4.074  14.916  23.109  0.00  0.00    +0.000 C 
ATOM     10  C   UNL     1      -5.337  15.041  22.254  0.00  0.00    +0.000 C 
ATOM     11  C   UNL     1      -5.019  14.991  20.762  0.00  0.00    +0.000 C 
ATOM     12  C   UNL     1      -4.220  13.742  20.403  0.00  0.00    +0.000 C 
ATOM     13  C   UNL     1      -2.914  13.562  21.231  0.00  0.00    +0.000 C 
ATOM     14  C   UNL     1      -1.903  14.667  20.836  0.00  0.00    +0.000 C 
ATOM     15  C   UNL     1      -2.343  12.125  20.934  0.00  0.00    +0.000 C 
ATOM     16  C   UNL     1      -1.814  11.967  19.487  0.00  0.00    +0.000 C 
ATOM     17  C   UNL     1      -1.087  10.646  19.255  0.00  0.00    +0.000 C 
ATOM     18  C   UNL     1       0.049  10.431  20.282  0.00  0.00    +0.000 C 
ATOM     19  C   UNL     1       1.097  11.577  20.358  0.00  0.00    +0.000 C 
ENDROOT
BRANCH   1  20
ATOM     20  C   UNL     1       1.848   8.724  19.151  0.00  0.00    +0.000 C 
ATOM     21  C   UNL     1       1.548   9.047  17.680  0.00  0.00    +0.000 C 
BRANCH  20  22
ATOM     22  C   UNL     1       2.546   7.339  19.307  0.00  0.00    +0.000 C 
BRANCH  22  23
ATOM     23  C   UNL     1       2.213   6.257  18.274  0.00  0.00    +0.000 C 
BRANCH  23  26
ATOM     24  N   UNL     1       2.973   3.979  18.916  0.00  0.00    +0.000 N 
ATOM     25  C   UNL     1       1.838   3.867  19.833  0.00  0.00    +0.000 C 
ATOM     26  C   UNL     1       3.248   5.143  18.189  0.00  0.00    +0.000 C 
ATOM     27  O   UNL     1       4.251   5.268  17.481  0.00  0.00    +0.000 OA
BRANCH  24  29
ATOM     28  C   UNL     1       4.361   2.334  20.182  0.00  0.00    +0.000 C 
ATOM     29  C   UNL     1       3.905   2.842  18.812  0.00  0.00    +0.000 C 
ATOM     30  C   UNL     1       3.311   1.719  17.961  0.00  0.00    +0.000 C 
ENDBRANCH  24  29
ENDBRANCH  23  26
ENDBRANCH  22  23
ENDBRANCH  20  22
ENDBRANCH   1  20
BRANCH  10  31
ATOM     31  O   UNL     1      -6.005  16.265  22.549  0.00  0.00    +0.000 OA
ATOM     32  H   UNL     1      -5.746  16.538  23.446  0.00  0.00    +0.000 HD
ENDBRANCH  10  31
TORSDOF 6
ENDMDL
MODEL 5
REMARK VINA RESULT:      -7.2      3.468      9.975
REMARK  Name = 
REMARK  12 active torsions:
REMARK  status: ('A' for Active; 'I' for Inactive)
REMARK    1  A    between atoms: C_1  and  C_2
REMARK    2  A    between atoms: C_2  and  C_3
REMARK    3  A    between atoms: C_2  and  N_4
REMARK    4  A    between atoms: N_4  and  C_5
REMARK    5  A    between atoms: C_6  and  C_8
REMARK    6  A    between atoms: C_8  and  C_9
REMARK    7  A    between atoms: C_9  and  C_10
REMARK    8  A    between atoms: C_10  and  C_11
REMARK    9  A    between atoms: C_10  and  C_12
REMARK   10  A    between atoms: C_21  and  O_22
REMARK   11  A    between atoms: C_25  and  C_26
REMARK   12  A    between atoms: C_30  and  C_31
REMARK                            x       y       z     vdW  Elec       q    Type
REMARK                         _______ _______ _______ _____ _____    ______ ____
ROOT
ATOM      1  C   UNL     1       0.553   9.139  20.269  0.00  0.00    +0.000 C 
ATOM      2  C   UNL     1       0.860   8.776  21.753  0.00  0.00    +0.000 C 
ATOM      3  C   UNL     1       0.107   9.782  22.641  0.00  0.00    +0.000 C 
ATOM      4  C   UNL     1      -0.852  10.477  21.691  0.00  0.00    +0.000 C 
ATOM      5  C   UNL     1      -1.429  11.848  22.074  0.00  0.00    +0.000 C 
ATOM      6  C   UNL     1      -2.151  11.814  23.423  0.00  0.00    +0.000 C 
ATOM      7  C   UNL     1      -2.950  13.057  23.672  0.00  0.00    +0.000 C 
ATOM      8  C   UNL     1      -3.282  13.961  22.731  0.00  0.00    +0.000 C 
ATOM      9  C   UNL     1      -4.074  15.194  23.103  0.00  0.00    +0.000 C 
ATOM     10  C   UNL     1      -5.311  15.370  22.218  0.00  0.00    +0.000 C 
ATOM     11  C   UNL     1      -4.959  15.314  20.734  0.00  0.00    +0.000 C 
ATOM     12  C   UNL     1      -4.200  14.036  20.389  0.00  0.00    +0.000 C 
ATOM     13  C   UNL     1      -2.922  13.803  21.247  0.00  0.00    +0.000 C 
ATOM     14  C   UNL     1      -1.860  14.869  20.881  0.00  0.00    +0.000 C 
ATOM     15  C   UNL     1      -2.399  12.346  20.958  0.00  0.00    +0.000 C 
ATOM     16  C   UNL     1      -1.842  12.172  19.523  0.00  0.00    +0.000 C 
ATOM     17  C   UNL     1      -1.161  10.826  19.303  0.00  0.00    +0.000 C 
ATOM     18  C   UNL     1      -0.058  10.564  20.355  0.00  0.00    +0.000 C 
ATOM     19  C   UNL     1       1.030  11.668  20.461  0.00  0.00    +0.000 C 
ENDROOT
BRANCH   1  20
ATOM     20  C   UNL     1       1.700   8.793  19.260  0.00  0.00    +0.000 C 
ATOM     21  C   UNL     1       1.425   9.076  17.777  0.00  0.00    +0.000 C 
BRANCH  20  22
ATOM     22  C   UNL     1       2.383   7.407  19.467  0.00  0.00    +0.000 C 
BRANCH  22  23
ATOM     23  C   UNL     1       2.808   6.633  18.214  0.00  0.00    +0.000 C 
BRANCH  23  26
ATOM     24  N   UNL     1       3.612   4.359  18.817  0.00  0.00    +0.000 N 
ATOM     25  C   UNL     1       4.929   4.915  19.124  0.00  0.00    +0.000 C 
ATOM     26  C   UNL     1       2.565   5.133  18.301  0.00  0.00    +0.000 C 
ATOM     27  O   UNL     1       1.481   4.650  17.961  0.00  0.00    +0.000 OA
BRANCH  24  29
ATOM     28  C   UNL     1       3.577   2.136  17.681  0.00  0.00    +0.000 C 
ATOM     29  C   UNL     1       3.404   2.910  18.989  0.00  0.00    +0.000 C 
ATOM     30  C   UNL     1       4.298   2.354  20.099  0.00  0.00    +0.000 C 
ENDBRANCH  24  29
ENDBRANCH  23  26
ENDBRANCH  22  23
ENDBRANCH  20  22
ENDBRANCH   1  20
BRANCH  10  31
ATOM     31  O   UNL     1      -5.938  16.619  22.502  0.00  0.00    +0.000 OA
ATOM     32  H   UNL     1      -6.817  16.612  22.085  0.00  0.00    +0.000 HD
ENDBRANCH  10  31
TORSDOF 6
ENDMDL
MODEL 6
REMARK VINA RESULT:      -7.2      3.316      9.587
REMARK  Name = 
REMARK  12 active torsions:
REMARK  status: ('A' for Active; 'I' for Inactive)
REMARK    1  A    between atoms: C_1  and  C_2
REMARK    2  A    between atoms: C_2  and  C_3
REMARK    3  A    between atoms: C_2  and  N_4
REMARK    4  A    between atoms: N_4  and  C_5
REMARK    5  A    between atoms: C_6  and  C_8
REMARK    6  A    between atoms: C_8  and  C_9
REMARK    7  A    between atoms: C_9  and  C_10
REMARK    8  A    between atoms: C_10  and  C_11
REMARK    9  A    between atoms: C_10  and  C_12
REMARK   10  A    between atoms: C_21  and  O_22
REMARK   11  A    between atoms: C_25  and  C_26
REMARK   12  A    between atoms: C_30  and  C_31
REMARK                            x       y       z     vdW  Elec       q    Type
REMARK                         _______ _______ _______ _____ _____    ______ ____
ROOT
ATOM      1  C   UNL     1       0.904   9.027  19.936  0.00  0.00    +0.000 C 
ATOM      2  C   UNL     1       1.314   8.651  21.391  0.00  0.00    +0.000 C 
ATOM      3  C   UNL     1       0.532   9.570  22.345  0.00  0.00    +0.000 C 
ATOM      4  C   UNL     1      -0.525  10.211  21.465  0.00  0.00    +0.000 C 
ATOM      5  C   UNL     1      -1.188  11.522  21.918  0.00  0.00    +0.000 C 
ATOM      6  C   UNL     1      -1.834  11.395  23.300  0.00  0.00    +0.000 C 
ATOM      7  C   UNL     1      -2.712  12.564  23.626  0.00  0.00    +0.000 C 
ATOM      8  C   UNL     1      -3.163  13.463  22.730  0.00  0.00    +0.000 C 
ATOM      9  C   UNL     1      -4.027  14.620  23.178  0.00  0.00    +0.000 C 
ATOM     10  C   UNL     1      -5.318  14.720  22.361  0.00  0.00    +0.000 C 
ATOM     11  C   UNL     1      -5.041  14.731  20.860  0.00  0.00    +0.000 C 
ATOM     12  C   UNL     1      -4.203  13.527  20.439  0.00  0.00    +0.000 C 
ATOM     13  C   UNL     1      -2.868  13.373  21.226  0.00  0.00    +0.000 C 
ATOM     14  C   UNL     1      -1.913  14.530  20.840  0.00  0.00    +0.000 C 
ATOM     15  C   UNL     1      -2.250  11.971  20.867  0.00  0.00    +0.000 C 
ATOM     16  C   UNL     1      -1.756  11.880  19.401  0.00  0.00    +0.000 C 
ATOM     17  C   UNL     1      -0.984  10.598  19.107  0.00  0.00    +0.000 C 
ATOM     18  C   UNL     1       0.189  10.396  20.095  0.00  0.00    +0.000 C 
ATOM     19  C   UNL     1       1.191  11.580  20.180  0.00  0.00    +0.000 C 
ENDROOT
BRANCH   1  20
ATOM     20  C   UNL     1       2.020   8.800  18.861  0.00  0.00    +0.000 C 
ATOM     21  C   UNL     1       2.120   9.840  17.737  0.00  0.00    +0.000 C 
BRANCH  20  22
ATOM     22  C   UNL     1       2.143   7.344  18.315  0.00  0.00    +0.000 C 
BRANCH  22  23
ATOM     23  C   UNL     1       3.193   6.433  18.958  0.00  0.00    +0.000 C 
BRANCH  23  26
ATOM     24  N   UNL     1       2.859   3.988  18.663  0.00  0.00    +0.000 N 
ATOM     25  C   UNL     1       3.457   4.074  17.331  0.00  0.00    +0.000 C 
ATOM     26  C   UNL     1       2.637   5.111  19.469  0.00  0.00    +0.000 C 
ATOM     27  O   UNL     1       2.055   5.050  20.556  0.00  0.00    +0.000 OA
BRANCH  24  29
ATOM     28  C   UNL     1       0.946   2.387  18.776  0.00  0.00    +0.000 C 
ATOM     29  C   UNL     1       2.404   2.670  19.143  0.00  0.00    +0.000 C 
ATOM     30  C   UNL     1       3.335   1.557  18.661  0.00  0.00    +0.000 C 
ENDBRANCH  24  29
ENDBRANCH  23  26
ENDBRANCH  22  23
ENDBRANCH  20  22
ENDBRANCH   1  20
BRANCH  10  31
ATOM     31  O   UNL     1      -6.026  15.907  22.714  0.00  0.00    +0.000 OA
ATOM     32  H   UNL     1      -5.379  16.548  23.058  0.00  0.00    +0.000 HD
ENDBRANCH  10  31
TORSDOF 6
ENDMDL
MODEL 7
REMARK VINA RESULT:      -7.0      1.192      1.613
REMARK  Name = 
REMARK  12 active torsions:
REMARK  status: ('A' for Active; 'I' for Inactive)
REMARK    1  A    between atoms: C_1  and  C_2
REMARK    2  A    between atoms: C_2  and  C_3
REMARK    3  A    between atoms: C_2  and  N_4
REMARK    4  A    between atoms: N_4  and  C_5
REMARK    5  A    between atoms: C_6  and  C_8
REMARK    6  A    between atoms: C_8  and  C_9
REMARK    7  A    between atoms: C_9  and  C_10
REMARK    8  A    between atoms: C_10  and  C_11
REMARK    9  A    between atoms: C_10  and  C_12
REMARK   10  A    between atoms: C_21  and  O_22
REMARK   11  A    between atoms: C_25  and  C_26
REMARK   12  A    between atoms: C_30  and  C_31
REMARK                            x       y       z     vdW  Elec       q    Type
REMARK                         _______ _______ _______ _____ _____    ______ ____
ROOT
ATOM      1  C   UNL     1       0.526  11.358  19.368  0.00  0.00    +0.000 C 
ATOM      2  C   UNL     1      -0.146  11.118  20.753  0.00  0.00    +0.000 C 
ATOM      3  C   UNL     1       0.090   9.646  21.134  0.00  0.00    +0.000 C 
ATOM      4  C   UNL     1       1.143   9.169  20.149  0.00  0.00    +0.000 C 
ATOM      5  C   UNL     1       1.301   7.663  19.888  0.00  0.00    +0.000 C 
ATOM      6  C   UNL     1       1.566   6.878  21.176  0.00  0.00    +0.000 C 
ATOM      7  C   UNL     1       1.995   5.469  20.904  0.00  0.00    +0.000 C 
ATOM      8  C   UNL     1       2.421   5.009  19.713  0.00  0.00    +0.000 C 
ATOM      9  C   UNL     1       2.808   3.557  19.549  0.00  0.00    +0.000 C 
ATOM     10  C   UNL     1       4.199   3.401  18.929  0.00  0.00    +0.000 C 
ATOM     11  C   UNL     1       4.338   4.203  17.637  0.00  0.00    +0.000 C 
ATOM     12  C   UNL     1       3.981   5.671  17.852  0.00  0.00    +0.000 C 
ATOM     13  C   UNL     1       2.571   5.900  18.471  0.00  0.00    +0.000 C 
ATOM     14  C   UNL     1       1.489   5.495  17.439  0.00  0.00    +0.000 C 
ATOM     15  C   UNL     1       2.452   7.420  18.864  0.00  0.00    +0.000 C 
ATOM     16  C   UNL     1       2.406   8.365  17.637  0.00  0.00    +0.000 C 
ATOM     17  C   UNL     1       2.097   9.812  18.006  0.00  0.00    +0.000 C 
ATOM     18  C   UNL     1       0.796   9.926  18.835  0.00  0.00    +0.000 C 
ATOM     19  C   UNL     1      -0.462   9.292  18.179  0.00  0.00    +0.000 C 
ENDROOT
BRANCH   1  20
ATOM     20  C   UNL     1      -0.167  12.451  18.485  0.00  0.00    +0.000 C 
ATOM     21  C   UNL     1      -0.085  13.899  18.986  0.00  0.00    +0.000 C 
BRANCH  20  22
ATOM     22  C   UNL     1      -1.597  12.097  17.974  0.00  0.00    +0.000 C 
BRANCH  22  23
ATOM     23  C   UNL     1      -2.760  12.254  18.959  0.00  0.00    +0.000 C 
BRANCH  23  26
ATOM     24  N   UNL     1      -5.196  11.866  19.263  0.00  0.00    +0.000 N 
ATOM     25  C   UNL     1      -5.149  12.607  20.523  0.00  0.00    +0.000 C 
ATOM     26  C   UNL     1      -4.054  11.599  18.498  0.00  0.00    +0.000 C 
ATOM     27  O   UNL     1      -4.080  10.902  17.480  0.00  0.00    +0.000 OA
BRANCH  24  29
ATOM     28  C   UNL     1      -7.304  10.737  19.981  0.00  0.00    +0.000 C 
ATOM     29  C   UNL     1      -6.490  11.316  18.822  0.00  0.00    +0.000 C 
ATOM     30  C   UNL     1      -7.289  12.353  18.031  0.00  0.00    +0.000 C 
ENDBRANCH  24  29
ENDBRANCH  23  26
ENDBRANCH  22  23
ENDBRANCH  20  22
ENDBRANCH   1  20
BRANCH  10  31
ATOM     31  O   UNL     1       4.458   2.026  18.654  0.00  0.00    +0.000 OA
ATOM     32  H   UNL     1       3.606   1.594  18.467  0.00  0.00    +0.000 HD
ENDBRANCH  10  31
TORSDOF 6
ENDMDL
MODEL 8
REMARK VINA RESULT:      -6.9      2.199      2.836
REMARK  Name = 
REMARK  12 active torsions:
REMARK  status: ('A' for Active; 'I' for Inactive)
REMARK    1  A    between atoms: C_1  and  C_2
REMARK    2  A    between atoms: C_2  and  C_3
REMARK    3  A    between atoms: C_2  and  N_4
REMARK    4  A    between atoms: N_4  and  C_5
REMARK    5  A    between atoms: C_6  and  C_8
REMARK    6  A    between atoms: C_8  and  C_9
REMARK    7  A    between atoms: C_9  and  C_10
REMARK    8  A    between atoms: C_10  and  C_11
REMARK    9  A    between atoms: C_10  and  C_12
REMARK   10  A    between atoms: C_21  and  O_22
REMARK   11  A    between atoms: C_25  and  C_26
REMARK   12  A    between atoms: C_30  and  C_31
REMARK                            x       y       z     vdW  Elec       q    Type
REMARK                         _______ _______ _______ _____ _____    ______ ____
ROOT
ATOM      1  C   UNL     1       1.087  11.059  19.427  0.00  0.00    +0.000 C 
ATOM      2  C   UNL     1       0.396  10.854  20.808  0.00  0.00    +0.000 C 
ATOM      3  C   UNL     1       0.473   9.355  21.148  0.00  0.00    +0.000 C 
ATOM      4  C   UNL     1       1.466   8.795  20.145  0.00  0.00    +0.000 C 
ATOM      5  C   UNL     1       1.461   7.289  19.843  0.00  0.00    +0.000 C 
ATOM      6  C   UNL     1       1.642   6.445  21.107  0.00  0.00    +0.000 C 
ATOM      7  C   UNL     1       1.916   5.005  20.795  0.00  0.00    +0.000 C 
ATOM      8  C   UNL     1       2.288   4.535  19.590  0.00  0.00    +0.000 C 
ATOM      9  C   UNL     1       2.516   3.055  19.384  0.00  0.00    +0.000 C 
ATOM     10  C   UNL     1       3.881   2.767  18.754  0.00  0.00    +0.000 C 
ATOM     11  C   UNL     1       4.104   3.585  17.484  0.00  0.00    +0.000 C 
ATOM     12  C   UNL     1       3.908   5.076  17.740  0.00  0.00    +0.000 C 
ATOM     13  C   UNL     1       2.531   5.438  18.372  0.00  0.00    +0.000 C 
ATOM     14  C   UNL     1       1.410   5.180  17.334  0.00  0.00    +0.000 C 
ATOM     15  C   UNL     1       2.577   6.951  18.807  0.00  0.00    +0.000 C 
ATOM     16  C   UNL     1       2.631   7.928  17.606  0.00  0.00    +0.000 C 
ATOM     17  C   UNL     1       2.480   9.390  18.016  0.00  0.00    +0.000 C 
ATOM     18  C   UNL     1       1.201   9.620  18.853  0.00  0.00    +0.000 C 
ATOM     19  C   UNL     1      -0.120   9.144  18.187  0.00  0.00    +0.000 C 
ENDROOT
BRANCH   1  20
ATOM     20  C   UNL     1       0.515  12.243  18.577  0.00  0.00    +0.000 C 
ATOM     21  C   UNL     1       1.421  13.470  18.403  0.00  0.00    +0.000 C 
BRANCH  20  22
ATOM     22  C   UNL     1      -0.956  12.651  18.894  0.00  0.00    +0.000 C 
BRANCH  22  23
ATOM     23  C   UNL     1      -1.173  13.846  19.829  0.00  0.00    +0.000 C 
BRANCH  23  26
ATOM     24  N   UNL     1      -1.987  13.805  22.177  0.00  0.00    +0.000 N 
ATOM     25  C   UNL     1      -0.614  13.983  22.648  0.00  0.00    +0.000 C 
ATOM     26  C   UNL     1      -2.311  13.657  20.822  0.00  0.00    +0.000 C 
ATOM     27  O   UNL     1      -3.457  13.421  20.430  0.00  0.00    +0.000 OA
BRANCH  24  29
ATOM     28  C   UNL     1      -3.289  12.264  23.648  0.00  0.00    +0.000 C 
ATOM     29  C   UNL     1      -3.064  13.702  23.177  0.00  0.00    +0.000 C 
ATOM     30  C   UNL     1      -2.816  14.650  24.352  0.00  0.00    +0.000 C 
ENDBRANCH  24  29
ENDBRANCH  23  26
ENDBRANCH  22  23
ENDBRANCH  20  22
ENDBRANCH   1  20
BRANCH  10  31
ATOM     31  O   UNL     1       3.989   1.380  18.441  0.00  0.00    +0.000 OA
ATOM     32  H   UNL     1       4.625   1.288  17.709  0.00  0.00    +0.000 HD
ENDBRANCH  10  31
TORSDOF 6
ENDMDL
MODEL 9
REMARK VINA RESULT:      -6.7      3.845     10.230
REMARK  Name = 
REMARK  12 active torsions:
REMARK  status: ('A' for Active; 'I' for Inactive)
REMARK    1  A    between atoms: C_1  and  C_2
REMARK    2  A    between atoms: C_2  and  C_3
REMARK    3  A    between atoms: C_2  and  N_4
REMARK    4  A    between atoms: N_4  and  C_5
REMARK    5  A    between atoms: C_6  and  C_8
REMARK    6  A    between atoms: C_8  and  C_9
REMARK    7  A    between atoms: C_9  and  C_10
REMARK    8  A    between atoms: C_10  and  C_11
REMARK    9  A    between atoms: C_10  and  C_12
REMARK   10  A    between atoms: C_21  and  O_22
REMARK   11  A    between atoms: C_25  and  C_26
REMARK   12  A    between atoms: C_30  and  C_31
REMARK                            x       y       z     vdW  Elec       q    Type
REMARK                         _______ _______ _______ _____ _____    ______ ____
ROOT
ATOM      1  C   UNL     1       1.492  10.017  19.586  0.00  0.00    +0.000 C 
ATOM      2  C   UNL     1       1.836  10.942  18.380  0.00  0.00    +0.000 C 
ATOM      3  C   UNL     1       1.005  12.229  18.531  0.00  0.00    +0.000 C 
ATOM      4  C   UNL     1       0.466  12.162  19.948  0.00  0.00    +0.000 C 
ATOM      5  C   UNL     1      -0.769  12.996  20.323  0.00  0.00    +0.000 C 
ATOM      6  C   UNL     1      -0.570  14.486  20.035  0.00  0.00    +0.000 C 
ATOM      7  C   UNL     1      -1.643  15.332  20.648  0.00  0.00    +0.000 C 
ATOM      8  C   UNL     1      -2.499  14.920  21.602  0.00  0.00    +0.000 C 
ATOM      9  C   UNL     1      -3.561  15.856  22.131  0.00  0.00    +0.000 C 
ATOM     10  C   UNL     1      -3.539  15.942  23.660  0.00  0.00    +0.000 C 
ATOM     11  C   UNL     1      -3.588  14.560  24.307  0.00  0.00    +0.000 C 
ATOM     12  C   UNL     1      -2.476  13.658  23.780  0.00  0.00    +0.000 C 
ATOM     13  C   UNL     1      -2.450  13.519  22.229  0.00  0.00    +0.000 C 
ATOM     14  C   UNL     1      -3.698  12.727  21.767  0.00  0.00    +0.000 C 
ATOM     15  C   UNL     1      -1.118  12.781  21.828  0.00  0.00    +0.000 C 
ATOM     16  C   UNL     1      -1.087  11.297  22.271  0.00  0.00    +0.000 C 
ATOM     17  C   UNL     1       0.110  10.531  21.717  0.00  0.00    +0.000 C 
ATOM     18  C   UNL     1       0.202  10.647  20.178  0.00  0.00    +0.000 C 
ATOM     19  C   UNL     1      -1.076  10.212  19.407  0.00  0.00    +0.000 C 
ENDROOT
BRANCH   1  20
ATOM     20  C   UNL     1       1.600   8.484  19.287  0.00  0.00    +0.000 C 
ATOM     21  C   UNL     1       1.638   7.544  20.500  0.00  0.00    +0.000 C 
BRANCH  20  22
ATOM     22  C   UNL     1       2.653   8.080  18.210  0.00  0.00    +0.000 C 
BRANCH  22  23
ATOM     23  C   UNL     1       2.864   6.584  17.953  0.00  0.00    +0.000 C 
BRANCH  23  26
ATOM     24  N   UNL     1       5.259   6.145  17.450  0.00  0.00    +0.000 N 
ATOM     25  C   UNL     1       5.036   6.557  16.065  0.00  0.00    +0.000 C 
ATOM     26  C   UNL     1       4.226   6.067  18.394  0.00  0.00    +0.000 C 
ATOM     27  O   UNL     1       4.398   5.638  19.538  0.00  0.00    +0.000 OA
BRANCH  24  29
ATOM     28  C   UNL     1       7.158   4.600  16.964  0.00  0.00    +0.000 C 
ATOM     29  C   UNL     1       6.614   5.724  17.847  0.00  0.00    +0.000 C 
ATOM     30  C   UNL     1       7.569   6.918  17.897  0.00  0.00    +0.000 C 
ENDBRANCH  24  29
ENDBRANCH  23  26
ENDBRANCH  22  23
ENDBRANCH  20  22
ENDBRANCH   1  20
BRANCH  10  31
ATOM     31  O   UNL     1      -4.648  16.713  24.120  0.00  0.00    +0.000 OA
ATOM     32  H   UNL     1      -5.190  16.142  24.691  0.00  0.00    +0.000 HD
ENDBRANCH  10  31
TORSDOF 6
ENDMDL
