MODEL 1
REMARK VINA RESULT:      -7.9      0.000      0.000
REMARK  Name = 
REMARK  7 active torsions:
REMARK  status: ('A' for Active; 'I' for Inactive)
REMARK    1  A    between atoms: C_1  and  C_2
REMARK    2  A    between atoms: C_6  and  C_7
REMARK    3  A    between atoms: C_10  and  O_11
REMARK    4  A    between atoms: O_11  and  C_12
REMARK    5  A    between atoms: C_12  and  C_13
REMARK    6  A    between atoms: C_13  and  C_14
REMARK    7  A    between atoms: C_14  and  C_15
REMARK                            x       y       z     vdW  Elec       q    Type
REMARK                         _______ _______ _______ _____ _____    ______ ____
ROOT
ATOM      1  C   UNL     1       1.694   8.158  19.771  0.00  0.00    +0.000 A 
ATOM      2  C   UNL     1       2.124   6.918  20.246  0.00  0.00    +0.000 A 
ATOM      3  C   UNL     1       2.964   6.119  19.472  0.00  0.00    +0.000 A 
ATOM      4  C   UNL     1       3.390   6.547  18.213  0.00  0.00    +0.000 A 
ATOM      5  C   UNL     1       2.928   7.769  17.718  0.00  0.00    +0.000 A 
ATOM      6  C   UNL     1       2.083   8.574  18.496  0.00  0.00    +0.000 A 
ENDROOT
BRANCH   1  12
ATOM      7  C   UNL     1      -2.909  13.774  20.340  0.00  0.00    +0.000 C 
ATOM      8  C   UNL     1      -2.125  12.690  21.026  0.00  0.00    +0.000 A 
ATOM      9  C   UNL     1      -1.412  11.755  20.254  0.00  0.00    +0.000 A 
ATOM     10  C   UNL     1      -0.623  10.784  20.872  0.00  0.00    +0.000 A 
ATOM     11  O   UNL     1       0.090   9.933  20.059  0.00  0.00    +0.000 OA
ATOM     12  C   UNL     1       0.946   9.039  20.669  0.00  0.00    +0.000 A 
ATOM     13  C   UNL     1       1.086   8.876  21.991  0.00  0.00    +0.000 A 
ATOM     14  C   UNL     1       0.288   9.711  22.896  0.00  0.00    +0.000 A 
ATOM     15  O   UNL     1       0.348   9.567  24.109  0.00  0.00    +0.000 OA
ATOM     16  C   UNL     1      -0.566  10.723  22.263  0.00  0.00    +0.000 A 
ATOM     17  C   UNL     1      -1.283  11.626  23.048  0.00  0.00    +0.000 A 
ATOM     18  C   UNL     1      -2.051  12.612  22.430  0.00  0.00    +0.000 A 
ATOM     19 CL   UNL     1      -2.879  13.738  23.442  0.00  0.00    +0.000 Cl
ENDBRANCH   1  12
BRANCH   4  20
ATOM     20  O   UNL     1       4.262   5.857  17.405  0.00  0.00    +0.000 OA
BRANCH  20  21
ATOM     21  C   UNL     1       4.337   4.453  17.659  0.00  0.00    +0.000 C 
BRANCH  21  22
ATOM     22  C   UNL     1       3.307   3.694  16.833  0.00  0.00    +0.000 C 
BRANCH  22  23
ATOM     23  C   UNL     1       2.689   2.527  17.600  0.00  0.00    +0.000 C 
BRANCH  23  24
ATOM     24  C   UNL     1       1.506   2.956  18.447  0.00  0.00    +0.000 C 
ATOM     25  F   UNL     1       1.851   3.227  19.723  0.00  0.00    +0.000 F 
ATOM     26  F   UNL     1       0.922   4.062  17.936  0.00  0.00    +0.000 F 
ATOM     27  F   UNL     1       0.568   1.982  18.481  0.00  0.00    +0.000 F 
ENDBRANCH  23  24
ENDBRANCH  22  23
ENDBRANCH  21  22
ENDBRANCH  20  21
ENDBRANCH   4  20
TORSDOF 6
ENDMDL
MODEL 2
REMARK VINA RESULT:      -7.9      2.104      3.554
REMARK  Name = 
REMARK  7 active torsions:
REMARK  status: ('A' for Active; 'I' for Inactive)
REMARK    1  A    between atoms: C_1  and  C_2
REMARK    2  A    between atoms: C_6  and  C_7
REMARK    3  A    between atoms: C_10  and  O_11
REMARK    4  A    between atoms: O_11  and  C_12
REMARK    5  A    between atoms: C_12  and  C_13
REMARK    6  A    between atoms: C_13  and  C_14
REMARK    7  A    between atoms: C_14  and  C_15
REMARK                            x       y       z     vdW  Elec       q    Type
REMARK                         _______ _______ _______ _____ _____    ______ ____
ROOT
ATOM      1  C   UNL     1       2.702   6.430  18.183  0.00  0.00    +0.000 A 
ATOM      2  C   UNL     1       1.792   5.456  17.768  0.00  0.00    +0.000 A 
ATOM      3  C   UNL     1       2.220   4.155  17.508  0.00  0.00    +0.000 A 
ATOM      4  C   UNL     1       3.564   3.805  17.662  0.00  0.00    +0.000 A 
ATOM      5  C   UNL     1       4.483   4.787  18.038  0.00  0.00    +0.000 A 
ATOM      6  C   UNL     1       4.054   6.097  18.299  0.00  0.00    +0.000 A 
ENDROOT
BRANCH   1  12
ATOM      7  C   UNL     1      -0.895  10.235  23.245  0.00  0.00    +0.000 C 
ATOM      8  C   UNL     1      -0.115  10.237  21.960  0.00  0.00    +0.000 A 
ATOM      9  C   UNL     1       0.461   9.040  21.497  0.00  0.00    +0.000 A 
ATOM     10  C   UNL     1       1.130   9.006  20.273  0.00  0.00    +0.000 A 
ATOM     11  O   UNL     1       1.625   7.793  19.853  0.00  0.00    +0.000 OA
ATOM     12  C   UNL     1       2.198   7.739  18.599  0.00  0.00    +0.000 A 
ATOM     13  C   UNL     1       2.383   8.786  17.784  0.00  0.00    +0.000 A 
ATOM     14  C   UNL     1       1.938  10.113  18.223  0.00  0.00    +0.000 A 
ATOM     15  O   UNL     1       2.128  11.105  17.534  0.00  0.00    +0.000 OA
ATOM     16  C   UNL     1       1.253  10.172  19.520  0.00  0.00    +0.000 A 
ATOM     17  C   UNL     1       0.710  11.375  19.972  0.00  0.00    +0.000 A 
ATOM     18  C   UNL     1       0.020  11.403  21.183  0.00  0.00    +0.000 A 
ATOM     19 CL   UNL     1      -0.679  12.903  21.675  0.00  0.00    +0.000 Cl
ENDBRANCH   1  12
BRANCH   4  20
ATOM     20  O   UNL     1       4.068   2.539  17.487  0.00  0.00    +0.000 OA
BRANCH  20  21
ATOM     21  C   UNL     1       3.542   1.552  18.376  0.00  0.00    +0.000 C 
BRANCH  21  22
ATOM     22  C   UNL     1       3.325   2.133  19.767  0.00  0.00    +0.000 C 
BRANCH  22  23
ATOM     23  C   UNL     1       1.867   2.045  20.216  0.00  0.00    +0.000 C 
BRANCH  23  24
ATOM     24  C   UNL     1       1.456   3.230  21.070  0.00  0.00    +0.000 C 
ATOM     25  F   UNL     1       0.519   3.998  20.477  0.00  0.00    +0.000 F 
ATOM     26  F   UNL     1       0.958   2.819  22.257  0.00  0.00    +0.000 F 
ATOM     27  F   UNL     1       2.522   4.020  21.329  0.00  0.00    +0.000 F 
ENDBRANCH  23  24
ENDBRANCH  22  23
ENDBRANCH  21  22
ENDBRANCH  20  21
ENDBRANCH   4  20
TORSDOF 6
ENDMDL
MODEL 3
REMARK VINA RESULT:      -7.7      3.451      4.116
REMARK  Name = 
REMARK  7 active torsions:
REMARK  status: ('A' for Active; 'I' for Inactive)
REMARK    1  A    between atoms: C_1  and  C_2
REMARK    2  A    between atoms: C_6  and  C_7
REMARK    3  A    between atoms: C_10  and  O_11
REMARK    4  A    between atoms: O_11  and  C_12
REMARK    5  A    between atoms: C_12  and  C_13
REMARK    6  A    between atoms: C_13  and  C_14
REMARK    7  A    between atoms: C_14  and  C_15
REMARK                            x       y       z     vdW  Elec       q    Type
REMARK                         _______ _______ _______ _____ _____    ______ ____
ROOT
ATOM      1  C   UNL     1       2.827   6.885  18.201  0.00  0.00    +0.000 A 
ATOM      2  C   UNL     1       2.459   5.543  18.309  0.00  0.00    +0.000 A 
ATOM      3  C   UNL     1       3.216   4.552  17.686  0.00  0.00    +0.000 A 
ATOM      4  C   UNL     1       4.354   4.885  16.947  0.00  0.00    +0.000 A 
ATOM      5  C   UNL     1       4.699   6.231  16.802  0.00  0.00    +0.000 A 
ATOM      6  C   UNL     1       3.939   7.230  17.429  0.00  0.00    +0.000 A 
ENDROOT
BRANCH   1  12
ATOM      7  C   UNL     1      -0.473  13.377  18.267  0.00  0.00    +0.000 C 
ATOM      8  C   UNL     1      -0.110  12.122  19.010  0.00  0.00    +0.000 A 
ATOM      9  C   UNL     1       0.537  11.075  18.327  0.00  0.00    +0.000 A 
ATOM     10  C   UNL     1       0.945   9.930  19.012  0.00  0.00    +0.000 A 
ATOM     11  O   UNL     1       1.618   8.967  18.296  0.00  0.00    +0.000 OA
ATOM     12  C   UNL     1       2.107   7.882  18.994  0.00  0.00    +0.000 A 
ATOM     13  C   UNL     1       1.916   7.647  20.299  0.00  0.00    +0.000 A 
ATOM     14  C   UNL     1       1.139   8.611  21.085  0.00  0.00    +0.000 A 
ATOM     15  O   UNL     1       0.900   8.416  22.269  0.00  0.00    +0.000 OA
ATOM     16  C   UNL     1       0.681   9.812  20.375  0.00  0.00    +0.000 A 
ATOM     17  C   UNL     1       0.021  10.826  21.067  0.00  0.00    +0.000 A 
ATOM     18  C   UNL     1      -0.363  11.982  20.387  0.00  0.00    +0.000 A 
ATOM     19 CL   UNL     1      -1.131  13.232  21.296  0.00  0.00    +0.000 Cl
ENDBRANCH   1  12
BRANCH   4  20
ATOM     20  O   UNL     1       5.192   3.977  16.347  0.00  0.00    +0.000 OA
BRANCH  20  21
ATOM     21  C   UNL     1       6.327   4.546  15.690  0.00  0.00    +0.000 C 
BRANCH  21  22
ATOM     22  C   UNL     1       6.552   3.894  14.332  0.00  0.00    +0.000 C 
BRANCH  22  23
ATOM     23  C   UNL     1       5.281   3.847  13.488  0.00  0.00    +0.000 C 
BRANCH  23  24
ATOM     24  C   UNL     1       5.551   3.393  12.065  0.00  0.00    +0.000 C 
ATOM     25  F   UNL     1       4.536   3.686  11.225  0.00  0.00    +0.000 F 
ATOM     26  F   UNL     1       6.668   3.974  11.577  0.00  0.00    +0.000 F 
ATOM     27  F   UNL     1       5.737   2.054  12.022  0.00  0.00    +0.000 F 
ENDBRANCH  23  24
ENDBRANCH  22  23
ENDBRANCH  21  22
ENDBRANCH  20  21
ENDBRANCH   4  20
TORSDOF 6
ENDMDL
MODEL 4
REMARK VINA RESULT:      -7.7      0.854      1.118
REMARK  Name = 
REMARK  7 active torsions:
REMARK  status: ('A' for Active; 'I' for Inactive)
REMARK    1  A    between atoms: C_1  and  C_2
REMARK    2  A    between atoms: C_6  and  C_7
REMARK    3  A    between atoms: C_10  and  O_11
REMARK    4  A    between atoms: O_11  and  C_12
REMARK    5  A    between atoms: C_12  and  C_13
REMARK    6  A    between atoms: C_13  and  C_14
REMARK    7  A    between atoms: C_14  and  C_15
REMARK                            x       y       z     vdW  Elec       q    Type
REMARK                         _______ _______ _______ _____ _____    ______ ____
ROOT
ATOM      1  C   UNL     1       1.717   8.304  19.610  0.00  0.00    +0.000 A 
ATOM      2  C   UNL     1       2.111   7.096  20.189  0.00  0.00    +0.000 A 
ATOM      3  C   UNL     1       2.882   6.187  19.466  0.00  0.00    +0.000 A 
ATOM      4  C   UNL     1       3.273   6.470  18.155  0.00  0.00    +0.000 A 
ATOM      5  C   UNL     1       2.845   7.659  17.560  0.00  0.00    +0.000 A 
ATOM      6  C   UNL     1       2.069   8.576  18.286  0.00  0.00    +0.000 A 
ENDROOT
BRANCH   1  12
ATOM      7  C   UNL     1      -1.061  15.025  20.006  0.00  0.00    +0.000 C 
ATOM      8  C   UNL     1      -0.828  13.698  20.672  0.00  0.00    +0.000 A 
ATOM      9  C   UNL     1      -0.239  12.649  19.943  0.00  0.00    +0.000 A 
ATOM     10  C   UNL     1       0.049  11.433  20.562  0.00  0.00    +0.000 A 
ATOM     11  O   UNL     1       0.673  10.467  19.806  0.00  0.00    +0.000 OA
ATOM     12  C   UNL     1       1.047   9.302  20.444  0.00  0.00    +0.000 A 
ATOM     13  C   UNL     1       0.785   8.999  21.723  0.00  0.00    +0.000 A 
ATOM     14  C   UNL     1       0.055   9.969  22.546  0.00  0.00    +0.000 A 
ATOM     15  O   UNL     1      -0.246   9.717  23.704  0.00  0.00    +0.000 OA
ATOM     16  C   UNL     1      -0.277  11.247  21.904  0.00  0.00    +0.000 A 
ATOM     17  C   UNL     1      -0.883  12.265  22.640  0.00  0.00    +0.000 A 
ATOM     18  C   UNL     1      -1.147  13.489  22.027  0.00  0.00    +0.000 A 
ATOM     19 CL   UNL     1      -1.850  14.736  22.992  0.00  0.00    +0.000 Cl
ENDBRANCH   1  12
BRANCH   4  20
ATOM     20  O   UNL     1       4.079   5.665  17.387  0.00  0.00    +0.000 OA
BRANCH  20  21
ATOM     21  C   UNL     1       4.246   4.334  17.880  0.00  0.00    +0.000 C 
BRANCH  21  22
ATOM     22  C   UNL     1       3.309   3.367  17.169  0.00  0.00    +0.000 C 
BRANCH  22  23
ATOM     23  C   UNL     1       2.573   2.447  18.140  0.00  0.00    +0.000 C 
BRANCH  23  24
ATOM     24  C   UNL     1       1.234   3.018  18.571  0.00  0.00    +0.000 C 
ATOM     25  F   UNL     1       0.230   2.121  18.469  0.00  0.00    +0.000 F 
ATOM     26  F   UNL     1       1.280   3.439  19.854  0.00  0.00    +0.000 F 
ATOM     27  F   UNL     1       0.904   4.082  17.805  0.00  0.00    +0.000 F 
ENDBRANCH  23  24
ENDBRANCH  22  23
ENDBRANCH  21  22
ENDBRANCH  20  21
ENDBRANCH   4  20
TORSDOF 6
ENDMDL
MODEL 5
REMARK VINA RESULT:      -7.7      3.044      3.767
REMARK  Name = 
REMARK  7 active torsions:
REMARK  status: ('A' for Active; 'I' for Inactive)
REMARK    1  A    between atoms: C_1  and  C_2
REMARK    2  A    between atoms: C_6  and  C_7
REMARK    3  A    between atoms: C_10  and  O_11
REMARK    4  A    between atoms: O_11  and  C_12
REMARK    5  A    between atoms: C_12  and  C_13
REMARK    6  A    between atoms: C_13  and  C_14
REMARK    7  A    between atoms: C_14  and  C_15
REMARK                            x       y       z     vdW  Elec       q    Type
REMARK                         _______ _______ _______ _____ _____    ______ ____
ROOT
ATOM      1  C   UNL     1       1.456   9.374  18.886  0.00  0.00    +0.000 A 
ATOM      2  C   UNL     1       1.404   8.596  20.043  0.00  0.00    +0.000 A 
ATOM      3  C   UNL     1       2.007   7.339  20.076  0.00  0.00    +0.000 A 
ATOM      4  C   UNL     1       2.674   6.842  18.954  0.00  0.00    +0.000 A 
ATOM      5  C   UNL     1       2.692   7.600  17.781  0.00  0.00    +0.000 A 
ATOM      6  C   UNL     1       2.085   8.865  17.747  0.00  0.00    +0.000 A 
ENDROOT
BRANCH   1  12
ATOM      7  C   UNL     1       3.060  16.459  18.363  0.00  0.00    +0.000 C 
ATOM      8  C   UNL     1       2.010  15.396  18.528  0.00  0.00    +0.000 A 
ATOM      9  C   UNL     1       2.377  14.040  18.445  0.00  0.00    +0.000 A 
ATOM     10  C   UNL     1       1.431  13.038  18.664  0.00  0.00    +0.000 A 
ATOM     11  O   UNL     1       1.866  11.734  18.619  0.00  0.00    +0.000 OA
ATOM     12  C   UNL     1       0.954  10.748  18.933  0.00  0.00    +0.000 A 
ATOM     13  C   UNL     1      -0.343  10.947  19.204  0.00  0.00    +0.000 A 
ATOM     14  C   UNL     1      -0.867  12.317  19.189  0.00  0.00    +0.000 A 
ATOM     15  O   UNL     1      -2.053  12.544  19.385  0.00  0.00    +0.000 OA
ATOM     16  C   UNL     1       0.109  13.384  18.937  0.00  0.00    +0.000 A 
ATOM     17  C   UNL     1      -0.281  14.721  19.001  0.00  0.00    +0.000 A 
ATOM     18  C   UNL     1       0.670  15.723  18.807  0.00  0.00    +0.000 A 
ATOM     19 CL   UNL     1       0.150  17.363  18.948  0.00  0.00    +0.000 Cl
ENDBRANCH   1  12
BRANCH   4  20
ATOM     20  O   UNL     1       3.346   5.644  18.910  0.00  0.00    +0.000 OA
BRANCH  20  21
ATOM     21  C   UNL     1       2.915   4.748  17.883  0.00  0.00    +0.000 C 
BRANCH  21  22
ATOM     22  C   UNL     1       1.875   3.771  18.415  0.00  0.00    +0.000 C 
BRANCH  22  23
ATOM     23  C   UNL     1       2.298   3.127  19.733  0.00  0.00    +0.000 C 
BRANCH  23  24
ATOM     24  C   UNL     1       1.508   3.661  20.914  0.00  0.00    +0.000 C 
ATOM     25  F   UNL     1       0.967   2.678  21.664  0.00  0.00    +0.000 F 
ATOM     26  F   UNL     1       2.292   4.407  21.722  0.00  0.00    +0.000 F 
ATOM     27  F   UNL     1       0.495   4.449  20.490  0.00  0.00    +0.000 F 
ENDBRANCH  23  24
ENDBRANCH  22  23
ENDBRANCH  21  22
ENDBRANCH  20  21
ENDBRANCH   4  20
TORSDOF 6
ENDMDL
MODEL 6
REMARK VINA RESULT:      -7.7      2.449      3.222
REMARK  Name = 
REMARK  7 active torsions:
REMARK  status: ('A' for Active; 'I' for Inactive)
REMARK    1  A    between atoms: C_1  and  C_2
REMARK    2  A    between atoms: C_6  and  C_7
REMARK    3  A    between atoms: C_10  and  O_11
REMARK    4  A    between atoms: O_11  and  C_12
REMARK    5  A    between atoms: C_12  and  C_13
REMARK    6  A    between atoms: C_13  and  C_14
REMARK    7  A    between atoms: C_14  and  C_15
REMARK                            x       y       z     vdW  Elec       q    Type
REMARK                         _______ _______ _______ _____ _____    ______ ____
ROOT
ATOM      1  C   UNL     1       1.915   8.063  19.808  0.00  0.00    +0.000 A 
ATOM      2  C   UNL     1       2.218   8.509  18.521  0.00  0.00    +0.000 A 
ATOM      3  C   UNL     1       2.857   7.665  17.614  0.00  0.00    +0.000 A 
ATOM      4  C   UNL     1       3.200   6.360  17.978  0.00  0.00    +0.000 A 
ATOM      5  C   UNL     1       2.936   5.925  19.278  0.00  0.00    +0.000 A 
ATOM      6  C   UNL     1       2.293   6.774  20.192  0.00  0.00    +0.000 A 
ENDROOT
BRANCH   1  12
ATOM      7  C   UNL     1      -3.078  13.350  20.216  0.00  0.00    +0.000 C 
ATOM      8  C   UNL     1      -2.218  12.347  20.933  0.00  0.00    +0.000 A 
ATOM      9  C   UNL     1      -1.440  11.441  20.188  0.00  0.00    +0.000 A 
ATOM     10  C   UNL     1      -0.583  10.549  20.834  0.00  0.00    +0.000 A 
ATOM     11  O   UNL     1       0.188   9.726  20.045  0.00  0.00    +0.000 OA
ATOM     12  C   UNL     1       1.106   8.915  20.680  0.00  0.00    +0.000 A 
ATOM     13  C   UNL     1       1.258   8.804  22.007  0.00  0.00    +0.000 A 
ATOM     14  C   UNL     1       0.403   9.608  22.887  0.00  0.00    +0.000 A 
ATOM     15  O   UNL     1       0.474   9.505  24.104  0.00  0.00    +0.000 OA
ATOM     16  C   UNL     1      -0.522  10.536  22.226  0.00  0.00    +0.000 A 
ATOM     17  C   UNL     1      -1.301  11.408  22.984  0.00  0.00    +0.000 A 
ATOM     18  C   UNL     1      -2.138  12.318  22.338  0.00  0.00    +0.000 A 
ATOM     19 CL   UNL     1      -3.044  13.413  23.318  0.00  0.00    +0.000 Cl
ENDBRANCH   1  12
BRANCH   4  20
ATOM     20  O   UNL     1       3.777   5.439  17.137  0.00  0.00    +0.000 OA
BRANCH  20  21
ATOM     21  C   UNL     1       5.175   5.627  16.905  0.00  0.00    +0.000 C 
BRANCH  21  22
ATOM     22  C   UNL     1       5.980   4.461  17.461  0.00  0.00    +0.000 C 
BRANCH  22  23
ATOM     23  C   UNL     1       7.447   4.821  17.693  0.00  0.00    +0.000 C 
BRANCH  23  24
ATOM     24  C   UNL     1       7.639   5.685  18.925  0.00  0.00    +0.000 C 
ATOM     25  F   UNL     1       6.562   5.678  19.738  0.00  0.00    +0.000 F 
ATOM     26  F   UNL     1       8.701   5.267  19.647  0.00  0.00    +0.000 F 
ATOM     27  F   UNL     1       7.870   6.970  18.572  0.00  0.00    +0.000 F 
ENDBRANCH  23  24
ENDBRANCH  22  23
ENDBRANCH  21  22
ENDBRANCH  20  21
ENDBRANCH   4  20
TORSDOF 6
ENDMDL
MODEL 7
REMARK VINA RESULT:      -7.6      2.805      3.575
REMARK  Name = 
REMARK  7 active torsions:
REMARK  status: ('A' for Active; 'I' for Inactive)
REMARK    1  A    between atoms: C_1  and  C_2
REMARK    2  A    between atoms: C_6  and  C_7
REMARK    3  A    between atoms: C_10  and  O_11
REMARK    4  A    between atoms: O_11  and  C_12
REMARK    5  A    between atoms: C_12  and  C_13
REMARK    6  A    between atoms: C_13  and  C_14
REMARK    7  A    between atoms: C_14  and  C_15
REMARK                            x       y       z     vdW  Elec       q    Type
REMARK                         _______ _______ _______ _____ _____    ______ ____
ROOT
ATOM      1  C   UNL     1       2.385   7.304  19.306  0.00  0.00    +0.000 A 
ATOM      2  C   UNL     1       3.009   7.546  18.081  0.00  0.00    +0.000 A 
ATOM      3  C   UNL     1       3.689   6.523  17.422  0.00  0.00    +0.000 A 
ATOM      4  C   UNL     1       3.753   5.241  17.975  0.00  0.00    +0.000 A 
ATOM      5  C   UNL     1       3.164   5.008  19.220  0.00  0.00    +0.000 A 
ATOM      6  C   UNL     1       2.480   6.037  19.884  0.00  0.00    +0.000 A 
ENDROOT
BRANCH   1  12
ATOM      7  C   UNL     1      -0.226  14.073  18.665  0.00  0.00    +0.000 C 
ATOM      8  C   UNL     1      -0.207  12.779  19.428  0.00  0.00    +0.000 A 
ATOM      9  C   UNL     1       0.523  11.687  18.924  0.00  0.00    +0.000 A 
ATOM     10  C   UNL     1       0.610  10.499  19.651  0.00  0.00    +0.000 A 
ATOM     11  O   UNL     1       1.382   9.488  19.126  0.00  0.00    +0.000 OA
ATOM     12  C   UNL     1       1.549   8.352  19.892  0.00  0.00    +0.000 A 
ATOM     13  C   UNL     1       0.959   8.118  21.072  0.00  0.00    +0.000 A 
ATOM     14  C   UNL     1       0.068   9.138  21.634  0.00  0.00    +0.000 A 
ATOM     15  O   UNL     1      -0.528   8.949  22.685  0.00  0.00    +0.000 OA
ATOM     16  C   UNL     1      -0.055  10.386  20.870  0.00  0.00    +0.000 A 
ATOM     17  C   UNL     1      -0.803  11.448  21.377  0.00  0.00    +0.000 A 
ATOM     18  C   UNL     1      -0.869  12.643  20.663  0.00  0.00    +0.000 A 
ATOM     19 CL   UNL     1      -1.764  13.946  21.356  0.00  0.00    +0.000 Cl
ENDBRANCH   1  12
BRANCH   4  20
ATOM     20  O   UNL     1       4.348   4.158  17.374  0.00  0.00    +0.000 OA
BRANCH  20  21
ATOM     21  C   UNL     1       5.234   4.476  16.299  0.00  0.00    +0.000 C 
BRANCH  21  22
ATOM     22  C   UNL     1       6.684   4.451  16.762  0.00  0.00    +0.000 C 
BRANCH  22  23
ATOM     23  C   UNL     1       7.212   5.842  17.107  0.00  0.00    +0.000 C 
BRANCH  23  24
ATOM     24  C   UNL     1       7.633   5.954  18.561  0.00  0.00    +0.000 C 
ATOM     25  F   UNL     1       8.292   7.102  18.824  0.00  0.00    +0.000 F 
ATOM     26  F   UNL     1       6.560   5.901  19.380  0.00  0.00    +0.000 F 
ATOM     27  F   UNL     1       8.452   4.932  18.897  0.00  0.00    +0.000 F 
ENDBRANCH  23  24
ENDBRANCH  22  23
ENDBRANCH  21  22
ENDBRANCH  20  21
ENDBRANCH   4  20
TORSDOF 6
ENDMDL
MODEL 8
REMARK VINA RESULT:      -7.6      1.475      2.691
REMARK  Name = 
REMARK  7 active torsions:
REMARK  status: ('A' for Active; 'I' for Inactive)
REMARK    1  A    between atoms: C_1  and  C_2
REMARK    2  A    between atoms: C_6  and  C_7
REMARK    3  A    between atoms: C_10  and  O_11
REMARK    4  A    between atoms: O_11  and  C_12
REMARK    5  A    between atoms: C_12  and  C_13
REMARK    6  A    between atoms: C_13  and  C_14
REMARK    7  A    between atoms: C_14  and  C_15
REMARK                            x       y       z     vdW  Elec       q    Type
REMARK                         _______ _______ _______ _____ _____    ______ ____
ROOT
ATOM      1  C   UNL     1       1.690   8.603  18.993  0.00  0.00    +0.000 A 
ATOM      2  C   UNL     1       2.439   8.578  17.816  0.00  0.00    +0.000 A 
ATOM      3  C   UNL     1       3.319   7.526  17.562  0.00  0.00    +0.000 A 
ATOM      4  C   UNL     1       3.462   6.482  18.479  0.00  0.00    +0.000 A 
ATOM      5  C   UNL     1       2.745   6.527  19.677  0.00  0.00    +0.000 A 
ATOM      6  C   UNL     1       1.859   7.584  19.934  0.00  0.00    +0.000 A 
ENDROOT
BRANCH   1  12
ATOM      7  C   UNL     1      -1.355  13.506  23.435  0.00  0.00    +0.000 C 
ATOM      8  C   UNL     1      -1.289  12.891  22.065  0.00  0.00    +0.000 A 
ATOM      9  C   UNL     1      -0.302  11.929  21.784  0.00  0.00    +0.000 A 
ATOM     10  C   UNL     1      -0.266  11.296  20.541  0.00  0.00    +0.000 A 
ATOM     11  O   UNL     1       0.691  10.327  20.349  0.00  0.00    +0.000 OA
ATOM     12  C   UNL     1       0.663   9.633  19.157  0.00  0.00    +0.000 A 
ATOM     13  C   UNL     1      -0.171   9.874  18.136  0.00  0.00    +0.000 A 
ATOM     14  C   UNL     1      -1.160  10.950  18.270  0.00  0.00    +0.000 A 
ATOM     15  O   UNL     1      -1.911  11.237  17.348  0.00  0.00    +0.000 OA
ATOM     16  C   UNL     1      -1.196  11.643  19.563  0.00  0.00    +0.000 A 
ATOM     17  C   UNL     1      -2.168  12.611  19.812  0.00  0.00    +0.000 A 
ATOM     18  C   UNL     1      -2.220  13.225  21.063  0.00  0.00    +0.000 A 
ATOM     19 CL   UNL     1      -3.473  14.379  21.342  0.00  0.00    +0.000 Cl
ENDBRANCH   1  12
BRANCH   4  20
ATOM     20  O   UNL     1       4.258   5.378  18.291  0.00  0.00    +0.000 OA
BRANCH  20  21
ATOM     21  C   UNL     1       4.116   4.357  19.279  0.00  0.00    +0.000 C 
BRANCH  21  22
ATOM     22  C   UNL     1       3.611   3.062  18.656  0.00  0.00    +0.000 C 
BRANCH  22  23
ATOM     23  C   UNL     1       2.404   2.489  19.396  0.00  0.00    +0.000 C 
BRANCH  23  24
ATOM     24  C   UNL     1       1.103   3.141  18.967  0.00  0.00    +0.000 C 
ATOM     25  F   UNL     1       1.251   3.933  17.884  0.00  0.00    +0.000 F 
ATOM     26  F   UNL     1       0.172   2.209  18.668  0.00  0.00    +0.000 F 
ATOM     27  F   UNL     1       0.605   3.907  19.963  0.00  0.00    +0.000 F 
ENDBRANCH  23  24
ENDBRANCH  22  23
ENDBRANCH  21  22
ENDBRANCH  20  21
ENDBRANCH   4  20
TORSDOF 6
ENDMDL
MODEL 9
REMARK VINA RESULT:      -7.6      1.697      2.979
REMARK  Name = 
REMARK  7 active torsions:
REMARK  status: ('A' for Active; 'I' for Inactive)
REMARK    1  A    between atoms: C_1  and  C_2
REMARK    2  A    between atoms: C_6  and  C_7
REMARK    3  A    between atoms: C_10  and  O_11
REMARK    4  A    between atoms: O_11  and  C_12
REMARK    5  A    between atoms: C_12  and  C_13
REMARK    6  A    between atoms: C_13  and  C_14
REMARK    7  A    between atoms: C_14  and  C_15
REMARK                            x       y       z     vdW  Elec       q    Type
REMARK                         _______ _______ _______ _____ _____    ______ ____
ROOT
ATOM      1  C   UNL     1       0.853   9.317  19.643  0.00  0.00    +0.000 A 
ATOM      2  C   UNL     1       1.379   9.145  18.361  0.00  0.00    +0.000 A 
ATOM      3  C   UNL     1       2.223   8.070  18.084  0.00  0.00    +0.000 A 
ATOM      4  C   UNL     1       2.552   7.149  19.081  0.00  0.00    +0.000 A 
ATOM      5  C   UNL     1       2.060   7.342  20.374  0.00  0.00    +0.000 A 
ATOM      6  C   UNL     1       1.211   8.423  20.655  0.00  0.00    +0.000 A 
ENDROOT
BRANCH   1  12
ATOM      7  C   UNL     1      -1.644  14.523  24.082  0.00  0.00    +0.000 C 
ATOM      8  C   UNL     1      -1.745  13.815  22.760  0.00  0.00    +0.000 A 
ATOM      9  C   UNL     1      -0.795  12.832  22.425  0.00  0.00    +0.000 A 
ATOM     10  C   UNL     1      -0.911  12.115  21.233  0.00  0.00    +0.000 A 
ATOM     11  O   UNL     1       0.021  11.133  20.990  0.00  0.00    +0.000 OA
ATOM     12  C   UNL     1      -0.151  10.358  19.861  0.00  0.00    +0.000 A 
ATOM     13  C   UNL     1      -1.107  10.531  18.938  0.00  0.00    +0.000 A 
ATOM     14  C   UNL     1      -2.077  11.617  19.120  0.00  0.00    +0.000 A 
ATOM     15  O   UNL     1      -2.939  11.842  18.281  0.00  0.00    +0.000 OA
ATOM     16  C   UNL     1      -1.957  12.397  20.357  0.00  0.00    +0.000 A 
ATOM     17  C   UNL     1      -2.896  13.383  20.658  0.00  0.00    +0.000 A 
ATOM     18  C   UNL     1      -2.794  14.082  21.861  0.00  0.00    +0.000 A 
ATOM     19 CL   UNL     1      -4.010  15.256  22.213  0.00  0.00    +0.000 Cl
ENDBRANCH   1  12
BRANCH   4  20
ATOM     20  O   UNL     1       3.327   6.030  18.888  0.00  0.00    +0.000 OA
BRANCH  20  21
ATOM     21  C   UNL     1       2.912   5.188  17.811  0.00  0.00    +0.000 C 
BRANCH  21  22
ATOM     22  C   UNL     1       1.682   4.378  18.196  0.00  0.00    +0.000 C 
BRANCH  22  23
ATOM     23  C   UNL     1       1.988   3.315  19.249  0.00  0.00    +0.000 C 
BRANCH  23  24
ATOM     24  C   UNL     1       1.406   3.665  20.606  0.00  0.00    +0.000 C 
ATOM     25  F   UNL     1       0.388   4.548  20.522  0.00  0.00    +0.000 F 
ATOM     26  F   UNL     1       0.942   2.562  21.232  0.00  0.00    +0.000 F 
ATOM     27  F   UNL     1       2.352   4.215  21.401  0.00  0.00    +0.000 F 
ENDBRANCH  23  24
ENDBRANCH  22  23
ENDBRANCH  21  22
ENDBRANCH  20  21
ENDBRANCH   4  20
TORSDOF 6
ENDMDL
