MODEL 1
REMARK VINA RESULT:      -6.6      0.000      0.000
REMARK  Name = 
REMARK  5 active torsions:
REMARK  status: ('A' for Active; 'I' for Inactive)
REMARK    1  A    between atoms: C_2  and  O_3
REMARK    2  A    between atoms: C_2  and  C_4
REMARK    3  A    between atoms: C_4  and  N_5
REMARK    4  A    between atoms: C_9  and  C_10
REMARK    5  A    between atoms: C_13  and  N_14
REMARK                            x       y       z     vdW  Elec       q    Type
REMARK                         _______ _______ _______ _____ _____    ______ ____
ROOT
ATOM      1  N   UNL     1       6.261   5.146  17.444  0.00  0.00    +0.000 N 
ATOM      2  C   UNL     1       5.116   5.150  18.216  0.00  0.00    +0.000 C 
ATOM      3  O   UNL     1       5.074   5.582  19.357  0.00  0.00    +0.000 OA
ATOM      4  C   UNL     1       3.956   4.638  17.433  0.00  0.00    +0.000 C 
ATOM      5  C   UNL     1       2.664   4.653  17.783  0.00  0.00    +0.000 C 
ATOM      6  S   UNL     1       4.502   4.091  15.891  0.00  0.00    +0.000 S 
ATOM      7  C   UNL     1       6.130   4.707  16.145  0.00  0.00    +0.000 C 
ATOM      8  S   UNL     1       7.271   4.741  14.933  0.00  0.00    +0.000 S 
ENDROOT
BRANCH   5   9
ATOM      9  C   UNL     1       2.230   5.267  18.980  0.00  0.00    +0.000 A 
ATOM     10  C   UNL     1       2.010   4.714  20.232  0.00  0.00    +0.000 A 
ATOM     11  C   UNL     1       1.625   5.771  21.093  0.00  0.00    +0.000 A 
ATOM     12  C   UNL     1       1.628   6.922  20.338  0.00  0.00    +0.000 A 
ATOM     13  O   UNL     1       1.976   6.610  19.060  0.00  0.00    +0.000 OA
BRANCH  12  14
ATOM     14  N   UNL     1       1.340   8.212  20.618  0.00  0.00    +0.000 N 
ATOM     15  C   UNL     1       1.438   8.736  21.978  0.00  0.00    +0.000 C 
ATOM     16  C   UNL     1       0.227   9.623  22.262  0.00  0.00    +0.000 C 
ATOM     17  C   UNL     1       0.056  10.706  21.196  0.00  0.00    +0.000 C 
ATOM     18  C   UNL     1       0.077  10.118  19.786  0.00  0.00    +0.000 C 
ATOM     19  C   UNL     1       1.302   9.230  19.566  0.00  0.00    +0.000 C 
ENDBRANCH  12  14
ENDBRANCH   5   9
BRANCH   1  20
ATOM     20  C   UNL     1       7.528   5.579  18.044  0.00  0.00    +0.000 C 
BRANCH  20  22
ATOM     21  O   UNL     1       7.394   7.751  16.999  0.00  0.00    +0.000 OA
ATOM     22  C   UNL     1       7.777   7.077  17.949  0.00  0.00    +0.000 C 
BRANCH  22  23
ATOM     23  O   UNL     1       8.543   7.608  18.926  0.00  0.00    +0.000 OA
ATOM     24  H   UNL     1       8.706   8.566  18.841  0.00  0.00    +0.000 HD
ENDBRANCH  22  23
ENDBRANCH  20  22
ENDBRANCH   1  20
TORSDOF 5
ENDMDL
MODEL 2
REMARK VINA RESULT:      -6.5      3.918      7.538
REMARK  Name = 
REMARK  5 active torsions:
REMARK  status: ('A' for Active; 'I' for Inactive)
REMARK    1  A    between atoms: C_2  and  O_3
REMARK    2  A    between atoms: C_2  and  C_4
REMARK    3  A    between atoms: C_4  and  N_5
REMARK    4  A    between atoms: C_9  and  C_10
REMARK    5  A    between atoms: C_13  and  N_14
REMARK                            x       y       z     vdW  Elec       q    Type
REMARK                         _______ _______ _______ _____ _____    ______ ____
ROOT
ATOM      1  N   UNL     1       3.738   3.511  19.959  0.00  0.00    +0.000 N 
ATOM      2  C   UNL     1       4.514   4.346  19.179  0.00  0.00    +0.000 C 
ATOM      3  O   UNL     1       5.626   4.048  18.773  0.00  0.00    +0.000 OA
ATOM      4  C   UNL     1       3.768   5.593  18.848  0.00  0.00    +0.000 C 
ATOM      5  C   UNL     1       4.122   6.551  17.983  0.00  0.00    +0.000 C 
ATOM      6  S   UNL     1       2.260   5.599  19.687  0.00  0.00    +0.000 S 
ATOM      7  C   UNL     1       2.469   3.951  20.266  0.00  0.00    +0.000 C 
ATOM      8  S   UNL     1       1.253   3.113  21.035  0.00  0.00    +0.000 S 
ENDROOT
BRANCH   5   9
ATOM      9  C   UNL     1       5.280   6.432  17.182  0.00  0.00    +0.000 A 
ATOM     10  C   UNL     1       6.527   7.016  17.333  0.00  0.00    +0.000 A 
ATOM     11  C   UNL     1       7.345   6.533  16.282  0.00  0.00    +0.000 A 
ATOM     12  C   UNL     1       6.569   5.674  15.535  0.00  0.00    +0.000 A 
ATOM     13  O   UNL     1       5.319   5.631  16.072  0.00  0.00    +0.000 OA
BRANCH  12  14
ATOM     14  N   UNL     1       6.807   4.940  14.426  0.00  0.00    +0.000 N 
ATOM     15  C   UNL     1       7.955   5.213  13.565  0.00  0.00    +0.000 C 
ATOM     16  C   UNL     1       7.514   5.135  12.105  0.00  0.00    +0.000 C 
ATOM     17  C   UNL     1       6.813   3.813  11.794  0.00  0.00    +0.000 C 
ATOM     18  C   UNL     1       5.697   3.518  12.795  0.00  0.00    +0.000 C 
ATOM     19  C   UNL     1       6.193   3.625  14.237  0.00  0.00    +0.000 C 
ENDBRANCH  12  14
ENDBRANCH   5   9
BRANCH   1  20
ATOM     20  C   UNL     1       4.306   2.241  20.427  0.00  0.00    +0.000 C 
BRANCH  20  22
ATOM     21  O   UNL     1       3.548   1.123  18.427  0.00  0.00    +0.000 OA
ATOM     22  C   UNL     1       4.334   1.149  19.367  0.00  0.00    +0.000 C 
BRANCH  22  23
ATOM     23  O   UNL     1       5.210   0.144  19.582  0.00  0.00    +0.000 OA
ATOM     24  H   UNL     1       5.528   0.070  20.501  0.00  0.00    +0.000 HD
ENDBRANCH  22  23
ENDBRANCH  20  22
ENDBRANCH   1  20
TORSDOF 5
ENDMDL
MODEL 3
REMARK VINA RESULT:      -6.4      3.800      7.332
REMARK  Name = 
REMARK  5 active torsions:
REMARK  status: ('A' for Active; 'I' for Inactive)
REMARK    1  A    between atoms: C_2  and  O_3
REMARK    2  A    between atoms: C_2  and  C_4
REMARK    3  A    between atoms: C_4  and  N_5
REMARK    4  A    between atoms: C_9  and  C_10
REMARK    5  A    between atoms: C_13  and  N_14
REMARK                            x       y       z     vdW  Elec       q    Type
REMARK                         _______ _______ _______ _____ _____    ______ ____
ROOT
ATOM      1  N   UNL     1       0.042   9.590  20.510  0.00  0.00    +0.000 N 
ATOM      2  C   UNL     1       1.082   8.894  19.927  0.00  0.00    +0.000 C 
ATOM      3  O   UNL     1       1.550   7.867  20.392  0.00  0.00    +0.000 OA
ATOM      4  C   UNL     1       1.474   9.525  18.635  0.00  0.00    +0.000 C 
ATOM      5  C   UNL     1       2.317   9.044  17.713  0.00  0.00    +0.000 C 
ATOM      6  S   UNL     1       0.579  10.983  18.414  0.00  0.00    +0.000 S 
ATOM      7  C   UNL     1      -0.436  10.683  19.819  0.00  0.00    +0.000 C 
ATOM      8  S   UNL     1      -1.772  11.612  20.173  0.00  0.00    +0.000 S 
ENDROOT
BRANCH   5   9
ATOM      9  C   UNL     1       2.901   7.763  17.843  0.00  0.00    +0.000 A 
ATOM     10  C   UNL     1       4.237   7.398  17.885  0.00  0.00    +0.000 A 
ATOM     11  C   UNL     1       4.280   5.994  18.071  0.00  0.00    +0.000 A 
ATOM     12  C   UNL     1       2.976   5.560  18.138  0.00  0.00    +0.000 A 
ATOM     13  O   UNL     1       2.148   6.629  17.981  0.00  0.00    +0.000 OA
BRANCH  12  14
ATOM     14  N   UNL     1       2.413   4.341  18.293  0.00  0.00    +0.000 N 
ATOM     15  C   UNL     1       1.327   4.120  19.244  0.00  0.00    +0.000 C 
ATOM     16  C   UNL     1       1.574   2.811  19.991  0.00  0.00    +0.000 C 
ATOM     17  C   UNL     1       1.797   1.643  19.030  0.00  0.00    +0.000 C 
ATOM     18  C   UNL     1       2.861   1.970  17.983  0.00  0.00    +0.000 C 
ATOM     19  C   UNL     1       2.569   3.296  17.280  0.00  0.00    +0.000 C 
ENDBRANCH  12  14
ENDBRANCH   5   9
BRANCH   1  20
ATOM     20  C   UNL     1      -0.469   9.151  21.813  0.00  0.00    +0.000 C 
BRANCH  20  22
ATOM     21  O   UNL     1       1.140   9.520  23.574  0.00  0.00    +0.000 OA
ATOM     22  C   UNL     1       0.130   9.901  22.995  0.00  0.00    +0.000 C 
BRANCH  22  23
ATOM     23  O   UNL     1      -0.582  10.959  23.440  0.00  0.00    +0.000 OA
ATOM     24  H   UNL     1      -0.656  11.022  24.411  0.00  0.00    +0.000 HD
ENDBRANCH  22  23
ENDBRANCH  20  22
ENDBRANCH   1  20
TORSDOF 5
ENDMDL
MODEL 4
REMARK VINA RESULT:      -6.2      3.687      6.931
REMARK  Name = 
REMARK  5 active torsions:
REMARK  status: ('A' for Active; 'I' for Inactive)
REMARK    1  A    between atoms: C_2  and  O_3
REMARK    2  A    between atoms: C_2  and  C_4
REMARK    3  A    between atoms: C_4  and  N_5
REMARK    4  A    between atoms: C_9  and  C_10
REMARK    5  A    between atoms: C_13  and  N_14
REMARK                            x       y       z     vdW  Elec       q    Type
REMARK                         _______ _______ _______ _____ _____    ______ ____
ROOT
ATOM      1  N   UNL     1       0.675  10.411  19.759  0.00  0.00    +0.000 N 
ATOM      2  C   UNL     1       1.072   9.120  19.471  0.00  0.00    +0.000 C 
ATOM      3  O   UNL     1       1.513   8.777  18.385  0.00  0.00    +0.000 OA
ATOM      4  C   UNL     1       0.964   8.257  20.681  0.00  0.00    +0.000 C 
ATOM      5  C   UNL     1       1.414   7.006  20.836  0.00  0.00    +0.000 C 
ATOM      6  S   UNL     1       0.240   9.157  21.963  0.00  0.00    +0.000 S 
ATOM      7  C   UNL     1       0.282  10.663  21.055  0.00  0.00    +0.000 C 
ATOM      8  S   UNL     1      -0.086  12.133  21.745  0.00  0.00    +0.000 S 
ENDROOT
BRANCH   5   9
ATOM      9  C   UNL     1       2.157   6.358  19.823  0.00  0.00    +0.000 A 
ATOM     10  C   UNL     1       1.741   5.457  18.856  0.00  0.00    +0.000 A 
ATOM     11  C   UNL     1       2.873   5.146  18.062  0.00  0.00    +0.000 A 
ATOM     12  C   UNL     1       3.929   5.867  18.571  0.00  0.00    +0.000 A 
ATOM     13  O   UNL     1       3.496   6.583  19.645  0.00  0.00    +0.000 OA
BRANCH  12  14
ATOM     14  N   UNL     1       5.233   5.962  18.232  0.00  0.00    +0.000 N 
ATOM     15  C   UNL     1       6.226   5.030  18.761  0.00  0.00    +0.000 C 
ATOM     16  C   UNL     1       7.479   5.807  19.161  0.00  0.00    +0.000 C 
ATOM     17  C   UNL     1       7.998   6.674  18.013  0.00  0.00    +0.000 C 
ATOM     18  C   UNL     1       6.892   7.544  17.419  0.00  0.00    +0.000 C 
ATOM     19  C   UNL     1       5.661   6.715  17.052  0.00  0.00    +0.000 C 
ENDBRANCH  12  14
ENDBRANCH   5   9
BRANCH   1  20
ATOM     20  C   UNL     1       0.670  11.412  18.686  0.00  0.00    +0.000 C 
BRANCH  20  22
ATOM     21  O   UNL     1       2.522  12.906  19.093  0.00  0.00    +0.000 OA
ATOM     22  C   UNL     1       2.037  12.018  18.402  0.00  0.00    +0.000 C 
BRANCH  22  23
ATOM     23  O   UNL     1       2.643  11.594  17.272  0.00  0.00    +0.000 OA
ATOM     24  H   UNL     1       2.152  10.912  16.776  0.00  0.00    +0.000 HD
ENDBRANCH  22  23
ENDBRANCH  20  22
ENDBRANCH   1  20
TORSDOF 5
ENDMDL
MODEL 5
REMARK VINA RESULT:      -6.2      3.542      6.988
REMARK  Name = 
REMARK  5 active torsions:
REMARK  status: ('A' for Active; 'I' for Inactive)
REMARK    1  A    between atoms: C_2  and  O_3
REMARK    2  A    between atoms: C_2  and  C_4
REMARK    3  A    between atoms: C_4  and  N_5
REMARK    4  A    between atoms: C_9  and  C_10
REMARK    5  A    between atoms: C_13  and  N_14
REMARK                            x       y       z     vdW  Elec       q    Type
REMARK                         _______ _______ _______ _____ _____    ______ ____
ROOT
ATOM      1  N   UNL     1       0.404   9.200  20.311  0.00  0.00    +0.000 N 
ATOM      2  C   UNL     1       1.458   8.487  19.774  0.00  0.00    +0.000 C 
ATOM      3  O   UNL     1       1.926   7.484  20.290  0.00  0.00    +0.000 OA
ATOM      4  C   UNL     1       1.865   9.064  18.462  0.00  0.00    +0.000 C 
ATOM      5  C   UNL     1       2.724   8.550  17.574  0.00  0.00    +0.000 C 
ATOM      6  S   UNL     1       0.963  10.505  18.165  0.00  0.00    +0.000 S 
ATOM      7  C   UNL     1      -0.070  10.258  19.567  0.00  0.00    +0.000 C 
ATOM      8  S   UNL     1      -1.417  11.192  19.860  0.00  0.00    +0.000 S 
ENDROOT
BRANCH   5   9
ATOM      9  C   UNL     1       3.315   7.280  17.769  0.00  0.00    +0.000 A 
ATOM     10  C   UNL     1       4.630   6.878  17.594  0.00  0.00    +0.000 A 
ATOM     11  C   UNL     1       4.701   5.513  17.969  0.00  0.00    +0.000 A 
ATOM     12  C   UNL     1       3.435   5.139  18.358  0.00  0.00    +0.000 A 
ATOM     13  O   UNL     1       2.599   6.204  18.217  0.00  0.00    +0.000 OA
BRANCH  12  14
ATOM     14  N   UNL     1       2.908   3.975  18.797  0.00  0.00    +0.000 N 
ATOM     15  C   UNL     1       2.214   3.064  17.890  0.00  0.00    +0.000 C 
ATOM     16  C   UNL     1       0.952   2.543  18.575  0.00  0.00    +0.000 C 
ATOM     17  C   UNL     1       1.259   1.933  19.943  0.00  0.00    +0.000 C 
ATOM     18  C   UNL     1       2.088   2.881  20.809  0.00  0.00    +0.000 C 
ATOM     19  C   UNL     1       3.327   3.380  20.067  0.00  0.00    +0.000 C 
ENDBRANCH  12  14
ENDBRANCH   5   9
BRANCH   1  20
ATOM     20  C   UNL     1      -0.122   8.814  21.625  0.00  0.00    +0.000 C 
BRANCH  20  22
ATOM     21  O   UNL     1      -0.042  10.392  23.450  0.00  0.00    +0.000 OA
ATOM     22  C   UNL     1       0.538   9.537  22.791  0.00  0.00    +0.000 C 
BRANCH  22  23
ATOM     23  O   UNL     1       1.844   9.256  22.992  0.00  0.00    +0.000 OA
ATOM     24  H   UNL     1       2.209   9.593  23.831  0.00  0.00    +0.000 HD
ENDBRANCH  22  23
ENDBRANCH  20  22
ENDBRANCH   1  20
TORSDOF 5
ENDMDL
MODEL 6
REMARK VINA RESULT:      -6.1      1.002      1.115
REMARK  Name = 
REMARK  5 active torsions:
REMARK  status: ('A' for Active; 'I' for Inactive)
REMARK    1  A    between atoms: C_2  and  O_3
REMARK    2  A    between atoms: C_2  and  C_4
REMARK    3  A    between atoms: C_4  and  N_5
REMARK    4  A    between atoms: C_9  and  C_10
REMARK    5  A    between atoms: C_13  and  N_14
REMARK                            x       y       z     vdW  Elec       q    Type
REMARK                         _______ _______ _______ _____ _____    ______ ____
ROOT
ATOM      1  N   UNL     1       6.072   5.373  17.267  0.00  0.00    +0.000 N 
ATOM      2  C   UNL     1       4.976   5.321  18.105  0.00  0.00    +0.000 C 
ATOM      3  O   UNL     1       4.947   5.840  19.210  0.00  0.00    +0.000 OA
ATOM      4  C   UNL     1       3.838   4.629  17.436  0.00  0.00    +0.000 C 
ATOM      5  C   UNL     1       2.573   4.538  17.862  0.00  0.00    +0.000 C 
ATOM      6  S   UNL     1       4.359   4.016  15.909  0.00  0.00    +0.000 S 
ATOM      7  C   UNL     1       5.921   4.816  16.015  0.00  0.00    +0.000 C 
ATOM      8  S   UNL     1       6.987   4.870  14.737  0.00  0.00    +0.000 S 
ENDROOT
BRANCH   5   9
ATOM      9  C   UNL     1       2.138   5.200  19.032  0.00  0.00    +0.000 A 
ATOM     10  C   UNL     1       1.885   4.692  20.297  0.00  0.00    +0.000 A 
ATOM     11  C   UNL     1       1.516   5.786  21.119  0.00  0.00    +0.000 A 
ATOM     12  C   UNL     1       1.560   6.913  20.329  0.00  0.00    +0.000 A 
ATOM     13  O   UNL     1       1.918   6.551  19.067  0.00  0.00    +0.000 OA
BRANCH  12  14
ATOM     14  N   UNL     1       1.303   8.218  20.564  0.00  0.00    +0.000 N 
ATOM     15  C   UNL     1       1.399   8.782  21.909  0.00  0.00    +0.000 C 
ATOM     16  C   UNL     1       0.208   9.708  22.149  0.00  0.00    +0.000 C 
ATOM     17  C   UNL     1       0.078  10.761  21.047  0.00  0.00    +0.000 C 
ATOM     18  C   UNL     1       0.100  10.127  19.657  0.00  0.00    +0.000 C 
ATOM     19  C   UNL     1       1.304   9.202  19.481  0.00  0.00    +0.000 C 
ENDBRANCH  12  14
ENDBRANCH   5   9
BRANCH   1  20
ATOM     20  C   UNL     1       7.314   5.983  17.753  0.00  0.00    +0.000 C 
BRANCH  20  22
ATOM     21  O   UNL     1       8.676   4.012  18.049  0.00  0.00    +0.000 OA
ATOM     22  C   UNL     1       8.203   5.031  18.540  0.00  0.00    +0.000 C 
BRANCH  22  23
ATOM     23  O   UNL     1       8.353   5.317  19.852  0.00  0.00    +0.000 OA
ATOM     24  H   UNL     1       9.204   5.032  20.236  0.00  0.00    +0.000 HD
ENDBRANCH  22  23
ENDBRANCH  20  22
ENDBRANCH   1  20
TORSDOF 5
ENDMDL
MODEL 7
REMARK VINA RESULT:      -6.1      3.534      7.542
REMARK  Name = 
REMARK  5 active torsions:
REMARK  status: ('A' for Active; 'I' for Inactive)
REMARK    1  A    between atoms: C_2  and  O_3
REMARK    2  A    between atoms: C_2  and  C_4
REMARK    3  A    between atoms: C_4  and  N_5
REMARK    4  A    between atoms: C_9  and  C_10
REMARK    5  A    between atoms: C_13  and  N_14
REMARK                            x       y       z     vdW  Elec       q    Type
REMARK                         _______ _______ _______ _____ _____    ______ ____
ROOT
ATOM      1  N   UNL     1       0.807  10.113  19.529  0.00  0.00    +0.000 N 
ATOM      2  C   UNL     1       1.180   8.808  19.274  0.00  0.00    +0.000 C 
ATOM      3  O   UNL     1       1.310   8.352  18.149  0.00  0.00    +0.000 OA
ATOM      4  C   UNL     1       1.473   8.090  20.546  0.00  0.00    +0.000 C 
ATOM      5  C   UNL     1       2.020   6.877  20.693  0.00  0.00    +0.000 C 
ATOM      6  S   UNL     1       1.096   9.114  21.883  0.00  0.00    +0.000 S 
ATOM      7  C   UNL     1       0.789  10.505  20.850  0.00  0.00    +0.000 C 
ATOM      8  S   UNL     1       0.549  12.036  21.460  0.00  0.00    +0.000 S 
ENDROOT
BRANCH   5   9
ATOM      9  C   UNL     1       2.479   6.135  19.580  0.00  0.00    +0.000 A 
ATOM     10  C   UNL     1       1.843   5.141  18.854  0.00  0.00    +0.000 A 
ATOM     11  C   UNL     1       2.723   4.757  17.813  0.00  0.00    +0.000 A 
ATOM     12  C   UNL     1       3.856   5.529  17.942  0.00  0.00    +0.000 A 
ATOM     13  O   UNL     1       3.710   6.346  19.021  0.00  0.00    +0.000 OA
BRANCH  12  14
ATOM     14  N   UNL     1       5.014   5.594  17.250  0.00  0.00    +0.000 N 
ATOM     15  C   UNL     1       5.078   6.216  15.930  0.00  0.00    +0.000 C 
ATOM     16  C   UNL     1       5.934   5.347  15.009  0.00  0.00    +0.000 C 
ATOM     17  C   UNL     1       7.306   5.056  15.620  0.00  0.00    +0.000 C 
ATOM     18  C   UNL     1       7.186   4.518  17.045  0.00  0.00    +0.000 C 
ATOM     19  C   UNL     1       6.308   5.419  17.913  0.00  0.00    +0.000 C 
ENDBRANCH  12  14
ENDBRANCH   5   9
BRANCH   1  20
ATOM     20  C   UNL     1       0.437  10.982  18.407  0.00  0.00    +0.000 C 
BRANCH  20  22
ATOM     21  O   UNL     1      -1.893  11.459  18.820  0.00  0.00    +0.000 OA
ATOM     22  C   UNL     1      -1.049  10.968  18.079  0.00  0.00    +0.000 C 
BRANCH  22  23
ATOM     23  O   UNL     1      -1.399  10.285  16.968  0.00  0.00    +0.000 OA
ATOM     24  H   UNL     1      -1.518  10.835  16.171  0.00  0.00    +0.000 HD
ENDBRANCH  22  23
ENDBRANCH  20  22
ENDBRANCH   1  20
TORSDOF 5
ENDMDL
MODEL 8
REMARK VINA RESULT:      -6.1      3.750      7.371
REMARK  Name = 
REMARK  5 active torsions:
REMARK  status: ('A' for Active; 'I' for Inactive)
REMARK    1  A    between atoms: C_2  and  O_3
REMARK    2  A    between atoms: C_2  and  C_4
REMARK    3  A    between atoms: C_4  and  N_5
REMARK    4  A    between atoms: C_9  and  C_10
REMARK    5  A    between atoms: C_13  and  N_14
REMARK                            x       y       z     vdW  Elec       q    Type
REMARK                         _______ _______ _______ _____ _____    ______ ____
ROOT
ATOM      1  N   UNL     1       0.633  10.399  19.779  0.00  0.00    +0.000 N 
ATOM      2  C   UNL     1       1.039   9.108  19.506  0.00  0.00    +0.000 C 
ATOM      3  O   UNL     1       1.459   8.750  18.417  0.00  0.00    +0.000 OA
ATOM      4  C   UNL     1       0.967   8.266  20.734  0.00  0.00    +0.000 C 
ATOM      5  C   UNL     1       1.434   7.023  20.901  0.00  0.00    +0.000 C 
ATOM      6  S   UNL     1       0.262   9.182  22.015  0.00  0.00    +0.000 S 
ATOM      7  C   UNL     1       0.267  10.671  21.079  0.00  0.00    +0.000 C 
ATOM      8  S   UNL     1      -0.102  12.150  21.751  0.00  0.00    +0.000 S 
ENDROOT
BRANCH   5   9
ATOM      9  C   UNL     1       2.162   6.365  19.884  0.00  0.00    +0.000 A 
ATOM     10  C   UNL     1       1.733   5.448  18.937  0.00  0.00    +0.000 A 
ATOM     11  C   UNL     1       2.851   5.132  18.126  0.00  0.00    +0.000 A 
ATOM     12  C   UNL     1       3.912   5.866  18.605  0.00  0.00    +0.000 A 
ATOM     13  O   UNL     1       3.496   6.594  19.677  0.00  0.00    +0.000 OA
BRANCH  12  14
ATOM     14  N   UNL     1       5.210   5.963  18.240  0.00  0.00    +0.000 N 
ATOM     15  C   UNL     1       6.211   5.022  18.736  0.00  0.00    +0.000 C 
ATOM     16  C   UNL     1       7.474   5.792  19.120  0.00  0.00    +0.000 C 
ATOM     17  C   UNL     1       7.971   6.672  17.973  0.00  0.00    +0.000 C 
ATOM     18  C   UNL     1       6.855   7.553  17.413  0.00  0.00    +0.000 C 
ATOM     19  C   UNL     1       5.615   6.731  17.062  0.00  0.00    +0.000 C 
ENDBRANCH  12  14
ENDBRANCH   5   9
BRANCH   1  20
ATOM     20  C   UNL     1       0.593  11.381  18.689  0.00  0.00    +0.000 C 
BRANCH  20  22
ATOM     21  O   UNL     1      -1.675  10.791  18.111  0.00  0.00    +0.000 OA
ATOM     22  C   UNL     1      -0.805  11.654  18.155  0.00  0.00    +0.000 C 
BRANCH  22  23
ATOM     23  O   UNL     1      -1.003  12.882  17.628  0.00  0.00    +0.000 OA
ATOM     24  H   UNL     1      -1.928  13.077  17.384  0.00  0.00    +0.000 HD
ENDBRANCH  22  23
ENDBRANCH  20  22
ENDBRANCH   1  20
TORSDOF 5
ENDMDL
MODEL 9
REMARK VINA RESULT:      -6.1      3.008      4.521
REMARK  Name = 
REMARK  5 active torsions:
REMARK  status: ('A' for Active; 'I' for Inactive)
REMARK    1  A    between atoms: C_2  and  O_3
REMARK    2  A    between atoms: C_2  and  C_4
REMARK    3  A    between atoms: C_4  and  N_5
REMARK    4  A    between atoms: C_9  and  C_10
REMARK    5  A    between atoms: C_13  and  N_14
REMARK                            x       y       z     vdW  Elec       q    Type
REMARK                         _______ _______ _______ _____ _____    ______ ____
ROOT
ATOM      1  N   UNL     1       2.557   3.817  19.459  0.00  0.00    +0.000 N 
ATOM      2  C   UNL     1       2.237   5.098  19.053  0.00  0.00    +0.000 C 
ATOM      3  O   UNL     1       1.174   5.640  19.310  0.00  0.00    +0.000 OA
ATOM      4  C   UNL     1       3.390   5.726  18.348  0.00  0.00    +0.000 C 
ATOM      5  C   UNL     1       3.516   7.003  17.966  0.00  0.00    +0.000 C 
ATOM      6  S   UNL     1       4.654   4.565  18.169  0.00  0.00    +0.000 S 
ATOM      7  C   UNL     1       3.829   3.375  19.168  0.00  0.00    +0.000 C 
ATOM      8  S   UNL     1       4.560   1.964  19.665  0.00  0.00    +0.000 S 
ENDROOT
BRANCH   5   9
ATOM      9  C   UNL     1       2.535   7.969  18.282  0.00  0.00    +0.000 A 
ATOM     10  C   UNL     1       1.698   8.690  17.445  0.00  0.00    +0.000 A 
ATOM     11  C   UNL     1       0.872   9.492  18.272  0.00  0.00    +0.000 A 
ATOM     12  C   UNL     1       1.234   9.229  19.574  0.00  0.00    +0.000 A 
ATOM     13  O   UNL     1       2.250   8.323  19.573  0.00  0.00    +0.000 OA
BRANCH  12  14
ATOM     14  N   UNL     1       0.806   9.699  20.766  0.00  0.00    +0.000 N 
ATOM     15  C   UNL     1       0.902   8.894  21.980  0.00  0.00    +0.000 C 
ATOM     16  C   UNL     1      -0.393   9.035  22.778  0.00  0.00    +0.000 C 
ATOM     17  C   UNL     1      -0.741  10.501  23.038  0.00  0.00    +0.000 C 
ATOM     18  C   UNL     1      -0.713  11.324  21.751  0.00  0.00    +0.000 C 
ATOM     19  C   UNL     1       0.598  11.131  20.989  0.00  0.00    +0.000 C 
ENDBRANCH  12  14
ENDBRANCH   5   9
BRANCH   1  20
ATOM     20  C   UNL     1       1.539   3.009  20.140  0.00  0.00    +0.000 C 
BRANCH  20  22
ATOM     21  O   UNL     1       1.161   2.102  22.345  0.00  0.00    +0.000 OA
ATOM     22  C   UNL     1       1.706   2.953  21.652  0.00  0.00    +0.000 C 
BRANCH  22  23
ATOM     23  O   UNL     1       2.408   3.967  22.203  0.00  0.00    +0.000 OA
ATOM     24  H   UNL     1       2.683   4.662  21.576  0.00  0.00    +0.000 HD
ENDBRANCH  22  23
ENDBRANCH  20  22
ENDBRANCH   1  20
TORSDOF 5
ENDMDL
