MODEL 1
REMARK VINA RESULT:      -6.3      0.000      0.000
REMARK  Name = 
REMARK  10 active torsions:
REMARK  status: ('A' for Active; 'I' for Inactive)
REMARK    1  A    between atoms: C_1  and  C_2
REMARK    2  A    between atoms: C_6  and  C_7
REMARK    3  A    between atoms: N_9  and  C_10
REMARK    4  A    between atoms: C_10  and  C_11
REMARK    5  A    between atoms: C_10  and  C_14
REMARK    6  A    between atoms: C_11  and  C_12
REMARK    7  A    between atoms: C_12  and  O_13
REMARK    8  A    between atoms: C_14  and  C_15
REMARK    9  A    between atoms: C_14  and  C_16
REMARK   10  A    between atoms: C_14  and  C_17
REMARK                            x       y       z     vdW  Elec       q    Type
REMARK                         _______ _______ _______ _____ _____    ______ ____
ROOT
ATOM      1  C   UNL     1       3.591   5.149  18.811  0.00  0.00    +0.000 C 
ATOM      2  O   UNL     1       3.278   6.318  18.600  0.00  0.00    +0.000 OA
ATOM      3  N   UNL     1       4.823   4.651  18.428  0.00  0.00    +0.000 N 
ATOM      4  H   UNL     1       5.016   3.703  18.719  0.00  0.00    +0.000 HD
ENDROOT
BRANCH   1  10
ATOM      5  C   UNL     1       2.422   2.408  17.660  0.00  0.00    +0.000 C 
ATOM      6  C   UNL     1       2.206   2.980  19.025  0.00  0.00    +0.000 A 
ATOM      7  C   UNL     1       1.406   2.324  20.023  0.00  0.00    +0.000 A 
ATOM      8  C   UNL     1       1.342   3.024  21.202  0.00  0.00    +0.000 A 
ATOM      9  S   UNL     1       2.234   4.468  21.129  0.00  0.00    +0.000 S 
ATOM     10  C   UNL     1       2.731   4.182  19.501  0.00  0.00    +0.000 A 
ENDBRANCH   1  10
BRANCH   3  11
ATOM     11  C   UNL     1       5.901   5.413  17.791  0.00  0.00    +0.000 C 
BRANCH  11  12
ATOM     12  C   UNL     1       5.803   5.282  16.218  0.00  0.00    +0.000 C 
ATOM     13  C   UNL     1       7.216   5.128  15.610  0.00  0.00    +0.000 C 
ATOM     14  C   UNL     1       4.996   4.031  15.810  0.00  0.00    +0.000 C 
ATOM     15  C   UNL     1       5.134   6.511  15.563  0.00  0.00    +0.000 C 
ENDBRANCH  11  12
BRANCH  11  16
ATOM     16  C   UNL     1       7.270   4.961  18.345  0.00  0.00    +0.000 C 
BRANCH  16  17
ATOM     17  C   UNL     1       7.959   5.967  19.261  0.00  0.00    +0.000 C 
BRANCH  17  18
ATOM     18  O   UNL     1       8.066   5.401  20.567  0.00  0.00    +0.000 OA
ATOM     19  H   UNL     1       7.167   5.184  20.866  0.00  0.00    +0.000 HD
ENDBRANCH  17  18
ENDBRANCH  16  17
ENDBRANCH  11  16
ENDBRANCH   3  11
TORSDOF 6
ENDMDL
MODEL 2
REMARK VINA RESULT:      -6.3      0.046      1.045
REMARK  Name = 
REMARK  10 active torsions:
REMARK  status: ('A' for Active; 'I' for Inactive)
REMARK    1  A    between atoms: C_1  and  C_2
REMARK    2  A    between atoms: C_6  and  C_7
REMARK    3  A    between atoms: N_9  and  C_10
REMARK    4  A    between atoms: C_10  and  C_11
REMARK    5  A    between atoms: C_10  and  C_14
REMARK    6  A    between atoms: C_11  and  C_12
REMARK    7  A    between atoms: C_12  and  O_13
REMARK    8  A    between atoms: C_14  and  C_15
REMARK    9  A    between atoms: C_14  and  C_16
REMARK   10  A    between atoms: C_14  and  C_17
REMARK                            x       y       z     vdW  Elec       q    Type
REMARK                         _______ _______ _______ _____ _____    ______ ____
ROOT
ATOM      1  C   UNL     1       3.594   5.173  18.780  0.00  0.00    +0.000 C 
ATOM      2  O   UNL     1       3.294   6.346  18.572  0.00  0.00    +0.000 OA
ATOM      3  N   UNL     1       4.818   4.660  18.389  0.00  0.00    +0.000 N 
ATOM      4  H   UNL     1       5.002   3.710  18.677  0.00  0.00    +0.000 HD
ENDROOT
BRANCH   1  10
ATOM      5  C   UNL     1       2.398   2.440  17.638  0.00  0.00    +0.000 C 
ATOM      6  C   UNL     1       2.191   3.017  19.002  0.00  0.00    +0.000 A 
ATOM      7  C   UNL     1       1.388   2.370  20.004  0.00  0.00    +0.000 A 
ATOM      8  C   UNL     1       1.333   3.073  21.181  0.00  0.00    +0.000 A 
ATOM      9  S   UNL     1       2.238   4.509  21.103  0.00  0.00    +0.000 S 
ATOM     10  C   UNL     1       2.728   4.215  19.475  0.00  0.00    +0.000 A 
ENDBRANCH   1  10
BRANCH   3  11
ATOM     11  C   UNL     1       5.901   5.411  17.746  0.00  0.00    +0.000 C 
BRANCH  11  12
ATOM     12  C   UNL     1       5.812   5.255  16.175  0.00  0.00    +0.000 C 
ATOM     13  C   UNL     1       5.159   6.511  15.553  0.00  0.00    +0.000 C 
ATOM     14  C   UNL     1       7.215   5.116  15.545  0.00  0.00    +0.000 C 
ATOM     15  C   UNL     1       4.979   4.026  15.750  0.00  0.00    +0.000 C 
ENDBRANCH  11  12
BRANCH  11  16
ATOM     16  C   UNL     1       7.266   4.965  18.315  0.00  0.00    +0.000 C 
BRANCH  16  17
ATOM     17  C   UNL     1       7.933   5.968  19.251  0.00  0.00    +0.000 C 
BRANCH  17  18
ATOM     18  O   UNL     1       8.041   5.383  20.549  0.00  0.00    +0.000 OA
ATOM     19  H   UNL     1       7.647   4.497  20.504  0.00  0.00    +0.000 HD
ENDBRANCH  17  18
ENDBRANCH  16  17
ENDBRANCH  11  16
ENDBRANCH   3  11
TORSDOF 6
ENDMDL
MODEL 3
REMARK VINA RESULT:      -6.3      0.173      1.058
REMARK  Name = 
REMARK  10 active torsions:
REMARK  status: ('A' for Active; 'I' for Inactive)
REMARK    1  A    between atoms: C_1  and  C_2
REMARK    2  A    between atoms: C_6  and  C_7
REMARK    3  A    between atoms: N_9  and  C_10
REMARK    4  A    between atoms: C_10  and  C_11
REMARK    5  A    between atoms: C_10  and  C_14
REMARK    6  A    between atoms: C_11  and  C_12
REMARK    7  A    between atoms: C_12  and  O_13
REMARK    8  A    between atoms: C_14  and  C_15
REMARK    9  A    between atoms: C_14  and  C_16
REMARK   10  A    between atoms: C_14  and  C_17
REMARK                            x       y       z     vdW  Elec       q    Type
REMARK                         _______ _______ _______ _____ _____    ______ ____
ROOT
ATOM      1  C   UNL     1       3.595   5.175  18.603  0.00  0.00    +0.000 C 
ATOM      2  O   UNL     1       3.278   6.321  18.293  0.00  0.00    +0.000 OA
ATOM      3  N   UNL     1       4.852   4.671  18.318  0.00  0.00    +0.000 N 
ATOM      4  H   UNL     1       5.043   3.750  18.686  0.00  0.00    +0.000 HD
ENDROOT
BRANCH   1  10
ATOM      5  C   UNL     1       2.331   2.452  17.512  0.00  0.00    +0.000 C 
ATOM      6  C   UNL     1       2.149   3.053  18.869  0.00  0.00    +0.000 A 
ATOM      7  C   UNL     1       1.342   2.437  19.887  0.00  0.00    +0.000 A 
ATOM      8  C   UNL     1       1.313   3.158  21.055  0.00  0.00    +0.000 A 
ATOM      9  S   UNL     1       2.247   4.573  20.948  0.00  0.00    +0.000 S 
ATOM     10  C   UNL     1       2.715   4.246  19.320  0.00  0.00    +0.000 A 
ENDBRANCH   1  10
BRANCH   3  11
ATOM     11  C   UNL     1       5.950   5.404  17.680  0.00  0.00    +0.000 C 
BRANCH  11  12
ATOM     12  C   UNL     1       5.899   5.203  16.112  0.00  0.00    +0.000 C 
ATOM     13  C   UNL     1       5.086   3.935  15.767  0.00  0.00    +0.000 C 
ATOM     14  C   UNL     1       5.200   6.392  15.418  0.00  0.00    +0.000 C 
ATOM     15  C   UNL     1       7.305   5.052  15.490  0.00  0.00    +0.000 C 
ENDBRANCH  11  12
BRANCH  11  16
ATOM     16  C   UNL     1       7.301   4.976  18.295  0.00  0.00    +0.000 C 
BRANCH  16  17
ATOM     17  C   UNL     1       7.936   5.998  19.232  0.00  0.00    +0.000 C 
BRANCH  17  18
ATOM     18  O   UNL     1       8.083   5.408  20.523  0.00  0.00    +0.000 OA
ATOM     19  H   UNL     1       7.299   4.858  20.685  0.00  0.00    +0.000 HD
ENDBRANCH  17  18
ENDBRANCH  16  17
ENDBRANCH  11  16
ENDBRANCH   3  11
TORSDOF 6
ENDMDL
MODEL 4
REMARK VINA RESULT:      -6.2      2.542      5.343
REMARK  Name = 
REMARK  10 active torsions:
REMARK  status: ('A' for Active; 'I' for Inactive)
REMARK    1  A    between atoms: C_1  and  C_2
REMARK    2  A    between atoms: C_6  and  C_7
REMARK    3  A    between atoms: N_9  and  C_10
REMARK    4  A    between atoms: C_10  and  C_11
REMARK    5  A    between atoms: C_10  and  C_14
REMARK    6  A    between atoms: C_11  and  C_12
REMARK    7  A    between atoms: C_12  and  O_13
REMARK    8  A    between atoms: C_14  and  C_15
REMARK    9  A    between atoms: C_14  and  C_16
REMARK   10  A    between atoms: C_14  and  C_17
REMARK                            x       y       z     vdW  Elec       q    Type
REMARK                         _______ _______ _______ _____ _____    ______ ____
ROOT
ATOM      1  C   UNL     1       5.021   4.206  17.927  0.00  0.00    +0.000 C 
ATOM      2  O   UNL     1       5.026   3.286  17.113  0.00  0.00    +0.000 OA
ATOM      3  N   UNL     1       4.128   4.231  18.984  0.00  0.00    +0.000 N 
ATOM      4  H   UNL     1       4.257   4.985  19.643  0.00  0.00    +0.000 HD
ENDROOT
BRANCH   1  10
ATOM      5  C   UNL     1       5.007   6.689  15.917  0.00  0.00    +0.000 C 
ATOM      6  C   UNL     1       5.973   6.431  17.029  0.00  0.00    +0.000 A 
ATOM      7  C   UNL     1       7.061   7.321  17.333  0.00  0.00    +0.000 A 
ATOM      8  C   UNL     1       7.823   6.893  18.391  0.00  0.00    +0.000 A 
ATOM      9  S   UNL     1       7.249   5.427  19.030  0.00  0.00    +0.000 S 
ATOM     10  C   UNL     1       5.955   5.336  17.894  0.00  0.00    +0.000 A 
ENDBRANCH   1  10
BRANCH   3  11
ATOM     11  C   UNL     1       3.139   3.195  19.301  0.00  0.00    +0.000 C 
BRANCH  11  12
ATOM     12  C   UNL     1       1.676   3.755  19.077  0.00  0.00    +0.000 C 
ATOM     13  C   UNL     1       1.629   4.618  17.796  0.00  0.00    +0.000 C 
ATOM     14  C   UNL     1       0.661   2.607  18.888  0.00  0.00    +0.000 C 
ATOM     15  C   UNL     1       1.190   4.627  20.257  0.00  0.00    +0.000 C 
ENDBRANCH  11  12
BRANCH  11  16
ATOM     16  C   UNL     1       3.364   2.668  20.735  0.00  0.00    +0.000 C 
BRANCH  16  17
ATOM     17  C   UNL     1       4.621   1.824  20.920  0.00  0.00    +0.000 C 
BRANCH  17  18
ATOM     18  O   UNL     1       5.024   1.313  19.650  0.00  0.00    +0.000 OA
ATOM     19  H   UNL     1       4.256   0.867  19.257  0.00  0.00    +0.000 HD
ENDBRANCH  17  18
ENDBRANCH  16  17
ENDBRANCH  11  16
ENDBRANCH   3  11
TORSDOF 6
ENDMDL
MODEL 5
REMARK VINA RESULT:      -6.1      2.224      5.351
REMARK  Name = 
REMARK  10 active torsions:
REMARK  status: ('A' for Active; 'I' for Inactive)
REMARK    1  A    between atoms: C_1  and  C_2
REMARK    2  A    between atoms: C_6  and  C_7
REMARK    3  A    between atoms: N_9  and  C_10
REMARK    4  A    between atoms: C_10  and  C_11
REMARK    5  A    between atoms: C_10  and  C_14
REMARK    6  A    between atoms: C_11  and  C_12
REMARK    7  A    between atoms: C_12  and  O_13
REMARK    8  A    between atoms: C_14  and  C_15
REMARK    9  A    between atoms: C_14  and  C_16
REMARK   10  A    between atoms: C_14  and  C_17
REMARK                            x       y       z     vdW  Elec       q    Type
REMARK                         _______ _______ _______ _____ _____    ______ ____
ROOT
ATOM      1  C   UNL     1       5.203   4.424  19.063  0.00  0.00    +0.000 C 
ATOM      2  O   UNL     1       5.605   3.291  19.315  0.00  0.00    +0.000 OA
ATOM      3  N   UNL     1       3.884   4.786  19.273  0.00  0.00    +0.000 N 
ATOM      4  H   UNL     1       3.671   5.760  19.113  0.00  0.00    +0.000 HD
ENDROOT
BRANCH   1  10
ATOM      5  C   UNL     1       4.573   6.448  16.673  0.00  0.00    +0.000 C 
ATOM      6  C   UNL     1       5.808   6.400  17.515  0.00  0.00    +0.000 A 
ATOM      7  C   UNL     1       6.907   7.309  17.332  0.00  0.00    +0.000 A 
ATOM      8  C   UNL     1       7.936   7.087  18.213  0.00  0.00    +0.000 A 
ATOM      9  S   UNL     1       7.602   5.794  19.263  0.00  0.00    +0.000 S 
ATOM     10  C   UNL     1       6.056   5.504  18.555  0.00  0.00    +0.000 A 
ENDBRANCH   1  10
BRANCH   3  11
ATOM     11  C   UNL     1       2.836   3.932  19.841  0.00  0.00    +0.000 C 
BRANCH  11  12
ATOM     12  C   UNL     1       1.913   3.364  18.689  0.00  0.00    +0.000 C 
ATOM     13  C   UNL     1       2.618   2.187  17.977  0.00  0.00    +0.000 C 
ATOM     14  C   UNL     1       0.583   2.821  19.253  0.00  0.00    +0.000 C 
ATOM     15  C   UNL     1       1.575   4.431  17.623  0.00  0.00    +0.000 C 
ENDBRANCH  11  12
BRANCH  11  16
ATOM     16  C   UNL     1       2.043   4.709  20.915  0.00  0.00    +0.000 C 
BRANCH  16  17
ATOM     17  C   UNL     1       1.533   6.077  20.475  0.00  0.00    +0.000 C 
BRANCH  17  18
ATOM     18  O   UNL     1       2.629   6.991  20.453  0.00  0.00    +0.000 OA
ATOM     19  H   UNL     1       3.406   6.524  20.802  0.00  0.00    +0.000 HD
ENDBRANCH  17  18
ENDBRANCH  16  17
ENDBRANCH  11  16
ENDBRANCH   3  11
TORSDOF 6
ENDMDL
MODEL 6
REMARK VINA RESULT:      -6.1      2.252      5.397
REMARK  Name = 
REMARK  10 active torsions:
REMARK  status: ('A' for Active; 'I' for Inactive)
REMARK    1  A    between atoms: C_1  and  C_2
REMARK    2  A    between atoms: C_6  and  C_7
REMARK    3  A    between atoms: N_9  and  C_10
REMARK    4  A    between atoms: C_10  and  C_11
REMARK    5  A    between atoms: C_10  and  C_14
REMARK    6  A    between atoms: C_11  and  C_12
REMARK    7  A    between atoms: C_12  and  O_13
REMARK    8  A    between atoms: C_14  and  C_15
REMARK    9  A    between atoms: C_14  and  C_16
REMARK   10  A    between atoms: C_14  and  C_17
REMARK                            x       y       z     vdW  Elec       q    Type
REMARK                         _______ _______ _______ _____ _____    ______ ____
ROOT
ATOM      1  C   UNL     1       5.170   4.385  19.095  0.00  0.00    +0.000 C 
ATOM      2  O   UNL     1       5.599   3.268  19.375  0.00  0.00    +0.000 OA
ATOM      3  N   UNL     1       3.839   4.715  19.275  0.00  0.00    +0.000 N 
ATOM      4  H   UNL     1       3.603   5.680  19.093  0.00  0.00    +0.000 HD
ENDROOT
BRANCH   1  10
ATOM      5  C   UNL     1       4.419   6.513  16.833  0.00  0.00    +0.000 C 
ATOM      6  C   UNL     1       5.702   6.419  17.595  0.00  0.00    +0.000 A 
ATOM      7  C   UNL     1       6.798   7.325  17.383  0.00  0.00    +0.000 A 
ATOM      8  C   UNL     1       7.877   7.058  18.189  0.00  0.00    +0.000 A 
ATOM      9  S   UNL     1       7.593   5.725  19.203  0.00  0.00    +0.000 S 
ATOM     10  C   UNL     1       6.003   5.478  18.580  0.00  0.00    +0.000 A 
ENDBRANCH   1  10
BRANCH   3  11
ATOM     11  C   UNL     1       2.804   3.844  19.842  0.00  0.00    +0.000 C 
BRANCH  11  12
ATOM     12  C   UNL     1       1.884   3.272  18.690  0.00  0.00    +0.000 C 
ATOM     13  C   UNL     1       1.570   4.383  17.662  0.00  0.00    +0.000 C 
ATOM     14  C   UNL     1       2.590   2.132  17.924  0.00  0.00    +0.000 C 
ATOM     15  C   UNL     1       0.542   2.724  19.224  0.00  0.00    +0.000 C 
ENDBRANCH  11  12
BRANCH  11  16
ATOM     16  C   UNL     1       2.006   4.604  20.924  0.00  0.00    +0.000 C 
BRANCH  16  17
ATOM     17  C   UNL     1       1.497   5.978  20.503  0.00  0.00    +0.000 C 
BRANCH  17  18
ATOM     18  O   UNL     1       2.594   6.891  20.489  0.00  0.00    +0.000 OA
ATOM     19  H   UNL     1       2.648   7.296  21.371  0.00  0.00    +0.000 HD
ENDBRANCH  17  18
ENDBRANCH  16  17
ENDBRANCH  11  16
ENDBRANCH   3  11
TORSDOF 6
ENDMDL
MODEL 7
REMARK VINA RESULT:      -6.0      2.157      5.626
REMARK  Name = 
REMARK  10 active torsions:
REMARK  status: ('A' for Active; 'I' for Inactive)
REMARK    1  A    between atoms: C_1  and  C_2
REMARK    2  A    between atoms: C_6  and  C_7
REMARK    3  A    between atoms: N_9  and  C_10
REMARK    4  A    between atoms: C_10  and  C_11
REMARK    5  A    between atoms: C_10  and  C_14
REMARK    6  A    between atoms: C_11  and  C_12
REMARK    7  A    between atoms: C_12  and  O_13
REMARK    8  A    between atoms: C_14  and  C_15
REMARK    9  A    between atoms: C_14  and  C_16
REMARK   10  A    between atoms: C_14  and  C_17
REMARK                            x       y       z     vdW  Elec       q    Type
REMARK                         _______ _______ _______ _____ _____    ______ ____
ROOT
ATOM      1  C   UNL     1       5.352   4.661  18.285  0.00  0.00    +0.000 C 
ATOM      2  O   UNL     1       5.953   4.323  19.302  0.00  0.00    +0.000 OA
ATOM      3  N   UNL     1       4.017   5.020  18.320  0.00  0.00    +0.000 N 
ATOM      4  H   UNL     1       3.637   5.361  17.448  0.00  0.00    +0.000 HD
ENDROOT
BRANCH   1  10
ATOM      5  C   UNL     1       7.446   6.842  17.254  0.00  0.00    +0.000 C 
ATOM      6  C   UNL     1       6.886   5.690  16.481  0.00  0.00    +0.000 A 
ATOM      7  C   UNL     1       7.249   5.423  15.116  0.00  0.00    +0.000 A 
ATOM      8  C   UNL     1       6.617   4.318  14.601  0.00  0.00    +0.000 A 
ATOM      9  S   UNL     1       5.588   3.591  15.741  0.00  0.00    +0.000 S 
ATOM     10  C   UNL     1       5.972   4.751  16.959  0.00  0.00    +0.000 A 
ENDBRANCH   1  10
BRANCH   3  11
ATOM     11  C   UNL     1       3.175   5.094  19.519  0.00  0.00    +0.000 C 
BRANCH  11  12
ATOM     12  C   UNL     1       2.109   3.926  19.507  0.00  0.00    +0.000 C 
ATOM     13  C   UNL     1       2.755   2.613  20.004  0.00  0.00    +0.000 C 
ATOM     14  C   UNL     1       0.928   4.236  20.452  0.00  0.00    +0.000 C 
ATOM     15  C   UNL     1       1.531   3.669  18.097  0.00  0.00    +0.000 C 
ENDBRANCH  11  12
BRANCH  11  16
ATOM     16  C   UNL     1       2.529   6.493  19.628  0.00  0.00    +0.000 C 
BRANCH  16  17
ATOM     17  C   UNL     1       2.309   7.207  18.299  0.00  0.00    +0.000 C 
BRANCH  17  18
ATOM     18  O   UNL     1       3.554   7.747  17.856  0.00  0.00    +0.000 OA
ATOM     19  H   UNL     1       3.455   8.713  17.815  0.00  0.00    +0.000 HD
ENDBRANCH  17  18
ENDBRANCH  16  17
ENDBRANCH  11  16
ENDBRANCH   3  11
TORSDOF 6
ENDMDL
MODEL 8
REMARK VINA RESULT:      -6.0      2.654      5.470
REMARK  Name = 
REMARK  10 active torsions:
REMARK  status: ('A' for Active; 'I' for Inactive)
REMARK    1  A    between atoms: C_1  and  C_2
REMARK    2  A    between atoms: C_6  and  C_7
REMARK    3  A    between atoms: N_9  and  C_10
REMARK    4  A    between atoms: C_10  and  C_11
REMARK    5  A    between atoms: C_10  and  C_14
REMARK    6  A    between atoms: C_11  and  C_12
REMARK    7  A    between atoms: C_12  and  O_13
REMARK    8  A    between atoms: C_14  and  C_15
REMARK    9  A    between atoms: C_14  and  C_16
REMARK   10  A    between atoms: C_14  and  C_17
REMARK                            x       y       z     vdW  Elec       q    Type
REMARK                         _______ _______ _______ _____ _____    ______ ____
ROOT
ATOM      1  C   UNL     1       4.182   4.014  17.921  0.00  0.00    +0.000 C 
ATOM      2  O   UNL     1       3.578   3.365  17.070  0.00  0.00    +0.000 OA
ATOM      3  N   UNL     1       4.011   3.768  19.272  0.00  0.00    +0.000 N 
ATOM      4  H   UNL     1       4.612   4.297  19.888  0.00  0.00    +0.000 HD
ENDROOT
BRANCH   1  10
ATOM      5  C   UNL     1       3.628   7.148  17.653  0.00  0.00    +0.000 C 
ATOM      6  C   UNL     1       4.938   6.445  17.489  0.00  0.00    +0.000 A 
ATOM      7  C   UNL     1       6.157   7.139  17.177  0.00  0.00    +0.000 A 
ATOM      8  C   UNL     1       7.238   6.300  17.072  0.00  0.00    +0.000 A 
ATOM      9  S   UNL     1       6.809   4.679  17.345  0.00  0.00    +0.000 S 
ATOM     10  C   UNL     1       5.151   5.071  17.613  0.00  0.00    +0.000 A 
ENDBRANCH   1  10
BRANCH   3  11
ATOM     11  C   UNL     1       3.166   2.723  19.858  0.00  0.00    +0.000 C 
BRANCH  11  12
ATOM     12  C   UNL     1       1.748   3.316  20.230  0.00  0.00    +0.000 C 
ATOM     13  C   UNL     1       0.704   2.901  19.169  0.00  0.00    +0.000 C 
ATOM     14  C   UNL     1       1.253   2.773  21.588  0.00  0.00    +0.000 C 
ATOM     15  C   UNL     1       1.756   4.859  20.313  0.00  0.00    +0.000 C 
ENDBRANCH  11  12
BRANCH  11  16
ATOM     16  C   UNL     1       3.880   2.078  21.066  0.00  0.00    +0.000 C 
BRANCH  16  17
ATOM     17  C   UNL     1       5.181   1.354  20.734  0.00  0.00    +0.000 C 
BRANCH  17  18
ATOM     18  O   UNL     1       5.860   1.045  21.951  0.00  0.00    +0.000 OA
ATOM     19  H   UNL     1       6.805   0.965  21.746  0.00  0.00    +0.000 HD
ENDBRANCH  17  18
ENDBRANCH  16  17
ENDBRANCH  11  16
ENDBRANCH   3  11
TORSDOF 6
ENDMDL
MODEL 9
REMARK VINA RESULT:      -6.0      2.485      5.462
REMARK  Name = 
REMARK  10 active torsions:
REMARK  status: ('A' for Active; 'I' for Inactive)
REMARK    1  A    between atoms: C_1  and  C_2
REMARK    2  A    between atoms: C_6  and  C_7
REMARK    3  A    between atoms: N_9  and  C_10
REMARK    4  A    between atoms: C_10  and  C_11
REMARK    5  A    between atoms: C_10  and  C_14
REMARK    6  A    between atoms: C_11  and  C_12
REMARK    7  A    between atoms: C_12  and  O_13
REMARK    8  A    between atoms: C_14  and  C_15
REMARK    9  A    between atoms: C_14  and  C_16
REMARK   10  A    between atoms: C_14  and  C_17
REMARK                            x       y       z     vdW  Elec       q    Type
REMARK                         _______ _______ _______ _____ _____    ______ ____
ROOT
ATOM      1  C   UNL     1       5.008   4.326  18.002  0.00  0.00    +0.000 C 
ATOM      2  O   UNL     1       4.755   3.589  17.052  0.00  0.00    +0.000 OA
ATOM      3  N   UNL     1       4.380   4.169  19.225  0.00  0.00    +0.000 N 
ATOM      4  H   UNL     1       4.716   4.770  19.965  0.00  0.00    +0.000 HD
ENDROOT
BRANCH   1  10
ATOM      5  C   UNL     1       5.195   6.725  15.902  0.00  0.00    +0.000 C 
ATOM      6  C   UNL     1       6.106   6.463  17.058  0.00  0.00    +0.000 A 
ATOM      7  C   UNL     1       7.227   7.308  17.369  0.00  0.00    +0.000 A 
ATOM      8  C   UNL     1       7.928   6.883  18.470  0.00  0.00    +0.000 A 
ATOM      9  S   UNL     1       7.257   5.475  19.142  0.00  0.00    +0.000 S 
ATOM     10  C   UNL     1       6.000   5.405  17.962  0.00  0.00    +0.000 A 
ENDBRANCH   1  10
BRANCH   3  11
ATOM     11  C   UNL     1       3.406   3.127  19.567  0.00  0.00    +0.000 C 
BRANCH  11  12
ATOM     12  C   UNL     1       1.968   3.763  19.738  0.00  0.00    +0.000 C 
ATOM     13  C   UNL     1       1.213   3.064  20.891  0.00  0.00    +0.000 C 
ATOM     14  C   UNL     1       2.058   5.262  20.098  0.00  0.00    +0.000 C 
ATOM     15  C   UNL     1       1.110   3.635  18.459  0.00  0.00    +0.000 C 
ENDBRANCH  11  12
BRANCH  11  16
ATOM     16  C   UNL     1       3.872   2.356  20.821  0.00  0.00    +0.000 C 
BRANCH  16  17
ATOM     17  C   UNL     1       5.059   1.424  20.601  0.00  0.00    +0.000 C 
BRANCH  17  18
ATOM     18  O   UNL     1       5.702   1.194  21.854  0.00  0.00    +0.000 OA
ATOM     19  H   UNL     1       6.658   1.157  21.689  0.00  0.00    +0.000 HD
ENDBRANCH  17  18
ENDBRANCH  16  17
ENDBRANCH  11  16
ENDBRANCH   3  11
TORSDOF 6
ENDMDL
