MODEL 1
REMARK VINA RESULT:      -6.5      0.000      0.000
REMARK  Name = 
REMARK  4 active torsions:
REMARK  status: ('A' for Active; 'I' for Inactive)
REMARK    1  A    between atoms: C_4  and  C_5
REMARK    2  A    between atoms: C_10  and  N_11
REMARK    3  A    between atoms: N_11  and  C_12
REMARK    4  A    between atoms: C_12  and  C_13
REMARK                            x       y       z     vdW  Elec       q    Type
REMARK                         _______ _______ _______ _____ _____    ______ ____
ROOT
ATOM      1  C   UNL     1       4.317   5.829  17.364  0.00  0.00    +0.000 A 
ATOM      2  C   UNL     1       5.555   6.447  17.064  0.00  0.00    +0.000 A 
ATOM      3  C   UNL     1       6.601   5.759  16.449  0.00  0.00    +0.000 A 
ATOM      4  C   UNL     1       6.452   4.415  16.163  0.00  0.00    +0.000 A 
ATOM      5  C   UNL     1       5.245   3.777  16.451  0.00  0.00    +0.000 A 
ATOM      6  C   UNL     1       4.131   4.476  16.974  0.00  0.00    +0.000 A 
ENDROOT
BRANCH   1  10
ATOM      7  C   UNL     1       1.984   8.523  18.646  0.00  0.00    +0.000 A 
ATOM      8  C   UNL     1       1.881   7.756  19.781  0.00  0.00    +0.000 A 
ATOM      9  S   UNL     1       2.763   6.299  19.651  0.00  0.00    +0.000 S 
ATOM     10  C   UNL     1       3.316   6.673  18.067  0.00  0.00    +0.000 A 
ATOM     11  C   UNL     1       2.783   7.887  17.653  0.00  0.00    +0.000 A 
ENDBRANCH   1  10
BRANCH   6  12
ATOM     12  N   UNL     1       2.904   3.785  17.166  0.00  0.00    +0.000 N 
ATOM     13  H   UNL     1       2.388   3.731  16.285  0.00  0.00    +0.000 HD
BRANCH  12  14
ATOM     14  C   UNL     1       3.022   2.468  17.813  0.00  0.00    +0.000 C 
BRANCH  14  15
ATOM     15  C   UNL     1       2.592   2.509  19.270  0.00  0.00    +0.000 C 
ATOM     16  N   UNL     1       3.482   2.646  20.224  0.00  0.00    +0.000 NA
ATOM     17  C   UNL     1       2.678   2.670  21.472  0.00  0.00    +0.000 C 
ATOM     18  C   UNL     1       1.231   2.927  21.038  0.00  0.00    +0.000 C 
ATOM     19  N   UNL     1       1.272   2.477  19.664  0.00  0.00    +0.000 N 
ATOM     20  H   UNL     1       0.596   2.851  19.006  0.00  0.00    +0.000 HD
ENDBRANCH  14  15
ENDBRANCH  12  14
ENDBRANCH   6  12
TORSDOF 4
ENDMDL
MODEL 2
REMARK VINA RESULT:      -6.5      2.669      4.945
REMARK  Name = 
REMARK  4 active torsions:
REMARK  status: ('A' for Active; 'I' for Inactive)
REMARK    1  A    between atoms: C_4  and  C_5
REMARK    2  A    between atoms: C_10  and  N_11
REMARK    3  A    between atoms: N_11  and  C_12
REMARK    4  A    between atoms: C_12  and  C_13
REMARK                            x       y       z     vdW  Elec       q    Type
REMARK                         _______ _______ _______ _____ _____    ______ ____
ROOT
ATOM      1  C   UNL     1       3.635   4.631  17.642  0.00  0.00    +0.000 A 
ATOM      2  C   UNL     1       4.546   3.878  16.861  0.00  0.00    +0.000 A 
ATOM      3  C   UNL     1       5.459   4.479  15.996  0.00  0.00    +0.000 A 
ATOM      4  C   UNL     1       5.450   5.853  15.849  0.00  0.00    +0.000 A 
ATOM      5  C   UNL     1       4.561   6.622  16.602  0.00  0.00    +0.000 A 
ATOM      6  C   UNL     1       3.701   6.048  17.567  0.00  0.00    +0.000 A 
ENDROOT
BRANCH   1  10
ATOM      7  C   UNL     1       0.693   2.881  19.262  0.00  0.00    +0.000 A 
ATOM      8  C   UNL     1       1.489   2.788  20.377  0.00  0.00    +0.000 A 
ATOM      9  S   UNL     1       3.051   3.422  20.104  0.00  0.00    +0.000 S 
ATOM     10  C   UNL     1       2.688   3.851  18.479  0.00  0.00    +0.000 A 
ATOM     11  C   UNL     1       1.392   3.463  18.165  0.00  0.00    +0.000 A 
ENDBRANCH   1  10
BRANCH   6  12
ATOM     12  N   UNL     1       2.880   6.896  18.359  0.00  0.00    +0.000 N 
ATOM     13  H   UNL     1       3.185   6.872  19.334  0.00  0.00    +0.000 HD
BRANCH  12  14
ATOM     14  C   UNL     1       2.741   8.275  17.862  0.00  0.00    +0.000 C 
BRANCH  14  15
ATOM     15  C   UNL     1       1.589   9.007  18.530  0.00  0.00    +0.000 C 
ATOM     16  N   UNL     1       1.381   8.887  19.820  0.00  0.00    +0.000 NA
ATOM     17  C   UNL     1       0.208   9.758  20.083  0.00  0.00    +0.000 C 
ATOM     18  C   UNL     1       0.066  10.659  18.853  0.00  0.00    +0.000 C 
ATOM     19  N   UNL     1       0.757   9.873  17.854  0.00  0.00    +0.000 N 
ATOM     20  H   UNL     1       1.156  10.344  17.049  0.00  0.00    +0.000 HD
ENDBRANCH  14  15
ENDBRANCH  12  14
ENDBRANCH   6  12
TORSDOF 4
ENDMDL
MODEL 3
REMARK VINA RESULT:      -6.4      2.973      5.422
REMARK  Name = 
REMARK  4 active torsions:
REMARK  status: ('A' for Active; 'I' for Inactive)
REMARK    1  A    between atoms: C_4  and  C_5
REMARK    2  A    between atoms: C_10  and  N_11
REMARK    3  A    between atoms: N_11  and  C_12
REMARK    4  A    between atoms: C_12  and  C_13
REMARK                            x       y       z     vdW  Elec       q    Type
REMARK                         _______ _______ _______ _____ _____    ______ ____
ROOT
ATOM      1  C   UNL     1       2.994   4.521  18.764  0.00  0.00    +0.000 A 
ATOM      2  C   UNL     1       2.546   3.294  18.218  0.00  0.00    +0.000 A 
ATOM      3  C   UNL     1       1.436   2.616  18.721  0.00  0.00    +0.000 A 
ATOM      4  C   UNL     1       0.773   3.126  19.821  0.00  0.00    +0.000 A 
ATOM      5  C   UNL     1       1.193   4.332  20.384  0.00  0.00    +0.000 A 
ATOM      6  C   UNL     1       2.246   5.095  19.828  0.00  0.00    +0.000 A 
ENDROOT
BRANCH   1  10
ATOM      7  C   UNL     1       5.720   5.947  16.556  0.00  0.00    +0.000 A 
ATOM      8  C   UNL     1       6.573   5.668  17.597  0.00  0.00    +0.000 A 
ATOM      9  S   UNL     1       5.745   5.029  18.948  0.00  0.00    +0.000 S 
ATOM     10  C   UNL     1       4.221   5.100  18.157  0.00  0.00    +0.000 A 
ATOM     11  C   UNL     1       4.368   5.648  16.890  0.00  0.00    +0.000 A 
ENDBRANCH   1  10
BRANCH   6  12
ATOM     12  N   UNL     1       2.569   6.355  20.399  0.00  0.00    +0.000 N 
ATOM     13  H   UNL     1       3.575   6.415  20.574  0.00  0.00    +0.000 HD
BRANCH  12  14
ATOM     14  C   UNL     1       2.071   7.526  19.659  0.00  0.00    +0.000 C 
BRANCH  14  15
ATOM     15  C   UNL     1       1.452   8.561  20.582  0.00  0.00    +0.000 C 
ATOM     16  N   UNL     1       0.735   9.546  20.094  0.00  0.00    +0.000 NA
ATOM     17  C   UNL     1       0.295  10.305  21.291  0.00  0.00    +0.000 C 
ATOM     18  C   UNL     1       0.533   9.381  22.489  0.00  0.00    +0.000 C 
ATOM     19  N   UNL     1       1.543   8.493  21.955  0.00  0.00    +0.000 N 
ATOM     20  H   UNL     1       1.639   7.565  22.354  0.00  0.00    +0.000 HD
ENDBRANCH  14  15
ENDBRANCH  12  14
ENDBRANCH   6  12
TORSDOF 4
ENDMDL
MODEL 4
REMARK VINA RESULT:      -6.4      2.591      4.595
REMARK  Name = 
REMARK  4 active torsions:
REMARK  status: ('A' for Active; 'I' for Inactive)
REMARK    1  A    between atoms: C_4  and  C_5
REMARK    2  A    between atoms: C_10  and  N_11
REMARK    3  A    between atoms: N_11  and  C_12
REMARK    4  A    between atoms: C_12  and  C_13
REMARK                            x       y       z     vdW  Elec       q    Type
REMARK                         _______ _______ _______ _____ _____    ______ ____
ROOT
ATOM      1  C   UNL     1       3.781   4.512  17.474  0.00  0.00    +0.000 A 
ATOM      2  C   UNL     1       4.482   3.841  16.443  0.00  0.00    +0.000 A 
ATOM      3  C   UNL     1       5.347   4.507  15.576  0.00  0.00    +0.000 A 
ATOM      4  C   UNL     1       5.494   5.877  15.685  0.00  0.00    +0.000 A 
ATOM      5  C   UNL     1       4.813   6.566  16.689  0.00  0.00    +0.000 A 
ATOM      6  C   UNL     1       4.016   5.902  17.650  0.00  0.00    +0.000 A 
ENDROOT
BRANCH   1  10
ATOM      7  C   UNL     1       0.871   2.818  19.208  0.00  0.00    +0.000 A 
ATOM      8  C   UNL     1       1.805   2.346  20.099  0.00  0.00    +0.000 A 
ATOM      9  S   UNL     1       3.390   2.816  19.673  0.00  0.00    +0.000 S 
ATOM     10  C   UNL     1       2.856   3.680  18.286  0.00  0.00    +0.000 A 
ATOM     11  C   UNL     1       1.479   3.558  18.153  0.00  0.00    +0.000 A 
ENDBRANCH   1  10
BRANCH   6  12
ATOM     12  N   UNL     1       3.416   6.654  18.696  0.00  0.00    +0.000 N 
ATOM     13  H   UNL     1       4.137   7.068  19.291  0.00  0.00    +0.000 HD
BRANCH  12  14
ATOM     14  C   UNL     1       2.424   7.651  18.262  0.00  0.00    +0.000 C 
BRANCH  14  15
ATOM     15  C   UNL     1       1.787   8.370  19.439  0.00  0.00    +0.000 C 
ATOM     16  N   UNL     1       1.105   9.476  19.255  0.00  0.00    +0.000 NA
ATOM     17  C   UNL     1       0.632   9.843  20.614  0.00  0.00    +0.000 C 
ATOM     18  C   UNL     1       0.811   8.590  21.477  0.00  0.00    +0.000 C 
ATOM     19  N   UNL     1       1.825   7.882  20.727  0.00  0.00    +0.000 N 
ATOM     20  H   UNL     1       1.892   6.874  20.825  0.00  0.00    +0.000 HD
ENDBRANCH  14  15
ENDBRANCH  12  14
ENDBRANCH   6  12
TORSDOF 4
ENDMDL
MODEL 5
REMARK VINA RESULT:      -6.4      2.951      5.465
REMARK  Name = 
REMARK  4 active torsions:
REMARK  status: ('A' for Active; 'I' for Inactive)
REMARK    1  A    between atoms: C_4  and  C_5
REMARK    2  A    between atoms: C_10  and  N_11
REMARK    3  A    between atoms: N_11  and  C_12
REMARK    4  A    between atoms: C_12  and  C_13
REMARK                            x       y       z     vdW  Elec       q    Type
REMARK                         _______ _______ _______ _____ _____    ______ ____
ROOT
ATOM      1  C   UNL     1       4.107   4.888  17.984  0.00  0.00    +0.000 A 
ATOM      2  C   UNL     1       3.985   3.577  17.462  0.00  0.00    +0.000 A 
ATOM      3  C   UNL     1       2.763   2.907  17.413  0.00  0.00    +0.000 A 
ATOM      4  C   UNL     1       1.636   3.514  17.934  0.00  0.00    +0.000 A 
ATOM      5  C   UNL     1       1.726   4.804  18.459  0.00  0.00    +0.000 A 
ATOM      6  C   UNL     1       2.928   5.549  18.422  0.00  0.00    +0.000 A 
ENDROOT
BRANCH   1  10
ATOM      7  C   UNL     1       7.598   6.102  18.812  0.00  0.00    +0.000 A 
ATOM      8  C   UNL     1       7.498   6.862  17.672  0.00  0.00    +0.000 A 
ATOM      9  S   UNL     1       6.025   6.592  16.851  0.00  0.00    +0.000 S 
ATOM     10  C   UNL     1       5.481   5.454  18.019  0.00  0.00    +0.000 A 
ATOM     11  C   UNL     1       6.454   5.273  18.993  0.00  0.00    +0.000 A 
ENDBRANCH   1  10
BRANCH   6  12
ATOM     12  N   UNL     1       2.932   6.888  18.897  0.00  0.00    +0.000 N 
ATOM     13  H   UNL     1       3.815   7.092  19.369  0.00  0.00    +0.000 HD
BRANCH  12  14
ATOM     14  C   UNL     1       2.599   7.911  17.892  0.00  0.00    +0.000 C 
BRANCH  14  15
ATOM     15  C   UNL     1       1.758   9.032  18.478  0.00  0.00    +0.000 C 
ATOM     16  N   UNL     1       1.282   8.942  19.698  0.00  0.00    +0.000 NA
ATOM     17  C   UNL     1       0.557  10.221  19.903  0.00  0.00    +0.000 C 
ATOM     18  C   UNL     1       1.039  11.162  18.794  0.00  0.00    +0.000 C 
ATOM     19  N   UNL     1       1.508  10.211  17.810  0.00  0.00    +0.000 N 
ATOM     20  H   UNL     1       2.210  10.506  17.140  0.00  0.00    +0.000 HD
ENDBRANCH  14  15
ENDBRANCH  12  14
ENDBRANCH   6  12
TORSDOF 4
ENDMDL
MODEL 6
REMARK VINA RESULT:      -6.4      3.034      5.590
REMARK  Name = 
REMARK  4 active torsions:
REMARK  status: ('A' for Active; 'I' for Inactive)
REMARK    1  A    between atoms: C_4  and  C_5
REMARK    2  A    between atoms: C_10  and  N_11
REMARK    3  A    between atoms: N_11  and  C_12
REMARK    4  A    between atoms: C_12  and  C_13
REMARK                            x       y       z     vdW  Elec       q    Type
REMARK                         _______ _______ _______ _____ _____    ______ ____
ROOT
ATOM      1  C   UNL     1       4.160   5.381  17.842  0.00  0.00    +0.000 A 
ATOM      2  C   UNL     1       4.133   4.056  17.343  0.00  0.00    +0.000 A 
ATOM      3  C   UNL     1       2.946   3.339  17.198  0.00  0.00    +0.000 A 
ATOM      4  C   UNL     1       1.754   3.914  17.598  0.00  0.00    +0.000 A 
ATOM      5  C   UNL     1       1.749   5.217  18.097  0.00  0.00    +0.000 A 
ATOM      6  C   UNL     1       2.922   6.006  18.153  0.00  0.00    +0.000 A 
ENDROOT
BRANCH   1  10
ATOM      7  C   UNL     1       7.469   7.188  17.488  0.00  0.00    +0.000 A 
ATOM      8  C   UNL     1       7.868   6.468  18.587  0.00  0.00    +0.000 A 
ATOM      9  S   UNL     1       6.611   5.487  19.200  0.00  0.00    +0.000 S 
ATOM     10  C   UNL     1       5.503   5.999  17.989  0.00  0.00    +0.000 A 
ATOM     11  C   UNL     1       6.104   6.940  17.164  0.00  0.00    +0.000 A 
ENDBRANCH   1  10
BRANCH   6  12
ATOM     12  N   UNL     1       2.834   7.353  18.594  0.00  0.00    +0.000 N 
ATOM     13  H   UNL     1       3.748   7.681  18.913  0.00  0.00    +0.000 HD
BRANCH  12  14
ATOM     14  C   UNL     1       2.221   8.288  17.635  0.00  0.00    +0.000 C 
BRANCH  14  15
ATOM     15  C   UNL     1       1.698   9.541  18.317  0.00  0.00    +0.000 C 
ATOM     16  N   UNL     1       1.109   9.467  19.487  0.00  0.00    +0.000 NA
ATOM     17  C   UNL     1       0.777  10.876  19.818  0.00  0.00    +0.000 C 
ATOM     18  C   UNL     1       1.611  11.741  18.868  0.00  0.00    +0.000 C 
ATOM     19  N   UNL     1       1.867  10.805  17.796  0.00  0.00    +0.000 N 
ATOM     20  H   UNL     1       2.683  10.945  17.208  0.00  0.00    +0.000 HD
ENDBRANCH  14  15
ENDBRANCH  12  14
ENDBRANCH   6  12
TORSDOF 4
ENDMDL
MODEL 7
REMARK VINA RESULT:      -6.4      2.696      5.737
REMARK  Name = 
REMARK  4 active torsions:
REMARK  status: ('A' for Active; 'I' for Inactive)
REMARK    1  A    between atoms: C_4  and  C_5
REMARK    2  A    between atoms: C_10  and  N_11
REMARK    3  A    between atoms: N_11  and  C_12
REMARK    4  A    between atoms: C_12  and  C_13
REMARK                            x       y       z     vdW  Elec       q    Type
REMARK                         _______ _______ _______ _____ _____    ______ ____
ROOT
ATOM      1  C   UNL     1       3.199   4.264  18.874  0.00  0.00    +0.000 A 
ATOM      2  C   UNL     1       2.652   2.960  18.949  0.00  0.00    +0.000 A 
ATOM      3  C   UNL     1       1.552   2.659  19.750  0.00  0.00    +0.000 A 
ATOM      4  C   UNL     1       0.999   3.649  20.541  0.00  0.00    +0.000 A 
ATOM      5  C   UNL     1       1.519   4.943  20.492  0.00  0.00    +0.000 A 
ATOM      6  C   UNL     1       2.563   5.301  19.607  0.00  0.00    +0.000 A 
ENDROOT
BRANCH   1  10
ATOM      7  C   UNL     1       5.868   4.236  16.187  0.00  0.00    +0.000 A 
ATOM      8  C   UNL     1       6.733   4.626  17.181  0.00  0.00    +0.000 A 
ATOM      9  S   UNL     1       5.933   4.855  18.672  0.00  0.00    +0.000 S 
ATOM     10  C   UNL     1       4.404   4.421  18.018  0.00  0.00    +0.000 A 
ATOM     11  C   UNL     1       4.528   4.148  16.662  0.00  0.00    +0.000 A 
ENDBRANCH   1  10
BRANCH   6  12
ATOM     12  N   UNL     1       2.990   6.655  19.547  0.00  0.00    +0.000 N 
ATOM     13  H   UNL     1       4.001   6.713  19.689  0.00  0.00    +0.000 HD
BRANCH  12  14
ATOM     14  C   UNL     1       2.562   7.395  18.348  0.00  0.00    +0.000 C 
BRANCH  14  15
ATOM     15  C   UNL     1       1.804   8.663  18.702  0.00  0.00    +0.000 C 
ATOM     16  N   UNL     1       1.317   8.834  19.908  0.00  0.00    +0.000 NA
ATOM     17  C   UNL     1       0.688  10.178  19.860  0.00  0.00    +0.000 C 
ATOM     18  C   UNL     1       1.245  10.861  18.607  0.00  0.00    +0.000 C 
ATOM     19  N   UNL     1       1.647   9.713  17.824  0.00  0.00    +0.000 N 
ATOM     20  H   UNL     1       2.373   9.828  17.124  0.00  0.00    +0.000 HD
ENDBRANCH  14  15
ENDBRANCH  12  14
ENDBRANCH   6  12
TORSDOF 4
ENDMDL
MODEL 8
REMARK VINA RESULT:      -6.4      1.537      4.248
REMARK  Name = 
REMARK  4 active torsions:
REMARK  status: ('A' for Active; 'I' for Inactive)
REMARK    1  A    between atoms: C_4  and  C_5
REMARK    2  A    between atoms: C_10  and  N_11
REMARK    3  A    between atoms: N_11  and  C_12
REMARK    4  A    between atoms: C_12  and  C_13
REMARK                            x       y       z     vdW  Elec       q    Type
REMARK                         _______ _______ _______ _____ _____    ______ ____
ROOT
ATOM      1  C   UNL     1       3.043   7.058  18.272  0.00  0.00    +0.000 A 
ATOM      2  C   UNL     1       2.592   8.217  17.594  0.00  0.00    +0.000 A 
ATOM      3  C   UNL     1       1.750   9.151  18.197  0.00  0.00    +0.000 A 
ATOM      4  C   UNL     1       1.296   8.923  19.482  0.00  0.00    +0.000 A 
ATOM      5  C   UNL     1       1.720   7.788  20.174  0.00  0.00    +0.000 A 
ATOM      6  C   UNL     1       2.659   6.881  19.628  0.00  0.00    +0.000 A 
ENDROOT
BRANCH   1  10
ATOM      7  C   UNL     1       4.764   4.139  16.581  0.00  0.00    +0.000 A 
ATOM      8  C   UNL     1       5.795   5.014  16.338  0.00  0.00    +0.000 A 
ATOM      9  S   UNL     1       5.439   6.590  16.892  0.00  0.00    +0.000 S 
ATOM     10  C   UNL     1       3.893   6.128  17.484  0.00  0.00    +0.000 A 
ATOM     11  C   UNL     1       3.662   4.786  17.211  0.00  0.00    +0.000 A 
ENDBRANCH   1  10
BRANCH   6  12
ATOM     12  N   UNL     1       3.112   5.791  20.417  0.00  0.00    +0.000 N 
ATOM     13  H   UNL     1       3.746   6.123  21.147  0.00  0.00    +0.000 HD
BRANCH  12  14
ATOM     14  C   UNL     1       2.051   4.928  20.963  0.00  0.00    +0.000 C 
BRANCH  14  15
ATOM     15  C   UNL     1       1.866   3.664  20.141  0.00  0.00    +0.000 C 
ATOM     16  N   UNL     1       0.812   3.516  19.373  0.00  0.00    +0.000 NA
ATOM     17  C   UNL     1       1.011   2.193  18.730  0.00  0.00    +0.000 C 
ATOM     18  C   UNL     1       2.485   1.836  18.945  0.00  0.00    +0.000 C 
ATOM     19  N   UNL     1       2.801   2.653  20.097  0.00  0.00    +0.000 N 
ATOM     20  H   UNL     1       3.766   2.925  20.255  0.00  0.00    +0.000 HD
ENDBRANCH  14  15
ENDBRANCH  12  14
ENDBRANCH   6  12
TORSDOF 4
ENDMDL
MODEL 9
REMARK VINA RESULT:      -6.3      2.579      5.376
REMARK  Name = 
REMARK  4 active torsions:
REMARK  status: ('A' for Active; 'I' for Inactive)
REMARK    1  A    between atoms: C_4  and  C_5
REMARK    2  A    between atoms: C_10  and  N_11
REMARK    3  A    between atoms: N_11  and  C_12
REMARK    4  A    between atoms: C_12  and  C_13
REMARK                            x       y       z     vdW  Elec       q    Type
REMARK                         _______ _______ _______ _____ _____    ______ ____
ROOT
ATOM      1  C   UNL     1       3.595   3.771  18.581  0.00  0.00    +0.000 A 
ATOM      2  C   UNL     1       3.072   2.461  18.453  0.00  0.00    +0.000 A 
ATOM      3  C   UNL     1       2.004   2.007  19.226  0.00  0.00    +0.000 A 
ATOM      4  C   UNL     1       1.462   2.839  20.187  0.00  0.00    +0.000 A 
ATOM      5  C   UNL     1       1.959   4.134  20.340  0.00  0.00    +0.000 A 
ATOM      6  C   UNL     1       2.967   4.657  19.496  0.00  0.00    +0.000 A 
ENDROOT
BRANCH   1  10
ATOM      7  C   UNL     1       6.197   4.197  15.863  0.00  0.00    +0.000 A 
ATOM      8  C   UNL     1       7.059   4.538  16.878  0.00  0.00    +0.000 A 
ATOM      9  S   UNL     1       6.280   4.558  18.398  0.00  0.00    +0.000 S 
ATOM     10  C   UNL     1       4.767   4.095  17.726  0.00  0.00    +0.000 A 
ATOM     11  C   UNL     1       4.877   3.973  16.347  0.00  0.00    +0.000 A 
ENDBRANCH   1  10
BRANCH   6  12
ATOM     12  N   UNL     1       3.369   6.011  19.650  0.00  0.00    +0.000 N 
ATOM     13  H   UNL     1       4.379   6.096  19.519  0.00  0.00    +0.000 HD
BRANCH  12  14
ATOM     14  C   UNL     1       2.627   6.983  18.830  0.00  0.00    +0.000 C 
BRANCH  14  15
ATOM     15  C   UNL     1       1.899   8.009  19.682  0.00  0.00    +0.000 C 
ATOM     16  N   UNL     1       1.342   9.061  19.129  0.00  0.00    +0.000 NA
ATOM     17  C   UNL     1       0.722   9.785  20.267  0.00  0.00    +0.000 C 
ATOM     18  C   UNL     1       0.679   8.789  21.430  0.00  0.00    +0.000 C 
ATOM     19  N   UNL     1       1.723   7.867  21.041  0.00  0.00    +0.000 N 
ATOM     20  H   UNL     1       1.692   6.916  21.394  0.00  0.00    +0.000 HD
ENDBRANCH  14  15
ENDBRANCH  12  14
ENDBRANCH   6  12
TORSDOF 4
ENDMDL
