MODEL 1
REMARK VINA RESULT:      -8.2      0.000      0.000
REMARK  Name = 
REMARK  7 active torsions:
REMARK  status: ('A' for Active; 'I' for Inactive)
REMARK    1  A    between atoms: C_1  and  O_2
REMARK    2  A    between atoms: O_2  and  C_3
REMARK    3  A    between atoms: C_6  and  N_7
REMARK    4  A    between atoms: N_7  and  S_8
REMARK    5  A    between atoms: S_8  and  C_11
REMARK    6  A    between atoms: C_18  and  C_19
REMARK    7  A    between atoms: C_22  and  C_23
REMARK                            x       y       z     vdW  Elec       q    Type
REMARK                         _______ _______ _______ _____ _____    ______ ____
ROOT
ATOM      1  C   UNL     1       5.567   6.281  18.190  0.00  0.00    +0.000 A 
ATOM      2  C   UNL     1       4.559   6.862  17.413  0.00  0.00    +0.000 A 
ATOM      3  C   UNL     1       3.282   6.307  17.465  0.00  0.00    +0.000 A 
ATOM      4  C   UNL     1       3.066   5.220  18.319  0.00  0.00    +0.000 A 
ATOM      5  C   UNL     1       3.918   5.024  19.407  0.00  0.00    +0.000 A 
ATOM      6  C   UNL     1       5.244   5.428  19.255  0.00  0.00    +0.000 A 
ATOM      7  N   UNL     1       3.520   4.059  20.378  0.00  0.00    +0.000 N 
ATOM      8  C   UNL     1       2.235   4.239  20.950  0.00  0.00    +0.000 C 
ATOM      9  C   UNL     1       1.631   3.066  21.696  0.00  0.00    +0.000 C 
ATOM     10  O   UNL     1       1.586   5.283  20.861  0.00  0.00    +0.000 OA
ATOM     11  C   UNL     1       3.907   2.730  19.926  0.00  0.00    +0.000 C 
ATOM     12  C   UNL     1       3.011   2.281  18.757  0.00  0.00    +0.000 C 
ATOM     13  C   UNL     1       3.513   0.920  18.282  0.00  0.00    +0.000 C 
ATOM     14  S   UNL     1       2.780   3.553  17.388  0.00  0.00    +0.000 S 
ENDROOT
BRANCH   1  15
ATOM     15  S   UNL     1       7.266   6.526  17.729  0.00  0.00    +0.000 S 
ATOM     16  O   UNL     1       8.049   6.581  18.934  0.00  0.00    +0.000 OA
ATOM     17  O   UNL     1       7.319   7.586  16.741  0.00  0.00    +0.000 OA
BRANCH  15  18
ATOM     18  N   UNL     1       7.667   5.052  16.995  0.00  0.00    +0.000 N 
ATOM     19  H   UNL     1       8.557   4.665  17.300  0.00  0.00    +0.000 HD
BRANCH  18  23
ATOM     20  C   UNL     1       6.186   3.958  13.192  0.00  0.00    +0.000 A 
ATOM     21  C   UNL     1       7.305   4.792  13.296  0.00  0.00    +0.000 A 
ATOM     22  C   UNL     1       7.812   5.161  14.553  0.00  0.00    +0.000 A 
ATOM     23  C   UNL     1       7.181   4.713  15.707  0.00  0.00    +0.000 A 
ATOM     24  C   UNL     1       6.072   3.867  15.607  0.00  0.00    +0.000 A 
ATOM     25  C   UNL     1       5.566   3.503  14.360  0.00  0.00    +0.000 A 
BRANCH  20  27
ATOM     26  C   UNL     1       4.439   3.231  11.761  0.00  0.00    +0.000 C 
ATOM     27  O   UNL     1       5.779   3.686  11.918  0.00  0.00    +0.000 OA
ENDBRANCH  20  27
ENDBRANCH  18  23
ENDBRANCH  15  18
ENDBRANCH   1  15
TORSDOF 4
ENDMDL
MODEL 2
REMARK VINA RESULT:      -8.2      0.395      1.023
REMARK  Name = 
REMARK  7 active torsions:
REMARK  status: ('A' for Active; 'I' for Inactive)
REMARK    1  A    between atoms: C_1  and  O_2
REMARK    2  A    between atoms: O_2  and  C_3
REMARK    3  A    between atoms: C_6  and  N_7
REMARK    4  A    between atoms: N_7  and  S_8
REMARK    5  A    between atoms: S_8  and  C_11
REMARK    6  A    between atoms: C_18  and  C_19
REMARK    7  A    between atoms: C_22  and  C_23
REMARK                            x       y       z     vdW  Elec       q    Type
REMARK                         _______ _______ _______ _____ _____    ______ ____
ROOT
ATOM      1  C   UNL     1       5.637   6.329  18.231  0.00  0.00    +0.000 A 
ATOM      2  C   UNL     1       4.633   6.937  17.469  0.00  0.00    +0.000 A 
ATOM      3  C   UNL     1       3.350   6.398  17.516  0.00  0.00    +0.000 A 
ATOM      4  C   UNL     1       3.122   5.298  18.351  0.00  0.00    +0.000 A 
ATOM      5  C   UNL     1       3.977   5.071  19.432  0.00  0.00    +0.000 A 
ATOM      6  C   UNL     1       5.307   5.461  19.282  0.00  0.00    +0.000 A 
ATOM      7  N   UNL     1       3.570   4.094  20.387  0.00  0.00    +0.000 N 
ATOM      8  C   UNL     1       2.290   4.280  20.967  0.00  0.00    +0.000 C 
ATOM      9  C   UNL     1       1.674   3.101  21.694  0.00  0.00    +0.000 C 
ATOM     10  O   UNL     1       1.654   5.333  20.899  0.00  0.00    +0.000 OA
ATOM     11  C   UNL     1       3.938   2.768  19.909  0.00  0.00    +0.000 C 
ATOM     12  C   UNL     1       3.032   2.353  18.735  0.00  0.00    +0.000 C 
ATOM     13  C   UNL     1       3.515   0.994  18.234  0.00  0.00    +0.000 C 
ATOM     14  S   UNL     1       2.812   3.652  17.391  0.00  0.00    +0.000 S 
ENDROOT
BRANCH   1  15
ATOM     15  S   UNL     1       7.337   6.561  17.767  0.00  0.00    +0.000 S 
ATOM     16  O   UNL     1       8.123   6.605  18.971  0.00  0.00    +0.000 OA
ATOM     17  O   UNL     1       7.397   7.624  16.784  0.00  0.00    +0.000 OA
BRANCH  15  18
ATOM     18  N   UNL     1       7.723   5.086  17.027  0.00  0.00    +0.000 N 
ATOM     19  H   UNL     1       8.677   4.773  17.197  0.00  0.00    +0.000 HD
BRANCH  18  23
ATOM     20  C   UNL     1       5.790   3.894  13.463  0.00  0.00    +0.000 A 
ATOM     21  C   UNL     1       5.290   3.483  14.704  0.00  0.00    +0.000 A 
ATOM     22  C   UNL     1       5.919   3.874  15.898  0.00  0.00    +0.000 A 
ATOM     23  C   UNL     1       7.065   4.659  15.845  0.00  0.00    +0.000 A 
ATOM     24  C   UNL     1       7.558   5.085  14.608  0.00  0.00    +0.000 A 
ATOM     25  C   UNL     1       6.937   4.694  13.424  0.00  0.00    +0.000 A 
BRANCH  20  27
ATOM     26  C   UNL     1       5.758   2.454  11.578  0.00  0.00    +0.000 C 
ATOM     27  O   UNL     1       5.103   3.434  12.378  0.00  0.00    +0.000 OA
ENDBRANCH  20  27
ENDBRANCH  18  23
ENDBRANCH  15  18
ENDBRANCH   1  15
TORSDOF 4
ENDMDL
MODEL 3
REMARK VINA RESULT:      -6.6      3.376      5.385
REMARK  Name = 
REMARK  7 active torsions:
REMARK  status: ('A' for Active; 'I' for Inactive)
REMARK    1  A    between atoms: C_1  and  O_2
REMARK    2  A    between atoms: O_2  and  C_3
REMARK    3  A    between atoms: C_6  and  N_7
REMARK    4  A    between atoms: N_7  and  S_8
REMARK    5  A    between atoms: S_8  and  C_11
REMARK    6  A    between atoms: C_18  and  C_19
REMARK    7  A    between atoms: C_22  and  C_23
REMARK                            x       y       z     vdW  Elec       q    Type
REMARK                         _______ _______ _______ _____ _____    ______ ____
ROOT
ATOM      1  C   UNL     1       5.681   6.418  18.179  0.00  0.00    +0.000 A 
ATOM      2  C   UNL     1       4.677   6.998  17.396  0.00  0.00    +0.000 A 
ATOM      3  C   UNL     1       3.403   6.434  17.433  0.00  0.00    +0.000 A 
ATOM      4  C   UNL     1       3.186   5.341  18.278  0.00  0.00    +0.000 A 
ATOM      5  C   UNL     1       4.029   5.144  19.374  0.00  0.00    +0.000 A 
ATOM      6  C   UNL     1       5.354   5.557  19.236  0.00  0.00    +0.000 A 
ATOM      7  N   UNL     1       3.629   4.171  20.336  0.00  0.00    +0.000 N 
ATOM      8  C   UNL     1       2.337   4.339  20.896  0.00  0.00    +0.000 C 
ATOM      9  C   UNL     1       1.734   3.158  21.630  0.00  0.00    +0.000 C 
ATOM     10  O   UNL     1       1.682   5.379  20.806  0.00  0.00    +0.000 OA
ATOM     11  C   UNL     1       4.028   2.846  19.880  0.00  0.00    +0.000 C 
ATOM     12  C   UNL     1       3.146   2.399  18.699  0.00  0.00    +0.000 C 
ATOM     13  C   UNL     1       3.662   1.044  18.221  0.00  0.00    +0.000 C 
ATOM     14  S   UNL     1       2.920   3.677  17.336  0.00  0.00    +0.000 S 
ENDROOT
BRANCH   1  15
ATOM     15  S   UNL     1       7.383   6.677  17.735  0.00  0.00    +0.000 S 
ATOM     16  O   UNL     1       7.673   5.853  16.592  0.00  0.00    +0.000 OA
ATOM     17  O   UNL     1       8.182   6.606  18.942  0.00  0.00    +0.000 OA
BRANCH  15  18
ATOM     18  N   UNL     1       7.377   8.270  17.157  0.00  0.00    +0.000 N 
ATOM     19  H   UNL     1       7.252   8.345  16.149  0.00  0.00    +0.000 HD
BRANCH  18  23
ATOM     20  C   UNL     1       9.434  11.403  19.108  0.00  0.00    +0.000 A 
ATOM     21  C   UNL     1       9.522  10.094  19.597  0.00  0.00    +0.000 A 
ATOM     22  C   UNL     1       8.847   9.041  18.957  0.00  0.00    +0.000 A 
ATOM     23  C   UNL     1       8.064   9.305  17.840  0.00  0.00    +0.000 A 
ATOM     24  C   UNL     1       7.987  10.608  17.339  0.00  0.00    +0.000 A 
ATOM     25  C   UNL     1       8.653  11.654  17.975  0.00  0.00    +0.000 A 
BRANCH  20  27
ATOM     26  C   UNL     1      11.463  12.020  20.170  0.00  0.00    +0.000 C 
ATOM     27  O   UNL     1      10.118  12.339  19.826  0.00  0.00    +0.000 OA
ENDBRANCH  20  27
ENDBRANCH  18  23
ENDBRANCH  15  18
ENDBRANCH   1  15
TORSDOF 4
ENDMDL
MODEL 4
REMARK VINA RESULT:      -6.6      1.373      1.758
REMARK  Name = 
REMARK  7 active torsions:
REMARK  status: ('A' for Active; 'I' for Inactive)
REMARK    1  A    between atoms: C_1  and  O_2
REMARK    2  A    between atoms: O_2  and  C_3
REMARK    3  A    between atoms: C_6  and  N_7
REMARK    4  A    between atoms: N_7  and  S_8
REMARK    5  A    between atoms: S_8  and  C_11
REMARK    6  A    between atoms: C_18  and  C_19
REMARK    7  A    between atoms: C_22  and  C_23
REMARK                            x       y       z     vdW  Elec       q    Type
REMARK                         _______ _______ _______ _____ _____    ______ ____
ROOT
ATOM      1  C   UNL     1       5.354   5.914  17.718  0.00  0.00    +0.000 A 
ATOM      2  C   UNL     1       4.428   6.938  17.492  0.00  0.00    +0.000 A 
ATOM      3  C   UNL     1       3.126   6.764  17.955  0.00  0.00    +0.000 A 
ATOM      4  C   UNL     1       2.821   5.591  18.654  0.00  0.00    +0.000 A 
ATOM      5  C   UNL     1       3.848   4.882  19.282  0.00  0.00    +0.000 A 
ATOM      6  C   UNL     1       5.108   4.930  18.686  0.00  0.00    +0.000 A 
ATOM      7  N   UNL     1       3.465   3.841  20.177  0.00  0.00    +0.000 N 
ATOM      8  C   UNL     1       2.583   4.207  21.225  0.00  0.00    +0.000 C 
ATOM      9  C   UNL     1       1.873   3.091  21.964  0.00  0.00    +0.000 C 
ATOM     10  O   UNL     1       2.355   5.374  21.551  0.00  0.00    +0.000 OA
ATOM     11  C   UNL     1       3.187   2.629  19.418  0.00  0.00    +0.000 C 
ATOM     12  C   UNL     1       1.867   2.777  18.639  0.00  0.00    +0.000 C 
ATOM     13  C   UNL     1       1.673   1.510  17.809  0.00  0.00    +0.000 C 
ATOM     14  S   UNL     1       1.680   4.382  17.674  0.00  0.00    +0.000 S 
ENDROOT
BRANCH   1  15
ATOM     15  S   UNL     1       6.786   5.796  16.672  0.00  0.00    +0.000 S 
ATOM     16  O   UNL     1       7.240   4.431  16.695  0.00  0.00    +0.000 OA
ATOM     17  O   UNL     1       7.675   6.895  16.994  0.00  0.00    +0.000 OA
BRANCH  15  18
ATOM     18  N   UNL     1       6.135   6.032  15.125  0.00  0.00    +0.000 N 
ATOM     19  H   UNL     1       5.305   6.620  15.109  0.00  0.00    +0.000 HD
BRANCH  18  23
ATOM     20  C   UNL     1       6.711   3.237  12.008  0.00  0.00    +0.000 A 
ATOM     21  C   UNL     1       5.571   3.161  12.817  0.00  0.00    +0.000 A 
ATOM     22  C   UNL     1       5.364   4.085  13.855  0.00  0.00    +0.000 A 
ATOM     23  C   UNL     1       6.312   5.072  14.096  0.00  0.00    +0.000 A 
ATOM     24  C   UNL     1       7.444   5.160  13.280  0.00  0.00    +0.000 A 
ATOM     25  C   UNL     1       7.653   4.242  12.253  0.00  0.00    +0.000 A 
BRANCH  20  27
ATOM     26  C   UNL     1       6.110   1.056  11.294  0.00  0.00    +0.000 C 
ATOM     27  O   UNL     1       6.808   2.273  11.048  0.00  0.00    +0.000 OA
ENDBRANCH  20  27
ENDBRANCH  18  23
ENDBRANCH  15  18
ENDBRANCH   1  15
TORSDOF 4
ENDMDL
MODEL 5
REMARK VINA RESULT:      -6.4      3.407      5.329
REMARK  Name = 
REMARK  7 active torsions:
REMARK  status: ('A' for Active; 'I' for Inactive)
REMARK    1  A    between atoms: C_1  and  O_2
REMARK    2  A    between atoms: O_2  and  C_3
REMARK    3  A    between atoms: C_6  and  N_7
REMARK    4  A    between atoms: N_7  and  S_8
REMARK    5  A    between atoms: S_8  and  C_11
REMARK    6  A    between atoms: C_18  and  C_19
REMARK    7  A    between atoms: C_22  and  C_23
REMARK                            x       y       z     vdW  Elec       q    Type
REMARK                         _______ _______ _______ _____ _____    ______ ____
ROOT
ATOM      1  C   UNL     1       5.682   6.425  18.175  0.00  0.00    +0.000 A 
ATOM      2  C   UNL     1       4.670   7.001  17.398  0.00  0.00    +0.000 A 
ATOM      3  C   UNL     1       3.403   6.423  17.432  0.00  0.00    +0.000 A 
ATOM      4  C   UNL     1       3.198   5.320  18.267  0.00  0.00    +0.000 A 
ATOM      5  C   UNL     1       4.045   5.123  19.360  0.00  0.00    +0.000 A 
ATOM      6  C   UNL     1       5.365   5.552  19.225  0.00  0.00    +0.000 A 
ATOM      7  N   UNL     1       3.656   4.137  20.314  0.00  0.00    +0.000 N 
ATOM      8  C   UNL     1       2.363   4.286  20.877  0.00  0.00    +0.000 C 
ATOM      9  C   UNL     1       1.774   3.092  21.601  0.00  0.00    +0.000 C 
ATOM     10  O   UNL     1       1.697   5.320  20.797  0.00  0.00    +0.000 OA
ATOM     11  C   UNL     1       4.069   2.821  19.846  0.00  0.00    +0.000 C 
ATOM     12  C   UNL     1       3.191   2.374  18.662  0.00  0.00    +0.000 C 
ATOM     13  C   UNL     1       3.721   1.029  18.172  0.00  0.00    +0.000 C 
ATOM     14  S   UNL     1       2.949   3.662  17.311  0.00  0.00    +0.000 S 
ENDROOT
BRANCH   1  15
ATOM     15  S   UNL     1       7.380   6.707  17.732  0.00  0.00    +0.000 S 
ATOM     16  O   UNL     1       7.683   5.880  16.594  0.00  0.00    +0.000 OA
ATOM     17  O   UNL     1       8.178   6.654  18.941  0.00  0.00    +0.000 OA
BRANCH  15  18
ATOM     18  N   UNL     1       7.351   8.296  17.144  0.00  0.00    +0.000 N 
ATOM     19  H   UNL     1       7.185   8.365  16.142  0.00  0.00    +0.000 HD
BRANCH  18  23
ATOM     20  C   UNL     1       9.477  11.344  19.154  0.00  0.00    +0.000 A 
ATOM     21  C   UNL     1       8.712  11.651  18.023  0.00  0.00    +0.000 A 
ATOM     22  C   UNL     1       7.997  10.649  17.346  0.00  0.00    +0.000 A 
ATOM     23  C   UNL     1       8.068   9.335  17.791  0.00  0.00    +0.000 A 
ATOM     24  C   UNL     1       8.818   9.027  18.930  0.00  0.00    +0.000 A 
ATOM     25  C   UNL     1       9.531  10.020  19.600  0.00  0.00    +0.000 A 
BRANCH  20  27
ATOM     26  C   UNL     1      10.545  13.437  18.825  0.00  0.00    +0.000 C 
ATOM     27  O   UNL     1      10.140  12.399  19.711  0.00  0.00    +0.000 OA
ENDBRANCH  20  27
ENDBRANCH  18  23
ENDBRANCH  15  18
ENDBRANCH   1  15
TORSDOF 4
ENDMDL
MODEL 6
REMARK VINA RESULT:      -6.3      6.676      9.128
REMARK  Name = 
REMARK  7 active torsions:
REMARK  status: ('A' for Active; 'I' for Inactive)
REMARK    1  A    between atoms: C_1  and  O_2
REMARK    2  A    between atoms: O_2  and  C_3
REMARK    3  A    between atoms: C_6  and  N_7
REMARK    4  A    between atoms: N_7  and  S_8
REMARK    5  A    between atoms: S_8  and  C_11
REMARK    6  A    between atoms: C_18  and  C_19
REMARK    7  A    between atoms: C_22  and  C_23
REMARK                            x       y       z     vdW  Elec       q    Type
REMARK                         _______ _______ _______ _____ _____    ______ ____
ROOT
ATOM      1  C   UNL     1       0.414  10.186  20.649  0.00  0.00    +0.000 A 
ATOM      2  C   UNL     1      -0.434  10.107  19.539  0.00  0.00    +0.000 A 
ATOM      3  C   UNL     1      -0.744  11.283  18.860  0.00  0.00    +0.000 A 
ATOM      4  C   UNL     1      -0.163  12.477  19.301  0.00  0.00    +0.000 A 
ATOM      5  C   UNL     1       1.023  12.430  20.036  0.00  0.00    +0.000 A 
ATOM      6  C   UNL     1       1.220  11.316  20.851  0.00  0.00    +0.000 A 
ATOM      7  N   UNL     1       1.703  13.664  20.252  0.00  0.00    +0.000 N 
ATOM      8  C   UNL     1       2.024  14.414  19.092  0.00  0.00    +0.000 C 
ATOM      9  C   UNL     1       2.407  15.868  19.283  0.00  0.00    +0.000 C 
ATOM     10  O   UNL     1       1.993  13.954  17.949  0.00  0.00    +0.000 OA
ATOM     11  C   UNL     1       1.108  14.352  21.389  0.00  0.00    +0.000 C 
ATOM     12  C   UNL     1      -0.281  14.902  21.015  0.00  0.00    +0.000 C 
ATOM     13  C   UNL     1      -0.880  15.541  22.265  0.00  0.00    +0.000 C 
ATOM     14  S   UNL     1      -1.416  13.685  20.136  0.00  0.00    +0.000 S 
ENDROOT
BRANCH   1  15
ATOM     15  S   UNL     1       0.361   8.899  21.873  0.00  0.00    +0.000 S 
ATOM     16  O   UNL     1      -0.695   7.990  21.515  0.00  0.00    +0.000 OA
ATOM     17  O   UNL     1       0.417   9.517  23.183  0.00  0.00    +0.000 OA
BRANCH  15  18
ATOM     18  N   UNL     1       1.802   8.055  21.586  0.00  0.00    +0.000 N 
ATOM     19  H   UNL     1       2.640   8.549  21.888  0.00  0.00    +0.000 HD
BRANCH  18  23
ATOM     20  C   UNL     1       2.143   5.180  18.509  0.00  0.00    +0.000 A 
ATOM     21  C   UNL     1       2.396   6.530  18.239  0.00  0.00    +0.000 A 
ATOM     22  C   UNL     1       2.291   7.497  19.252  0.00  0.00    +0.000 A 
ATOM     23  C   UNL     1       1.908   7.113  20.532  0.00  0.00    +0.000 A 
ATOM     24  C   UNL     1       1.670   5.763  20.809  0.00  0.00    +0.000 A 
ATOM     25  C   UNL     1       1.771   4.804  19.803  0.00  0.00    +0.000 A 
BRANCH  20  27
ATOM     26  C   UNL     1       3.080   3.192  17.618  0.00  0.00    +0.000 C 
ATOM     27  O   UNL     1       2.260   4.342  17.439  0.00  0.00    +0.000 OA
ENDBRANCH  20  27
ENDBRANCH  18  23
ENDBRANCH  15  18
ENDBRANCH   1  15
TORSDOF 4
ENDMDL
MODEL 7
REMARK VINA RESULT:      -6.3      6.749      8.940
REMARK  Name = 
REMARK  7 active torsions:
REMARK  status: ('A' for Active; 'I' for Inactive)
REMARK    1  A    between atoms: C_1  and  O_2
REMARK    2  A    between atoms: O_2  and  C_3
REMARK    3  A    between atoms: C_6  and  N_7
REMARK    4  A    between atoms: N_7  and  S_8
REMARK    5  A    between atoms: S_8  and  C_11
REMARK    6  A    between atoms: C_18  and  C_19
REMARK    7  A    between atoms: C_22  and  C_23
REMARK                            x       y       z     vdW  Elec       q    Type
REMARK                         _______ _______ _______ _____ _____    ______ ____
ROOT
ATOM      1  C   UNL     1       0.550  10.061  20.435  0.00  0.00    +0.000 A 
ATOM      2  C   UNL     1       0.361   9.805  19.073  0.00  0.00    +0.000 A 
ATOM      3  C   UNL     1      -0.365  10.726  18.322  0.00  0.00    +0.000 A 
ATOM      4  C   UNL     1      -0.837  11.878  18.961  0.00  0.00    +0.000 A 
ATOM      5  C   UNL     1      -0.206  12.322  20.125  0.00  0.00    +0.000 A 
ATOM      6  C   UNL     1       0.356  11.350  20.952  0.00  0.00    +0.000 A 
ATOM      7  N   UNL     1      -0.559  13.619  20.601  0.00  0.00    +0.000 N 
ATOM      8  C   UNL     1      -0.414  14.686  19.678  0.00  0.00    +0.000 C 
ATOM      9  C   UNL     1      -1.106  15.993  20.007  0.00  0.00    +0.000 C 
ATOM     10  O   UNL     1       0.226  14.601  18.628  0.00  0.00    +0.000 OA
ATOM     11  C   UNL     1      -1.784  13.530  21.383  0.00  0.00    +0.000 C 
ATOM     12  C   UNL     1      -2.991  13.273  20.460  0.00  0.00    +0.000 C 
ATOM     13  C   UNL     1      -4.226  13.115  21.344  0.00  0.00    +0.000 C 
ATOM     14  S   UNL     1      -2.754  11.903  19.192  0.00  0.00    +0.000 S 
ENDROOT
BRANCH   1  15
ATOM     15  S   UNL     1       0.907   8.707  21.530  0.00  0.00    +0.000 S 
ATOM     16  O   UNL     1      -0.174   7.763  21.434  0.00  0.00    +0.000 OA
ATOM     17  O   UNL     1       1.325   9.254  22.806  0.00  0.00    +0.000 OA
BRANCH  15  18
ATOM     18  N   UNL     1       2.229   7.961  20.777  0.00  0.00    +0.000 N 
ATOM     19  H   UNL     1       2.989   8.598  20.544  0.00  0.00    +0.000 HD
BRANCH  18  23
ATOM     20  C   UNL     1       1.781   4.386  18.569  0.00  0.00    +0.000 A 
ATOM     21  C   UNL     1       2.164   5.567  17.922  0.00  0.00    +0.000 A 
ATOM     22  C   UNL     1       2.320   6.763  18.643  0.00  0.00    +0.000 A 
ATOM     23  C   UNL     1       2.071   6.779  20.010  0.00  0.00    +0.000 A 
ATOM     24  C   UNL     1       1.704   5.597  20.662  0.00  0.00    +0.000 A 
ATOM     25  C   UNL     1       1.545   4.412  19.947  0.00  0.00    +0.000 A 
BRANCH  20  27
ATOM     26  C   UNL     1       2.523   2.204  18.007  0.00  0.00    +0.000 C 
ATOM     27  O   UNL     1       1.645   3.297  17.758  0.00  0.00    +0.000 OA
ENDBRANCH  20  27
ENDBRANCH  18  23
ENDBRANCH  15  18
ENDBRANCH   1  15
TORSDOF 4
ENDMDL
MODEL 8
REMARK VINA RESULT:      -6.0      9.001     10.829
REMARK  Name = 
REMARK  7 active torsions:
REMARK  status: ('A' for Active; 'I' for Inactive)
REMARK    1  A    between atoms: C_1  and  O_2
REMARK    2  A    between atoms: O_2  and  C_3
REMARK    3  A    between atoms: C_6  and  N_7
REMARK    4  A    between atoms: N_7  and  S_8
REMARK    5  A    between atoms: S_8  and  C_11
REMARK    6  A    between atoms: C_18  and  C_19
REMARK    7  A    between atoms: C_22  and  C_23
REMARK                            x       y       z     vdW  Elec       q    Type
REMARK                         _______ _______ _______ _____ _____    ______ ____
ROOT
ATOM      1  C   UNL     1      -1.643  11.827  20.638  0.00  0.00    +0.000 A 
ATOM      2  C   UNL     1      -0.943  11.485  21.800  0.00  0.00    +0.000 A 
ATOM      3  C   UNL     1      -1.338  12.066  23.003  0.00  0.00    +0.000 A 
ATOM      4  C   UNL     1      -2.436  12.933  22.992  0.00  0.00    +0.000 A 
ATOM      5  C   UNL     1      -3.376  12.834  21.965  0.00  0.00    +0.000 A 
ATOM      6  C   UNL     1      -2.911  12.420  20.717  0.00  0.00    +0.000 A 
ATOM      7  N   UNL     1      -4.592  13.561  22.124  0.00  0.00    +0.000 N 
ATOM      8  C   UNL     1      -5.323  13.308  23.312  0.00  0.00    +0.000 C 
ATOM      9  C   UNL     1      -6.405  14.299  23.692  0.00  0.00    +0.000 C 
ATOM     10  O   UNL     1      -5.117  12.342  24.049  0.00  0.00    +0.000 OA
ATOM     11  C   UNL     1      -4.388  14.942  21.708  0.00  0.00    +0.000 C 
ATOM     12  C   UNL     1      -3.520  15.688  22.739  0.00  0.00    +0.000 C 
ATOM     13  C   UNL     1      -3.281  17.100  22.210  0.00  0.00    +0.000 C 
ATOM     14  S   UNL     1      -1.965  14.782  23.286  0.00  0.00    +0.000 S 
ENDROOT
BRANCH   1  15
ATOM     15  S   UNL     1      -0.851  11.624  19.059  0.00  0.00    +0.000 S 
ATOM     16  O   UNL     1      -0.766  12.919  18.437  0.00  0.00    +0.000 OA
ATOM     17  O   UNL     1      -1.467  10.499  18.384  0.00  0.00    +0.000 OA
BRANCH  15  18
ATOM     18  N   UNL     1       0.737  11.222  19.490  0.00  0.00    +0.000 N 
ATOM     19  H   UNL     1       1.367  12.020  19.547  0.00  0.00    +0.000 HD
BRANCH  18  23
ATOM     20  C   UNL     1       2.377   7.405  18.719  0.00  0.00    +0.000 A 
ATOM     21  C   UNL     1       2.376   8.384  17.718  0.00  0.00    +0.000 A 
ATOM     22  C   UNL     1       1.838   9.658  17.960  0.00  0.00    +0.000 A 
ATOM     23  C   UNL     1       1.280   9.944  19.200  0.00  0.00    +0.000 A 
ATOM     24  C   UNL     1       1.294   8.975  20.208  0.00  0.00    +0.000 A 
ATOM     25  C   UNL     1       1.824   7.709  19.967  0.00  0.00    +0.000 A 
BRANCH  20  27
ATOM     26  C   UNL     1       4.270   6.211  17.931  0.00  0.00    +0.000 C 
ATOM     27  O   UNL     1       2.911   6.203  18.356  0.00  0.00    +0.000 OA
ENDBRANCH  20  27
ENDBRANCH  18  23
ENDBRANCH  15  18
ENDBRANCH   1  15
TORSDOF 4
ENDMDL
MODEL 9
REMARK VINA RESULT:      -6.0      8.899     10.819
REMARK  Name = 
REMARK  7 active torsions:
REMARK  status: ('A' for Active; 'I' for Inactive)
REMARK    1  A    between atoms: C_1  and  O_2
REMARK    2  A    between atoms: O_2  and  C_3
REMARK    3  A    between atoms: C_6  and  N_7
REMARK    4  A    between atoms: N_7  and  S_8
REMARK    5  A    between atoms: S_8  and  C_11
REMARK    6  A    between atoms: C_18  and  C_19
REMARK    7  A    between atoms: C_22  and  C_23
REMARK                            x       y       z     vdW  Elec       q    Type
REMARK                         _______ _______ _______ _____ _____    ______ ____
ROOT
ATOM      1  C   UNL     1      -1.605  11.728  20.566  0.00  0.00    +0.000 A 
ATOM      2  C   UNL     1      -0.944  11.268  21.709  0.00  0.00    +0.000 A 
ATOM      3  C   UNL     1      -1.278  11.834  22.938  0.00  0.00    +0.000 A 
ATOM      4  C   UNL     1      -2.282  12.808  22.969  0.00  0.00    +0.000 A 
ATOM      5  C   UNL     1      -3.228  12.848  21.941  0.00  0.00    +0.000 A 
ATOM      6  C   UNL     1      -2.806  12.444  20.675  0.00  0.00    +0.000 A 
ATOM      7  N   UNL     1      -4.363  13.688  22.136  0.00  0.00    +0.000 N 
ATOM      8  C   UNL     1      -5.117  13.460  23.316  0.00  0.00    +0.000 C 
ATOM      9  C   UNL     1      -6.091  14.539  23.742  0.00  0.00    +0.000 C 
ATOM     10  O   UNL     1      -5.010  12.448  24.011  0.00  0.00    +0.000 OA
ATOM     11  C   UNL     1      -4.019  15.058  21.778  0.00  0.00    +0.000 C 
ATOM     12  C   UNL     1      -3.081  15.667  22.837  0.00  0.00    +0.000 C 
ATOM     13  C   UNL     1      -2.699  17.069  22.367  0.00  0.00    +0.000 C 
ATOM     14  S   UNL     1      -1.625  14.585  23.339  0.00  0.00    +0.000 S 
ENDROOT
BRANCH   1  15
ATOM     15  S   UNL     1      -0.838  11.514  18.976  0.00  0.00    +0.000 S 
ATOM     16  O   UNL     1      -0.821  12.793  18.317  0.00  0.00    +0.000 OA
ATOM     17  O   UNL     1      -1.418  10.344  18.347  0.00  0.00    +0.000 OA
BRANCH  15  18
ATOM     18  N   UNL     1       0.775  11.193  19.385  0.00  0.00    +0.000 N 
ATOM     19  H   UNL     1       1.386  12.006  19.336  0.00  0.00    +0.000 HD
BRANCH  18  23
ATOM     20  C   UNL     1       2.433   7.357  18.756  0.00  0.00    +0.000 A 
ATOM     21  C   UNL     1       1.877   7.686  19.997  0.00  0.00    +0.000 A 
ATOM     22  C   UNL     1       1.318   8.956  20.221  0.00  0.00    +0.000 A 
ATOM     23  C   UNL     1       1.339   9.904  19.205  0.00  0.00    +0.000 A 
ATOM     24  C   UNL     1       1.879   9.573  17.958  0.00  0.00    +0.000 A 
ATOM     25  C   UNL     1       2.437   8.316  17.737  0.00  0.00    +0.000 A 
BRANCH  20  27
ATOM     26  C   UNL     1       2.585   5.182  19.690  0.00  0.00    +0.000 C 
ATOM     27  O   UNL     1       2.959   6.102  18.669  0.00  0.00    +0.000 OA
ENDBRANCH  20  27
ENDBRANCH  18  23
ENDBRANCH  15  18
ENDBRANCH   1  15
TORSDOF 4
ENDMDL
