MODEL 1
REMARK VINA RESULT:      -6.8      0.000      0.000
REMARK  Name = 
REMARK  4 active torsions:
REMARK  status: ('A' for Active; 'I' for Inactive)
REMARK    1  A    between atoms: C_1  and  N_2
REMARK    2  A    between atoms: C_13  and  C_14
REMARK    3  A    between atoms: C_14  and  C_15
REMARK    4  A    between atoms: C_15  and  O_17
REMARK                            x       y       z     vdW  Elec       q    Type
REMARK                         _______ _______ _______ _____ _____    ______ ____
ROOT
ATOM      1  C   UNL     1      -2.045  14.013  23.920  0.00  0.00    +0.000 C 
ATOM      2  N   UNL     1      -1.032  13.397  23.108  0.00  0.00    +0.000 N 
ATOM      3  C   UNL     1      -0.595  14.273  22.112  0.00  0.00    +0.000 C 
ATOM      4  O   UNL     1      -0.023  15.339  22.196  0.00  0.00    +0.000 OA
ATOM      5  C   UNL     1      -0.931  13.567  20.812  0.00  0.00    +0.000 C 
ATOM      6  O   UNL     1      -1.262  14.070  19.766  0.00  0.00    +0.000 OA
ATOM      7  C   UNL     1      -0.895  12.164  21.163  0.00  0.00    +0.000 A 
ATOM      8  C   UNL     1      -1.162  12.088  22.530  0.00  0.00    +0.000 A 
ATOM      9  C   UNL     1      -1.025  10.870  23.161  0.00  0.00    +0.000 A 
ATOM     10  C   UNL     1      -0.486   9.782  22.416  0.00  0.00    +0.000 A 
ATOM     11  C   UNL     1      -0.019   9.934  21.082  0.00  0.00    +0.000 A 
ATOM     12  C   UNL     1      -0.243  11.176  20.458  0.00  0.00    +0.000 A 
ATOM     13  C   UNL     1       0.467  11.548  19.171  0.00  0.00    +0.000 C 
ATOM     14  O   UNL     1       0.916  10.437  18.395  0.00  0.00    +0.000 OA
ATOM     15  C   UNL     1       1.296   9.312  19.066  0.00  0.00    +0.000 A 
ATOM     16  C   UNL     1       2.175   8.506  18.336  0.00  0.00    +0.000 A 
ATOM     17  C   UNL     1       2.590   7.293  18.856  0.00  0.00    +0.000 A 
ATOM     18  C   UNL     1       2.108   6.890  20.102  0.00  0.00    +0.000 A 
ATOM     19  C   UNL     1       1.240   7.717  20.839  0.00  0.00    +0.000 A 
ATOM     20  C   UNL     1       0.825   8.967  20.348  0.00  0.00    +0.000 A 
ENDROOT
BRANCH  13  21
ATOM     21  C   UNL     1       1.675  12.454  19.487  0.00  0.00    +0.000 C 
BRANCH  21  22
ATOM     22  C   UNL     1       2.149  13.198  18.274  0.00  0.00    +0.000 C 
ATOM     23  O   UNL     1       2.096  14.404  18.108  0.00  0.00    +0.000 OA
BRANCH  22  24
ATOM     24  O   UNL     1       2.738  12.386  17.361  0.00  0.00    +0.000 OA
ATOM     25  H   UNL     1       3.481  11.859  17.707  0.00  0.00    +0.000 HD
ENDBRANCH  22  24
ENDBRANCH  21  22
ENDBRANCH  13  21
TORSDOF 3
ENDMDL
MODEL 2
REMARK VINA RESULT:      -6.4      2.948      4.444
REMARK  Name = 
REMARK  4 active torsions:
REMARK  status: ('A' for Active; 'I' for Inactive)
REMARK    1  A    between atoms: C_1  and  N_2
REMARK    2  A    between atoms: C_13  and  C_14
REMARK    3  A    between atoms: C_14  and  C_15
REMARK    4  A    between atoms: C_15  and  O_17
REMARK                            x       y       z     vdW  Elec       q    Type
REMARK                         _______ _______ _______ _____ _____    ______ ____
ROOT
ATOM      1  C   UNL     1      -6.211  14.056  22.932  0.00  0.00    +0.000 C 
ATOM      2  N   UNL     1      -5.169  13.094  22.700  0.00  0.00    +0.000 N 
ATOM      3  C   UNL     1      -4.451  12.848  23.871  0.00  0.00    +0.000 C 
ATOM      4  O   UNL     1      -4.805  12.361  24.924  0.00  0.00    +0.000 OA
ATOM      5  C   UNL     1      -3.032  13.270  23.542  0.00  0.00    +0.000 C 
ATOM      6  O   UNL     1      -2.218  13.759  24.288  0.00  0.00    +0.000 OA
ATOM      7  C   UNL     1      -2.938  13.077  22.112  0.00  0.00    +0.000 A 
ATOM      8  C   UNL     1      -4.236  13.179  21.610  0.00  0.00    +0.000 A 
ATOM      9  C   UNL     1      -4.456  12.869  20.285  0.00  0.00    +0.000 A 
ATOM     10  C   UNL     1      -3.375  12.330  19.531  0.00  0.00    +0.000 A 
ATOM     11  C   UNL     1      -2.114  12.033  20.117  0.00  0.00    +0.000 A 
ATOM     12  C   UNL     1      -1.916  12.430  21.454  0.00  0.00    +0.000 A 
ATOM     13  C   UNL     1      -0.746  11.905  22.263  0.00  0.00    +0.000 C 
ATOM     14  O   UNL     1       0.364  11.455  21.486  0.00  0.00    +0.000 OA
ATOM     15  C   UNL     1       0.098  10.909  20.265  0.00  0.00    +0.000 A 
ATOM     16  C   UNL     1       1.108  10.055  19.813  0.00  0.00    +0.000 A 
ATOM     17  C   UNL     1       1.016   9.483  18.556  0.00  0.00    +0.000 A 
ATOM     18  C   UNL     1      -0.087   9.784  17.755  0.00  0.00    +0.000 A 
ATOM     19  C   UNL     1      -1.109  10.628  18.226  0.00  0.00    +0.000 A 
ATOM     20  C   UNL     1      -1.055  11.200  19.509  0.00  0.00    +0.000 A 
ENDROOT
BRANCH  13  21
ATOM     21  C   UNL     1      -1.219  10.748  23.169  0.00  0.00    +0.000 C 
BRANCH  21  22
ATOM     22  C   UNL     1      -0.369   9.523  23.000  0.00  0.00    +0.000 C 
ATOM     23  O   UNL     1      -0.705   8.492  22.446  0.00  0.00    +0.000 OA
BRANCH  22  24
ATOM     24  O   UNL     1       0.890   9.692  23.473  0.00  0.00    +0.000 OA
ATOM     25  H   UNL     1       1.400  10.393  23.028  0.00  0.00    +0.000 HD
ENDBRANCH  22  24
ENDBRANCH  21  22
ENDBRANCH  13  21
TORSDOF 3
ENDMDL
MODEL 3
REMARK VINA RESULT:      -6.4      3.647      4.862
REMARK  Name = 
REMARK  4 active torsions:
REMARK  status: ('A' for Active; 'I' for Inactive)
REMARK    1  A    between atoms: C_1  and  N_2
REMARK    2  A    between atoms: C_13  and  C_14
REMARK    3  A    between atoms: C_14  and  C_15
REMARK    4  A    between atoms: C_15  and  O_17
REMARK                            x       y       z     vdW  Elec       q    Type
REMARK                         _______ _______ _______ _____ _____    ______ ____
ROOT
ATOM      1  C   UNL     1      -7.734  12.328  19.925  0.00  0.00    +0.000 C 
ATOM      2  N   UNL     1      -6.395  11.917  20.244  0.00  0.00    +0.000 N 
ATOM      3  C   UNL     1      -5.970  12.498  21.442  0.00  0.00    +0.000 C 
ATOM      4  O   UNL     1      -6.389  12.366  22.572  0.00  0.00    +0.000 OA
ATOM      5  C   UNL     1      -4.764  13.331  21.053  0.00  0.00    +0.000 C 
ATOM      6  O   UNL     1      -4.407  14.378  21.537  0.00  0.00    +0.000 OA
ATOM      7  C   UNL     1      -4.236  12.651  19.891  0.00  0.00    +0.000 A 
ATOM      8  C   UNL     1      -5.303  11.965  19.311  0.00  0.00    +0.000 A 
ATOM      9  C   UNL     1      -5.041  11.096  18.274  0.00  0.00    +0.000 A 
ATOM     10  C   UNL     1      -3.681  10.837  17.938  0.00  0.00    +0.000 A 
ATOM     11  C   UNL     1      -2.599  11.383  18.682  0.00  0.00    +0.000 A 
ATOM     12  C   UNL     1      -2.915  12.319  19.687  0.00  0.00    +0.000 A 
ATOM     13  C   UNL     1      -1.892  12.728  20.727  0.00  0.00    +0.000 C 
ATOM     14  O   UNL     1      -0.532  12.546  20.331  0.00  0.00    +0.000 OA
ATOM     15  C   UNL     1      -0.253  11.506  19.494  0.00  0.00    +0.000 A 
ATOM     16  C   UNL     1       1.077  11.082  19.567  0.00  0.00    +0.000 A 
ATOM     17  C   UNL     1       1.529  10.083  18.723  0.00  0.00    +0.000 A 
ATOM     18  C   UNL     1       0.644   9.526  17.799  0.00  0.00    +0.000 A 
ATOM     19  C   UNL     1      -0.699   9.944  17.747  0.00  0.00    +0.000 A 
ATOM     20  C   UNL     1      -1.192  10.936  18.612  0.00  0.00    +0.000 A 
ENDROOT
BRANCH  13  21
ATOM     21  C   UNL     1      -2.137  11.945  22.034  0.00  0.00    +0.000 C 
BRANCH  21  22
ATOM     22  C   UNL     1      -0.898  11.860  22.876  0.00  0.00    +0.000 C 
ATOM     23  O   UNL     1      -0.323  10.835  23.198  0.00  0.00    +0.000 OA
BRANCH  22  24
ATOM     24  O   UNL     1      -0.404  13.079  23.203  0.00  0.00    +0.000 OA
ATOM     25  H   UNL     1      -0.378  13.262  24.160  0.00  0.00    +0.000 HD
ENDBRANCH  22  24
ENDBRANCH  21  22
ENDBRANCH  13  21
TORSDOF 3
ENDMDL
MODEL 4
REMARK VINA RESULT:      -6.4      4.027      5.456
REMARK  Name = 
REMARK  4 active torsions:
REMARK  status: ('A' for Active; 'I' for Inactive)
REMARK    1  A    between atoms: C_1  and  N_2
REMARK    2  A    between atoms: C_13  and  C_14
REMARK    3  A    between atoms: C_14  and  C_15
REMARK    4  A    between atoms: C_15  and  O_17
REMARK                            x       y       z     vdW  Elec       q    Type
REMARK                         _______ _______ _______ _____ _____    ______ ____
ROOT
ATOM      1  C   UNL     1      -7.515  13.302  24.062  0.00  0.00    +0.000 C 
ATOM      2  N   UNL     1      -6.439  12.686  23.336  0.00  0.00    +0.000 N 
ATOM      3  C   UNL     1      -5.219  12.899  23.982  0.00  0.00    +0.000 C 
ATOM      4  O   UNL     1      -4.830  12.533  25.071  0.00  0.00    +0.000 OA
ATOM      5  C   UNL     1      -4.387  13.672  22.977  0.00  0.00    +0.000 C 
ATOM      6  O   UNL     1      -3.559  14.521  23.205  0.00  0.00    +0.000 OA
ATOM      7  C   UNL     1      -4.917  13.254  21.698  0.00  0.00    +0.000 A 
ATOM      8  C   UNL     1      -6.233  12.851  21.924  0.00  0.00    +0.000 A 
ATOM      9  C   UNL     1      -6.923  12.247  20.894  0.00  0.00    +0.000 A 
ATOM     10  C   UNL     1      -6.214  11.940  19.698  0.00  0.00    +0.000 A 
ATOM     11  C   UNL     1      -4.817  12.164  19.565  0.00  0.00    +0.000 A 
ATOM     12  C   UNL     1      -4.171  12.846  20.614  0.00  0.00    +0.000 A 
ATOM     13  C   UNL     1      -2.659  12.872  20.720  0.00  0.00    +0.000 C 
ATOM     14  O   UNL     1      -1.970  12.653  19.489  0.00  0.00    +0.000 OA
ATOM     15  C   UNL     1      -2.561  11.833  18.574  0.00  0.00    +0.000 A 
ATOM     16  C   UNL     1      -1.653  11.266  17.674  0.00  0.00    +0.000 A 
ATOM     17  C   UNL     1      -2.112  10.470  16.640  0.00  0.00    +0.000 A 
ATOM     18  C   UNL     1      -3.485  10.258  16.509  0.00  0.00    +0.000 A 
ATOM     19  C   UNL     1      -4.391  10.815  17.431  0.00  0.00    +0.000 A 
ATOM     20  C   UNL     1      -3.949  11.604  18.506  0.00  0.00    +0.000 A 
ENDROOT
BRANCH  13  21
ATOM     21  C   UNL     1      -2.191  11.816  21.745  0.00  0.00    +0.000 C 
BRANCH  21  22
ATOM     22  C   UNL     1      -0.874  12.183  22.363  0.00  0.00    +0.000 C 
ATOM     23  O   UNL     1       0.224  11.856  21.950  0.00  0.00    +0.000 OA
BRANCH  22  24
ATOM     24  O   UNL     1      -1.010  13.008  23.430  0.00  0.00    +0.000 OA
ATOM     25  H   UNL     1      -1.925  13.110  23.750  0.00  0.00    +0.000 HD
ENDBRANCH  22  24
ENDBRANCH  21  22
ENDBRANCH  13  21
TORSDOF 3
ENDMDL
MODEL 5
REMARK VINA RESULT:      -6.3      7.072      8.782
REMARK  Name = 
REMARK  4 active torsions:
REMARK  status: ('A' for Active; 'I' for Inactive)
REMARK    1  A    between atoms: C_1  and  N_2
REMARK    2  A    between atoms: C_13  and  C_14
REMARK    3  A    between atoms: C_14  and  C_15
REMARK    4  A    between atoms: C_15  and  O_17
REMARK                            x       y       z     vdW  Elec       q    Type
REMARK                         _______ _______ _______ _____ _____    ______ ____
ROOT
ATOM      1  C   UNL     1       3.448  15.832  19.696  0.00  0.00    +0.000 C 
ATOM      2  N   UNL     1       4.514  14.902  19.946  0.00  0.00    +0.000 N 
ATOM      3  C   UNL     1       4.632  14.638  21.312  0.00  0.00    +0.000 C 
ATOM      4  O   UNL     1       3.856  14.113  22.082  0.00  0.00    +0.000 OA
ATOM      5  C   UNL     1       6.031  15.102  21.669  0.00  0.00    +0.000 C 
ATOM      6  O   UNL     1       6.401  15.588  22.710  0.00  0.00    +0.000 OA
ATOM      7  C   UNL     1       6.768  14.954  20.434  0.00  0.00    +0.000 A 
ATOM      8  C   UNL     1       5.835  15.041  19.400  0.00  0.00    +0.000 A 
ATOM      9  C   UNL     1       6.251  14.765  18.115  0.00  0.00    +0.000 A 
ATOM     10  C   UNL     1       7.574  14.274  17.924  0.00  0.00    +0.000 A 
ATOM     11  C   UNL     1       8.441  13.989  19.014  0.00  0.00    +0.000 A 
ATOM     12  C   UNL     1       7.999  14.351  20.301  0.00  0.00    +0.000 A 
ATOM     13  C   UNL     1       8.692  13.829  21.545  0.00  0.00    +0.000 C 
ATOM     14  O   UNL     1      10.049  13.428  21.348  0.00  0.00    +0.000 OA
ATOM     15  C   UNL     1      10.383  12.912  20.131  0.00  0.00    +0.000 A 
ATOM     16  C   UNL     1      11.517  12.095  20.173  0.00  0.00    +0.000 A 
ATOM     17  C   UNL     1      12.024  11.559  19.002  0.00  0.00    +0.000 A 
ATOM     18  C   UNL     1      11.394  11.858  17.793  0.00  0.00    +0.000 A 
ATOM     19  C   UNL     1      10.241  12.665  17.763  0.00  0.00    +0.000 A 
ATOM     20  C   UNL     1       9.689  13.199  18.940  0.00  0.00    +0.000 A 
ENDROOT
BRANCH  13  21
ATOM     21  C   UNL     1       7.900  12.635  22.119  0.00  0.00    +0.000 C 
BRANCH  21  22
ATOM     22  C   UNL     1       8.345  12.287  23.509  0.00  0.00    +0.000 C 
ATOM     23  O   UNL     1       8.488  13.071  24.431  0.00  0.00    +0.000 OA
BRANCH  22  24
ATOM     24  O   UNL     1       8.512  10.953  23.685  0.00  0.00    +0.000 OA
ATOM     25  H   UNL     1       7.699  10.426  23.586  0.00  0.00    +0.000 HD
ENDBRANCH  22  24
ENDBRANCH  21  22
ENDBRANCH  13  21
TORSDOF 3
ENDMDL
MODEL 6
REMARK VINA RESULT:      -6.3      4.912      8.842
REMARK  Name = 
REMARK  4 active torsions:
REMARK  status: ('A' for Active; 'I' for Inactive)
REMARK    1  A    between atoms: C_1  and  N_2
REMARK    2  A    between atoms: C_13  and  C_14
REMARK    3  A    between atoms: C_14  and  C_15
REMARK    4  A    between atoms: C_15  and  O_17
REMARK                            x       y       z     vdW  Elec       q    Type
REMARK                         _______ _______ _______ _____ _____    ______ ____
ROOT
ATOM      1  C   UNL     1       5.692   4.074  16.263  0.00  0.00    +0.000 C 
ATOM      2  N   UNL     1       5.052   4.571  17.450  0.00  0.00    +0.000 N 
ATOM      3  C   UNL     1       4.614   3.518  18.256  0.00  0.00    +0.000 C 
ATOM      4  O   UNL     1       5.240   2.655  18.833  0.00  0.00    +0.000 OA
ATOM      5  C   UNL     1       3.110   3.702  18.337  0.00  0.00    +0.000 C 
ATOM      6  O   UNL     1       2.267   2.842  18.415  0.00  0.00    +0.000 OA
ATOM      7  C   UNL     1       2.929   5.126  18.161  0.00  0.00    +0.000 A 
ATOM      8  C   UNL     1       4.033   5.583  17.441  0.00  0.00    +0.000 A 
ATOM      9  C   UNL     1       4.194   6.942  17.276  0.00  0.00    +0.000 A 
ATOM     10  C   UNL     1       3.304   7.815  17.964  0.00  0.00    +0.000 A 
ATOM     11  C   UNL     1       2.316   7.335  18.866  0.00  0.00    +0.000 A 
ATOM     12  C   UNL     1       2.143   5.939  18.948  0.00  0.00    +0.000 A 
ATOM     13  C   UNL     1       1.348   5.312  20.076  0.00  0.00    +0.000 C 
ATOM     14  O   UNL     1       0.395   6.181  20.690  0.00  0.00    +0.000 OA
ATOM     15  C   UNL     1       0.698   7.509  20.745  0.00  0.00    +0.000 A 
ATOM     16  C   UNL     1       0.023   8.186  21.766  0.00  0.00    +0.000 A 
ATOM     17  C   UNL     1       0.171   9.555  21.900  0.00  0.00    +0.000 A 
ATOM     18  C   UNL     1       0.987  10.239  20.998  0.00  0.00    +0.000 A 
ATOM     19  C   UNL     1       1.679   9.547  19.986  0.00  0.00    +0.000 A 
ATOM     20  C   UNL     1       1.569   8.153  19.845  0.00  0.00    +0.000 A 
ENDROOT
BRANCH  13  21
ATOM     21  C   UNL     1       2.311   4.785  21.161  0.00  0.00    +0.000 C 
BRANCH  21  22
ATOM     22  C   UNL     1       2.000   3.368  21.543  0.00  0.00    +0.000 C 
ATOM     23  O   UNL     1       2.710   2.637  22.212  0.00  0.00    +0.000 OA
BRANCH  22  24
ATOM     24  O   UNL     1       0.773   2.972  21.126  0.00  0.00    +0.000 OA
ATOM     25  H   UNL     1       0.618   2.011  21.178  0.00  0.00    +0.000 HD
ENDBRANCH  22  24
ENDBRANCH  21  22
ENDBRANCH  13  21
TORSDOF 3
ENDMDL
MODEL 7
REMARK VINA RESULT:      -6.2      3.605      6.805
REMARK  Name = 
REMARK  4 active torsions:
REMARK  status: ('A' for Active; 'I' for Inactive)
REMARK    1  A    between atoms: C_1  and  N_2
REMARK    2  A    between atoms: C_13  and  C_14
REMARK    3  A    between atoms: C_14  and  C_15
REMARK    4  A    between atoms: C_15  and  O_17
REMARK                            x       y       z     vdW  Elec       q    Type
REMARK                         _______ _______ _______ _____ _____    ______ ____
ROOT
ATOM      1  C   UNL     1       0.935  10.406  21.093  0.00  0.00    +0.000 C 
ATOM      2  N   UNL     1      -0.487  10.580  20.983  0.00  0.00    +0.000 N 
ATOM      3  C   UNL     1      -0.875  10.663  19.644  0.00  0.00    +0.000 C 
ATOM      4  O   UNL     1      -0.804   9.844  18.752  0.00  0.00    +0.000 OA
ATOM      5  C   UNL     1      -1.504  12.037  19.514  0.00  0.00    +0.000 C 
ATOM      6  O   UNL     1      -1.483  12.768  18.554  0.00  0.00    +0.000 OA
ATOM      7  C   UNL     1      -2.006  12.312  20.842  0.00  0.00    +0.000 A 
ATOM      8  C   UNL     1      -1.228  11.562  21.726  0.00  0.00    +0.000 A 
ATOM      9  C   UNL     1      -1.602  11.511  23.052  0.00  0.00    +0.000 A 
ATOM     10  C   UNL     1      -2.837  12.113  23.427  0.00  0.00    +0.000 A 
ATOM     11  C   UNL     1      -3.722  12.688  22.474  0.00  0.00    +0.000 A 
ATOM     12  C   UNL     1      -3.266  12.779  21.144  0.00  0.00    +0.000 A 
ATOM     13  C   UNL     1      -4.220  13.087  20.007  0.00  0.00    +0.000 C 
ATOM     14  O   UNL     1      -5.410  13.773  20.396  0.00  0.00    +0.000 OA
ATOM     15  C   UNL     1      -5.913  13.510  21.636  0.00  0.00    +0.000 A 
ATOM     16  C   UNL     1      -7.280  13.784  21.745  0.00  0.00    +0.000 A 
ATOM     17  C   UNL     1      -7.916  13.638  22.965  0.00  0.00    +0.000 A 
ATOM     18  C   UNL     1      -7.172  13.228  24.072  0.00  0.00    +0.000 A 
ATOM     19  C   UNL     1      -5.801  12.935  23.949  0.00  0.00    +0.000 A 
ATOM     20  C   UNL     1      -5.135  13.048  22.716  0.00  0.00    +0.000 A 
ENDROOT
BRANCH  13  21
ATOM     21  C   UNL     1      -4.614  11.779  19.289  0.00  0.00    +0.000 C 
BRANCH  21  22
ATOM     22  C   UNL     1      -4.996  12.020  17.859  0.00  0.00    +0.000 C 
ATOM     23  O   UNL     1      -6.120  12.255  17.450  0.00  0.00    +0.000 OA
BRANCH  22  24
ATOM     24  O   UNL     1      -3.927  12.027  17.026  0.00  0.00    +0.000 OA
ATOM     25  H   UNL     1      -4.010  11.438  16.255  0.00  0.00    +0.000 HD
ENDBRANCH  22  24
ENDBRANCH  21  22
ENDBRANCH  13  21
TORSDOF 3
ENDMDL
MODEL 8
REMARK VINA RESULT:      -6.2      7.221      9.015
REMARK  Name = 
REMARK  4 active torsions:
REMARK  status: ('A' for Active; 'I' for Inactive)
REMARK    1  A    between atoms: C_1  and  N_2
REMARK    2  A    between atoms: C_13  and  C_14
REMARK    3  A    between atoms: C_14  and  C_15
REMARK    4  A    between atoms: C_15  and  O_17
REMARK                            x       y       z     vdW  Elec       q    Type
REMARK                         _______ _______ _______ _____ _____    ______ ____
ROOT
ATOM      1  C   UNL     1       0.537   2.655  20.687  0.00  0.00    +0.000 C 
ATOM      2  N   UNL     1       1.823   3.015  20.155  0.00  0.00    +0.000 N 
ATOM      3  C   UNL     1       2.458   3.946  20.980  0.00  0.00    +0.000 C 
ATOM      4  O   UNL     1       2.846   3.848  22.125  0.00  0.00    +0.000 OA
ATOM      5  C   UNL     1       2.646   5.167  20.100  0.00  0.00    +0.000 C 
ATOM      6  O   UNL     1       2.619   6.326  20.434  0.00  0.00    +0.000 OA
ATOM      7  C   UNL     1       2.726   4.618  18.764  0.00  0.00    +0.000 A 
ATOM      8  C   UNL     1       2.038   3.405  18.789  0.00  0.00    +0.000 A 
ATOM      9  C   UNL     1       2.100   2.590  17.679  0.00  0.00    +0.000 A 
ATOM     10  C   UNL     1       2.972   2.963  16.617  0.00  0.00    +0.000 A 
ATOM     11  C   UNL     1       3.828   4.095  16.700  0.00  0.00    +0.000 A 
ATOM     12  C   UNL     1       3.679   4.935  17.821  0.00  0.00    +0.000 A 
ATOM     13  C   UNL     1       4.723   5.980  18.163  0.00  0.00    +0.000 C 
ATOM     14  O   UNL     1       5.524   6.406  17.061  0.00  0.00    +0.000 OA
ATOM     15  C   UNL     1       5.790   5.492  16.085  0.00  0.00    +0.000 A 
ATOM     16  C   UNL     1       6.944   5.788  15.353  0.00  0.00    +0.000 A 
ATOM     17  C   UNL     1       7.303   4.992  14.279  0.00  0.00    +0.000 A 
ATOM     18  C   UNL     1       6.490   3.910  13.938  0.00  0.00    +0.000 A 
ATOM     19  C   UNL     1       5.341   3.608  14.692  0.00  0.00    +0.000 A 
ATOM     20  C   UNL     1       4.969   4.382  15.805  0.00  0.00    +0.000 A 
ENDROOT
BRANCH  13  21
ATOM     21  C   UNL     1       5.651   5.444  19.274  0.00  0.00    +0.000 C 
BRANCH  21  22
ATOM     22  C   UNL     1       7.086   5.415  18.837  0.00  0.00    +0.000 C 
ATOM     23  O   UNL     1       7.713   4.424  18.509  0.00  0.00    +0.000 OA
BRANCH  22  24
ATOM     24  O   UNL     1       7.634   6.653  18.763  0.00  0.00    +0.000 OA
ATOM     25  H   UNL     1       6.988   7.377  18.664  0.00  0.00    +0.000 HD
ENDBRANCH  22  24
ENDBRANCH  21  22
ENDBRANCH  13  21
TORSDOF 3
ENDMDL
MODEL 9
REMARK VINA RESULT:      -6.1      3.055      6.381
REMARK  Name = 
REMARK  4 active torsions:
REMARK  status: ('A' for Active; 'I' for Inactive)
REMARK    1  A    between atoms: C_1  and  N_2
REMARK    2  A    between atoms: C_13  and  C_14
REMARK    3  A    between atoms: C_14  and  C_15
REMARK    4  A    between atoms: C_15  and  O_17
REMARK                            x       y       z     vdW  Elec       q    Type
REMARK                         _______ _______ _______ _____ _____    ______ ____
ROOT
ATOM      1  C   UNL     1       1.441   9.696  19.109  0.00  0.00    +0.000 C 
ATOM      2  N   UNL     1       0.080   9.988  19.463  0.00  0.00    +0.000 N 
ATOM      3  C   UNL     1      -0.672  10.300  18.329  0.00  0.00    +0.000 C 
ATOM      4  O   UNL     1      -0.961   9.622  17.365  0.00  0.00    +0.000 OA
ATOM      5  C   UNL     1      -1.149  11.720  18.568  0.00  0.00    +0.000 C 
ATOM      6  O   UNL     1      -1.327  12.585  17.744  0.00  0.00    +0.000 OA
ATOM      7  C   UNL     1      -1.203  11.826  20.009  0.00  0.00    +0.000 A 
ATOM      8  C   UNL     1      -0.292  10.897  20.512  0.00  0.00    +0.000 A 
ATOM      9  C   UNL     1      -0.263  10.673  21.872  0.00  0.00    +0.000 A 
ATOM     10  C   UNL     1      -1.255  11.299  22.679  0.00  0.00    +0.000 A 
ATOM     11  C   UNL     1      -2.309  12.075  22.122  0.00  0.00    +0.000 A 
ATOM     12  C   UNL     1      -2.257  12.332  20.738  0.00  0.00    +0.000 A 
ATOM     13  C   UNL     1      -3.460  12.878  19.996  0.00  0.00    +0.000 C 
ATOM     14  O   UNL     1      -4.396  13.582  20.812  0.00  0.00    +0.000 OA
ATOM     15  C   UNL     1      -4.539  13.171  22.104  0.00  0.00    +0.000 A 
ATOM     16  C   UNL     1      -5.773  13.524  22.661  0.00  0.00    +0.000 A 
ATOM     17  C   UNL     1      -6.035  13.242  23.990  0.00  0.00    +0.000 A 
ATOM     18  C   UNL     1      -5.050  12.616  24.756  0.00  0.00    +0.000 A 
ATOM     19  C   UNL     1      -3.820  12.246  24.182  0.00  0.00    +0.000 A 
ATOM     20  C   UNL     1      -3.537  12.496  22.828  0.00  0.00    +0.000 A 
ENDROOT
BRANCH  13  21
ATOM     21  C   UNL     1      -4.195  11.725  19.279  0.00  0.00    +0.000 C 
BRANCH  21  22
ATOM     22  C   UNL     1      -4.905  12.198  18.045  0.00  0.00    +0.000 C 
ATOM     23  O   UNL     1      -5.999  12.735  18.011  0.00  0.00    +0.000 OA
BRANCH  22  24
ATOM     24  O   UNL     1      -4.164  12.037  16.921  0.00  0.00    +0.000 OA
ATOM     25  H   UNL     1      -4.131  11.123  16.585  0.00  0.00    +0.000 HD
ENDBRANCH  22  24
ENDBRANCH  21  22
ENDBRANCH  13  21
TORSDOF 3
ENDMDL
