MODEL 1
REMARK VINA RESULT:      -8.0      0.000      0.000
REMARK  Name = 
REMARK  6 active torsions:
REMARK  status: ('A' for Active; 'I' for Inactive)
REMARK    1  A    between atoms: C_1  and  C_2
REMARK    2  A    between atoms: C_2  and  C_3
REMARK    3  A    between atoms: C_2  and  N_20
REMARK    4  A    between atoms: N_5  and  C_6
REMARK    5  A    between atoms: C_6  and  C_7
REMARK    6  A    between atoms: C_9  and  C_10
REMARK                            x       y       z     vdW  Elec       q    Type
REMARK                         _______ _______ _______ _____ _____    ______ ____
ROOT
ATOM      1  C   UNL     1       6.008   4.774  17.950  0.00  0.00    +0.000 A 
ATOM      2  N   UNL     1       4.886   4.240  17.532  0.00  0.00    +0.000 NA
ATOM      3  C   UNL     1       4.540   3.424  18.576  0.00  0.00    +0.000 A 
ATOM      4  N   UNL     1       5.378   3.465  19.620  0.00  0.00    +0.000 NA
ATOM      5  O   UNL     1       6.365   4.368  19.201  0.00  0.00    +0.000 OA
ENDROOT
BRANCH   3   6
ATOM      6  C   UNL     1       3.334   2.538  18.519  0.00  0.00    +0.000 C 
ATOM      7  C   UNL     1       2.162   3.205  17.771  0.00  0.00    +0.000 C 
ATOM      8  C   UNL     1       1.517   4.349  18.557  0.00  0.00    +0.000 C 
ATOM      9  C   UNL     1       1.148   3.933  19.974  0.00  0.00    +0.000 C 
ATOM     10  F   UNL     1       0.076   3.097  19.906  0.00  0.00    +0.000 F 
ATOM     11  F   UNL     1       0.740   5.021  20.671  0.00  0.00    +0.000 F 
ATOM     12  C   UNL     1       2.258   3.228  20.735  0.00  0.00    +0.000 C 
ATOM     13  C   UNL     1       2.884   2.093  19.920  0.00  0.00    +0.000 C 
ENDBRANCH   3   6
BRANCH   1  14
ATOM     14  C   UNL     1       6.972   5.614  17.202  0.00  0.00    +0.000 C 
BRANCH  14  17
ATOM     15  C   UNL     1       6.848   5.247  14.802  0.00  0.00    +0.000 C 
ATOM     16  O   UNL     1       5.918   6.052  14.741  0.00  0.00    +0.000 OA
ATOM     17  N   UNL     1       7.469   4.972  16.003  0.00  0.00    +0.000 N 
ATOM     18  H   UNL     1       8.164   4.228  16.052  0.00  0.00    +0.000 HD
BRANCH  15  20
ATOM     19  C   UNL     1       8.150   5.589  12.673  0.00  0.00    +0.000 C 
ATOM     20  C   UNL     1       7.428   4.572  13.563  0.00  0.00    +0.000 C 
BRANCH  20  21
ATOM     21  N   UNL     1       6.400   3.827  12.849  0.00  0.00    +0.000 N 
ATOM     22  C   UNL     1       5.044   4.008  12.877  0.00  0.00    +0.000 A 
ATOM     23  C   UNL     1       4.519   3.134  11.957  0.00  0.00    +0.000 A 
ATOM     24  C   UNL     1       5.630   2.437  11.453  0.00  0.00    +0.000 A 
ATOM     25  N   UNL     1       6.777   2.827  12.017  0.00  0.00    +0.000 NA
ENDBRANCH  20  21
ENDBRANCH  15  20
ENDBRANCH  14  17
ENDBRANCH   1  14
TORSDOF 5
ENDMDL
MODEL 2
REMARK VINA RESULT:      -7.9      1.696      2.169
REMARK  Name = 
REMARK  6 active torsions:
REMARK  status: ('A' for Active; 'I' for Inactive)
REMARK    1  A    between atoms: C_1  and  C_2
REMARK    2  A    between atoms: C_2  and  C_3
REMARK    3  A    between atoms: C_2  and  N_20
REMARK    4  A    between atoms: N_5  and  C_6
REMARK    5  A    between atoms: C_6  and  C_7
REMARK    6  A    between atoms: C_9  and  C_10
REMARK                            x       y       z     vdW  Elec       q    Type
REMARK                         _______ _______ _______ _____ _____    ______ ____
ROOT
ATOM      1  C   UNL     1       4.522   5.230  17.031  0.00  0.00    +0.000 A 
ATOM      2  N   UNL     1       3.554   5.495  17.876  0.00  0.00    +0.000 NA
ATOM      3  C   UNL     1       2.766   4.379  17.783  0.00  0.00    +0.000 A 
ATOM      4  N   UNL     1       3.227   3.436  16.952  0.00  0.00    +0.000 NA
ATOM      5  O   UNL     1       4.403   4.006  16.444  0.00  0.00    +0.000 OA
ENDROOT
BRANCH   3   6
ATOM      6  C   UNL     1       1.476   4.259  18.535  0.00  0.00    +0.000 C 
ATOM      7  C   UNL     1       1.520   5.011  19.880  0.00  0.00    +0.000 C 
ATOM      8  C   UNL     1       2.408   4.330  20.924  0.00  0.00    +0.000 C 
ATOM      9  C   UNL     1       2.073   2.855  21.087  0.00  0.00    +0.000 C 
ATOM     10  F   UNL     1       0.880   2.759  21.736  0.00  0.00    +0.000 F 
ATOM     11  F   UNL     1       2.993   2.270  21.892  0.00  0.00    +0.000 F 
ATOM     12  C   UNL     1       1.972   2.082  19.783  0.00  0.00    +0.000 C 
ATOM     13  C   UNL     1       1.080   2.791  18.761  0.00  0.00    +0.000 C 
ENDBRANCH   3   6
BRANCH   1  14
ATOM     14  C   UNL     1       5.601   6.120  16.547  0.00  0.00    +0.000 C 
BRANCH  14  17
ATOM     15  C   UNL     1       7.183   4.955  15.116  0.00  0.00    +0.000 C 
ATOM     16  O   UNL     1       7.737   4.504  16.119  0.00  0.00    +0.000 OA
ATOM     17  N   UNL     1       6.073   5.768  15.223  0.00  0.00    +0.000 N 
ATOM     18  H   UNL     1       5.693   6.215  14.390  0.00  0.00    +0.000 HD
BRANCH  15  20
ATOM     19  C   UNL     1       8.164   5.809  12.959  0.00  0.00    +0.000 C 
ATOM     20  C   UNL     1       7.623   4.584  13.703  0.00  0.00    +0.000 C 
BRANCH  20  21
ATOM     21  N   UNL     1       6.547   3.917  12.983  0.00  0.00    +0.000 N 
ATOM     22  C   UNL     1       6.639   3.050  11.928  0.00  0.00    +0.000 A 
ATOM     23  C   UNL     1       5.361   2.612  11.675  0.00  0.00    +0.000 A 
ATOM     24  C   UNL     1       4.560   3.301  12.601  0.00  0.00    +0.000 A 
ATOM     25  N   UNL     1       5.268   4.126  13.377  0.00  0.00    +0.000 NA
ENDBRANCH  20  21
ENDBRANCH  15  20
ENDBRANCH  14  17
ENDBRANCH   1  14
TORSDOF 5
ENDMDL
MODEL 3
REMARK VINA RESULT:      -7.9      5.052      7.345
REMARK  Name = 
REMARK  6 active torsions:
REMARK  status: ('A' for Active; 'I' for Inactive)
REMARK    1  A    between atoms: C_1  and  C_2
REMARK    2  A    between atoms: C_2  and  C_3
REMARK    3  A    between atoms: C_2  and  N_20
REMARK    4  A    between atoms: N_5  and  C_6
REMARK    5  A    between atoms: C_6  and  C_7
REMARK    6  A    between atoms: C_9  and  C_10
REMARK                            x       y       z     vdW  Elec       q    Type
REMARK                         _______ _______ _______ _____ _____    ______ ____
ROOT
ATOM      1  C   UNL     1       3.065   7.188  17.886  0.00  0.00    +0.000 A 
ATOM      2  N   UNL     1       2.264   6.174  18.111  0.00  0.00    +0.000 NA
ATOM      3  C   UNL     1       3.086   5.098  17.908  0.00  0.00    +0.000 A 
ATOM      4  N   UNL     1       4.352   5.409  17.604  0.00  0.00    +0.000 NA
ATOM      5  O   UNL     1       4.340   6.811  17.586  0.00  0.00    +0.000 OA
ENDROOT
BRANCH   3   6
ATOM      6  C   UNL     1       2.577   3.691  17.988  0.00  0.00    +0.000 C 
ATOM      7  C   UNL     1       1.152   3.625  18.572  0.00  0.00    +0.000 C 
ATOM      8  C   UNL     1       1.097   3.930  20.070  0.00  0.00    +0.000 C 
ATOM      9  C   UNL     1       2.093   3.094  20.860  0.00  0.00    +0.000 C 
ATOM     10  F   UNL     1       1.640   1.811  20.894  0.00  0.00    +0.000 F 
ATOM     11  F   UNL     1       2.120   3.522  22.147  0.00  0.00    +0.000 F 
ATOM     12  C   UNL     1       3.504   3.090  20.296  0.00  0.00    +0.000 C 
ATOM     13  C   UNL     1       3.522   2.786  18.796  0.00  0.00    +0.000 C 
ENDBRANCH   3   6
BRANCH   1  14
ATOM     14  C   UNL     1       2.732   8.626  17.774  0.00  0.00    +0.000 C 
BRANCH  14  17
ATOM     15  C   UNL     1       1.267  10.330  18.704  0.00  0.00    +0.000 C 
ATOM     16  O   UNL     1       1.993  11.199  18.218  0.00  0.00    +0.000 OA
ATOM     17  N   UNL     1       1.541   8.990  18.515  0.00  0.00    +0.000 N 
ATOM     18  H   UNL     1       0.993   8.288  19.010  0.00  0.00    +0.000 HD
BRANCH  15  20
ATOM     19  C   UNL     1      -0.233   9.689  20.623  0.00  0.00    +0.000 C 
ATOM     20  C   UNL     1      -0.014  10.663  19.462  0.00  0.00    +0.000 C 
BRANCH  20  21
ATOM     21  N   UNL     1      -1.152  10.726  18.555  0.00  0.00    +0.000 N 
ATOM     22  C   UNL     1      -2.242  11.552  18.613  0.00  0.00    +0.000 A 
ATOM     23  C   UNL     1      -2.976  11.302  17.479  0.00  0.00    +0.000 A 
ATOM     24  C   UNL     1      -2.274  10.280  16.818  0.00  0.00    +0.000 A 
ATOM     25  N   UNL     1      -1.181   9.897  17.484  0.00  0.00    +0.000 NA
ENDBRANCH  20  21
ENDBRANCH  15  20
ENDBRANCH  14  17
ENDBRANCH   1  14
TORSDOF 5
ENDMDL
MODEL 4
REMARK VINA RESULT:      -7.8      4.940      7.809
REMARK  Name = 
REMARK  6 active torsions:
REMARK  status: ('A' for Active; 'I' for Inactive)
REMARK    1  A    between atoms: C_1  and  C_2
REMARK    2  A    between atoms: C_2  and  C_3
REMARK    3  A    between atoms: C_2  and  N_20
REMARK    4  A    between atoms: N_5  and  C_6
REMARK    5  A    between atoms: C_6  and  C_7
REMARK    6  A    between atoms: C_9  and  C_10
REMARK                            x       y       z     vdW  Elec       q    Type
REMARK                         _______ _______ _______ _____ _____    ______ ____
ROOT
ATOM      1  C   UNL     1       3.003   7.195  17.850  0.00  0.00    +0.000 A 
ATOM      2  N   UNL     1       2.221   6.180  18.134  0.00  0.00    +0.000 NA
ATOM      3  C   UNL     1       3.014   5.104  17.835  0.00  0.00    +0.000 A 
ATOM      4  N   UNL     1       4.248   5.416  17.418  0.00  0.00    +0.000 NA
ATOM      5  O   UNL     1       4.241   6.818  17.425  0.00  0.00    +0.000 OA
ENDROOT
BRANCH   3   6
ATOM      6  C   UNL     1       2.507   3.698  17.939  0.00  0.00    +0.000 C 
ATOM      7  C   UNL     1       1.103   3.636  18.573  0.00  0.00    +0.000 C 
ATOM      8  C   UNL     1       1.101   3.948  20.071  0.00  0.00    +0.000 C 
ATOM      9  C   UNL     1       2.124   3.115  20.829  0.00  0.00    +0.000 C 
ATOM     10  F   UNL     1       1.672   1.832  20.884  0.00  0.00    +0.000 F 
ATOM     11  F   UNL     1       2.196   3.548  22.113  0.00  0.00    +0.000 F 
ATOM     12  C   UNL     1       3.514   3.107  20.216  0.00  0.00    +0.000 C 
ATOM     13  C   UNL     1       3.479   2.797  18.718  0.00  0.00    +0.000 C 
ENDBRANCH   3   6
BRANCH   1  14
ATOM     14  C   UNL     1       2.668   8.636  17.795  0.00  0.00    +0.000 C 
BRANCH  14  17
ATOM     15  C   UNL     1       1.110  10.264  18.707  0.00  0.00    +0.000 C 
ATOM     16  O   UNL     1       1.897  11.164  18.410  0.00  0.00    +0.000 OA
ATOM     17  N   UNL     1       1.397   8.946  18.416  0.00  0.00    +0.000 N 
ATOM     18  H   UNL     1       0.785   8.208  18.763  0.00  0.00    +0.000 HD
BRANCH  15  20
ATOM     19  C   UNL     1      -0.766  11.930  18.928  0.00  0.00    +0.000 C 
ATOM     20  C   UNL     1      -0.254  10.544  19.331  0.00  0.00    +0.000 C 
BRANCH  20  21
ATOM     21  N   UNL     1      -0.212  10.356  20.775  0.00  0.00    +0.000 N 
ATOM     22  C   UNL     1      -0.884  11.052  21.743  0.00  0.00    +0.000 A 
ATOM     23  C   UNL     1      -0.598  10.430  22.934  0.00  0.00    +0.000 A 
ATOM     24  C   UNL     1       0.286   9.393  22.591  0.00  0.00    +0.000 A 
ATOM     25  N   UNL     1       0.556   9.363  21.283  0.00  0.00    +0.000 NA
ENDBRANCH  20  21
ENDBRANCH  15  20
ENDBRANCH  14  17
ENDBRANCH   1  14
TORSDOF 5
ENDMDL
MODEL 5
REMARK VINA RESULT:      -7.8      5.323      8.246
REMARK  Name = 
REMARK  6 active torsions:
REMARK  status: ('A' for Active; 'I' for Inactive)
REMARK    1  A    between atoms: C_1  and  C_2
REMARK    2  A    between atoms: C_2  and  C_3
REMARK    3  A    between atoms: C_2  and  N_20
REMARK    4  A    between atoms: N_5  and  C_6
REMARK    5  A    between atoms: C_6  and  C_7
REMARK    6  A    between atoms: C_9  and  C_10
REMARK                            x       y       z     vdW  Elec       q    Type
REMARK                         _______ _______ _______ _____ _____    ______ ____
ROOT
ATOM      1  C   UNL     1       2.548   8.006  18.254  0.00  0.00    +0.000 A 
ATOM      2  N   UNL     1       2.153   7.227  19.233  0.00  0.00    +0.000 NA
ATOM      3  C   UNL     1       3.038   6.185  19.157  0.00  0.00    +0.000 A 
ATOM      4  N   UNL     1       3.971   6.310  18.204  0.00  0.00    +0.000 NA
ATOM      5  O   UNL     1       3.642   7.530  17.595  0.00  0.00    +0.000 OA
ENDROOT
BRANCH   3   6
ATOM      6  C   UNL     1       2.931   4.991  20.056  0.00  0.00    +0.000 C 
ATOM      7  C   UNL     1       4.031   3.951  19.767  0.00  0.00    +0.000 C 
ATOM      8  C   UNL     1       3.828   3.208  18.444  0.00  0.00    +0.000 C 
ATOM      9  C   UNL     1       2.426   2.629  18.322  0.00  0.00    +0.000 C 
ATOM     10  F   UNL     1       2.328   1.570  19.172  0.00  0.00    +0.000 F 
ATOM     11  F   UNL     1       2.250   2.133  17.073  0.00  0.00    +0.000 F 
ATOM     12  C   UNL     1       1.308   3.606  18.644  0.00  0.00    +0.000 C 
ATOM     13  C   UNL     1       1.544   4.334  19.970  0.00  0.00    +0.000 C 
ENDBRANCH   3   6
BRANCH   1  14
ATOM     14  C   UNL     1       1.888   9.212  17.704  0.00  0.00    +0.000 C 
BRANCH  14  17
ATOM     15  C   UNL     1      -0.070  10.341  18.600  0.00  0.00    +0.000 C 
ATOM     16  O   UNL     1      -0.737   9.896  17.665  0.00  0.00    +0.000 OA
ATOM     17  N   UNL     1       1.269  10.032  18.726  0.00  0.00    +0.000 N 
ATOM     18  H   UNL     1       1.828  10.492  19.444  0.00  0.00    +0.000 HD
BRANCH  15  20
ATOM     19  C   UNL     1      -0.118  12.602  19.708  0.00  0.00    +0.000 C 
ATOM     20  C   UNL     1      -0.685  11.179  19.716  0.00  0.00    +0.000 C 
BRANCH  20  21
ATOM     21  N   UNL     1      -0.531  10.519  21.006  0.00  0.00    +0.000 N 
ATOM     22  C   UNL     1      -0.623  11.065  22.257  0.00  0.00    +0.000 A 
ATOM     23  C   UNL     1      -0.511  10.021  23.143  0.00  0.00    +0.000 A 
ATOM     24  C   UNL     1      -0.314   8.888  22.335  0.00  0.00    +0.000 A 
ATOM     25  N   UNL     1      -0.287   9.187  21.033  0.00  0.00    +0.000 NA
ENDBRANCH  20  21
ENDBRANCH  15  20
ENDBRANCH  14  17
ENDBRANCH   1  14
TORSDOF 5
ENDMDL
MODEL 6
REMARK VINA RESULT:      -7.7      5.831      7.954
REMARK  Name = 
REMARK  6 active torsions:
REMARK  status: ('A' for Active; 'I' for Inactive)
REMARK    1  A    between atoms: C_1  and  C_2
REMARK    2  A    between atoms: C_2  and  C_3
REMARK    3  A    between atoms: C_2  and  N_20
REMARK    4  A    between atoms: N_5  and  C_6
REMARK    5  A    between atoms: C_6  and  C_7
REMARK    6  A    between atoms: C_9  and  C_10
REMARK                            x       y       z     vdW  Elec       q    Type
REMARK                         _______ _______ _______ _____ _____    ______ ____
ROOT
ATOM      1  C   UNL     1       2.010   8.199  18.652  0.00  0.00    +0.000 A 
ATOM      2  N   UNL     1       2.669   7.104  18.359  0.00  0.00    +0.000 NA
ATOM      3  C   UNL     1       2.595   6.393  19.527  0.00  0.00    +0.000 A 
ATOM      4  N   UNL     1       1.895   6.988  20.501  0.00  0.00    +0.000 NA
ATOM      5  O   UNL     1       1.504   8.201  19.918  0.00  0.00    +0.000 OA
ENDROOT
BRANCH   3   6
ATOM      6  C   UNL     1       3.283   5.072  19.691  0.00  0.00    +0.000 C 
ATOM      7  C   UNL     1       3.382   4.304  18.358  0.00  0.00    +0.000 C 
ATOM      8  C   UNL     1       2.037   3.756  17.875  0.00  0.00    +0.000 C 
ATOM      9  C   UNL     1       1.320   2.963  18.958  0.00  0.00    +0.000 C 
ATOM     10  F   UNL     1       1.976   1.782  19.125  0.00  0.00    +0.000 F 
ATOM     11  F   UNL     1       0.071   2.648  18.534  0.00  0.00    +0.000 F 
ATOM     12  C   UNL     1       1.239   3.661  20.305  0.00  0.00    +0.000 C 
ATOM     13  C   UNL     1       2.598   4.200  20.756  0.00  0.00    +0.000 C 
ENDBRANCH   3   6
BRANCH   1  14
ATOM     14  C   UNL     1       1.881   9.445  17.862  0.00  0.00    +0.000 C 
BRANCH  14  17
ATOM     15  C   UNL     1       0.412  11.181  18.719  0.00  0.00    +0.000 C 
ATOM     16  O   UNL     1       1.378  11.706  19.274  0.00  0.00    +0.000 OA
ATOM     17  N   UNL     1       0.564  10.041  17.957  0.00  0.00    +0.000 N 
ATOM     18  H   UNL     1      -0.259   9.563  17.594  0.00  0.00    +0.000 HD
BRANCH  15  20
ATOM     19  C   UNL     1      -1.520  11.835  20.197  0.00  0.00    +0.000 C 
ATOM     20  C   UNL     1      -0.986  11.791  18.762  0.00  0.00    +0.000 C 
BRANCH  20  21
ATOM     21  N   UNL     1      -1.883  11.098  17.848  0.00  0.00    +0.000 N 
ATOM     22  C   UNL     1      -2.738  10.064  18.116  0.00  0.00    +0.000 A 
ATOM     23  C   UNL     1      -3.441   9.834  16.958  0.00  0.00    +0.000 A 
ATOM     24  C   UNL     1      -2.912  10.750  16.033  0.00  0.00    +0.000 A 
ATOM     25  N   UNL     1      -1.937  11.499  16.556  0.00  0.00    +0.000 NA
ENDBRANCH  20  21
ENDBRANCH  15  20
ENDBRANCH  14  17
ENDBRANCH   1  14
TORSDOF 5
ENDMDL
MODEL 7
REMARK VINA RESULT:      -7.7      5.438      8.300
REMARK  Name = 
REMARK  6 active torsions:
REMARK  status: ('A' for Active; 'I' for Inactive)
REMARK    1  A    between atoms: C_1  and  C_2
REMARK    2  A    between atoms: C_2  and  C_3
REMARK    3  A    between atoms: C_2  and  N_20
REMARK    4  A    between atoms: N_5  and  C_6
REMARK    5  A    between atoms: C_6  and  C_7
REMARK    6  A    between atoms: C_9  and  C_10
REMARK                            x       y       z     vdW  Elec       q    Type
REMARK                         _______ _______ _______ _____ _____    ______ ____
ROOT
ATOM      1  C   UNL     1       2.422   8.084  18.254  0.00  0.00    +0.000 A 
ATOM      2  N   UNL     1       2.185   7.288  19.269  0.00  0.00    +0.000 NA
ATOM      3  C   UNL     1       3.094   6.283  19.075  0.00  0.00    +0.000 A 
ATOM      4  N   UNL     1       3.894   6.448  18.013  0.00  0.00    +0.000 NA
ATOM      5  O   UNL     1       3.442   7.654  17.459  0.00  0.00    +0.000 OA
ENDROOT
BRANCH   3   6
ATOM      6  C   UNL     1       3.149   5.085  19.973  0.00  0.00    +0.000 C 
ATOM      7  C   UNL     1       4.245   4.090  19.541  0.00  0.00    +0.000 C 
ATOM      8  C   UNL     1       3.909   3.342  18.249  0.00  0.00    +0.000 C 
ATOM      9  C   UNL     1       2.528   2.707  18.299  0.00  0.00    +0.000 C 
ATOM     10  F   UNL     1       2.580   1.642  19.147  0.00  0.00    +0.000 F 
ATOM     11  F   UNL     1       2.217   2.206  17.078  0.00  0.00    +0.000 F 
ATOM     12  C   UNL     1       1.420   3.636  18.765  0.00  0.00    +0.000 C 
ATOM     13  C   UNL     1       1.789   4.370  20.055  0.00  0.00    +0.000 C 
ENDBRANCH   3   6
BRANCH   1  14
ATOM     14  C   UNL     1       1.651   9.264  17.800  0.00  0.00    +0.000 C 
BRANCH  14  17
ATOM     15  C   UNL     1       1.208  11.208  19.191  0.00  0.00    +0.000 C 
ATOM     16  O   UNL     1       2.057  11.837  18.558  0.00  0.00    +0.000 OA
ATOM     17  N   UNL     1       0.909   9.900  18.870  0.00  0.00    +0.000 N 
ATOM     18  H   UNL     1       0.283   9.364  19.469  0.00  0.00    +0.000 HD
BRANCH  15  20
ATOM     19  C   UNL     1       0.936  13.219  20.683  0.00  0.00    +0.000 C 
ATOM     20  C   UNL     1       0.378  11.845  20.301  0.00  0.00    +0.000 C 
BRANCH  20  21
ATOM     21  N   UNL     1       0.262  10.946  21.442  0.00  0.00    +0.000 N 
ATOM     22  C   UNL     1      -0.794  10.792  22.299  0.00  0.00    +0.000 A 
ATOM     23  C   UNL     1      -0.463   9.753  23.135  0.00  0.00    +0.000 A 
ATOM     24  C   UNL     1       0.828   9.370  22.734  0.00  0.00    +0.000 A 
ATOM     25  N   UNL     1       1.293  10.116  21.728  0.00  0.00    +0.000 NA
ENDBRANCH  20  21
ENDBRANCH  15  20
ENDBRANCH  14  17
ENDBRANCH   1  14
TORSDOF 5
ENDMDL
MODEL 8
REMARK VINA RESULT:      -7.7      5.890      8.919
REMARK  Name = 
REMARK  6 active torsions:
REMARK  status: ('A' for Active; 'I' for Inactive)
REMARK    1  A    between atoms: C_1  and  C_2
REMARK    2  A    between atoms: C_2  and  C_3
REMARK    3  A    between atoms: C_2  and  N_20
REMARK    4  A    between atoms: N_5  and  C_6
REMARK    5  A    between atoms: C_6  and  C_7
REMARK    6  A    between atoms: C_9  and  C_10
REMARK                            x       y       z     vdW  Elec       q    Type
REMARK                         _______ _______ _______ _____ _____    ______ ____
ROOT
ATOM      1  C   UNL     1       2.623   8.042  18.044  0.00  0.00    +0.000 A 
ATOM      2  N   UNL     1       3.370   7.313  17.250  0.00  0.00    +0.000 NA
ATOM      3  C   UNL     1       3.631   6.211  18.020  0.00  0.00    +0.000 A 
ATOM      4  N   UNL     1       3.050   6.221  19.227  0.00  0.00    +0.000 NA
ATOM      5  O   UNL     1       2.376   7.450  19.246  0.00  0.00    +0.000 OA
ENDROOT
BRANCH   3   6
ATOM      6  C   UNL     1       4.527   5.109  17.543  0.00  0.00    +0.000 C 
ATOM      7  C   UNL     1       5.297   4.449  18.704  0.00  0.00    +0.000 C 
ATOM      8  C   UNL     1       6.393   5.342  19.290  0.00  0.00    +0.000 C 
ATOM      9  C   UNL     1       7.316   5.895  18.214  0.00  0.00    +0.000 C 
ATOM     10  F   UNL     1       8.099   4.877  17.761  0.00  0.00    +0.000 F 
ATOM     11  F   UNL     1       8.156   6.806  18.765  0.00  0.00    +0.000 F 
ATOM     12  C   UNL     1       6.601   6.515  17.025  0.00  0.00    +0.000 C 
ATOM     13  C   UNL     1       5.511   5.598  16.467  0.00  0.00    +0.000 C 
ENDBRANCH   3   6
BRANCH   1  14
ATOM     14  C   UNL     1       2.159   9.437  17.859  0.00  0.00    +0.000 C 
BRANCH  14  17
ATOM     15  C   UNL     1       0.705  11.025  18.988  0.00  0.00    +0.000 C 
ATOM     16  O   UNL     1       1.495  11.927  18.707  0.00  0.00    +0.000 OA
ATOM     17  N   UNL     1       0.938   9.726  18.582  0.00  0.00    +0.000 N 
ATOM     18  H   UNL     1       0.330   8.978  18.912  0.00  0.00    +0.000 HD
BRANCH  15  20
ATOM     19  C   UNL     1      -0.942  12.782  19.727  0.00  0.00    +0.000 C 
ATOM     20  C   UNL     1      -0.610  11.286  19.716  0.00  0.00    +0.000 C 
BRANCH  20  21
ATOM     21  N   UNL     1      -0.587  10.704  21.051  0.00  0.00    +0.000 N 
ATOM     22  C   UNL     1      -0.840  11.315  22.250  0.00  0.00    +0.000 A 
ATOM     23  C   UNL     1      -0.800  10.325  23.203  0.00  0.00    +0.000 A 
ATOM     24  C   UNL     1      -0.476   9.158  22.491  0.00  0.00    +0.000 A 
ATOM     25  N   UNL     1      -0.308   9.386  21.185  0.00  0.00    +0.000 NA
ENDBRANCH  20  21
ENDBRANCH  15  20
ENDBRANCH  14  17
ENDBRANCH   1  14
TORSDOF 5
ENDMDL
MODEL 9
REMARK VINA RESULT:      -7.6      5.487      8.266
REMARK  Name = 
REMARK  6 active torsions:
REMARK  status: ('A' for Active; 'I' for Inactive)
REMARK    1  A    between atoms: C_1  and  C_2
REMARK    2  A    between atoms: C_2  and  C_3
REMARK    3  A    between atoms: C_2  and  N_20
REMARK    4  A    between atoms: N_5  and  C_6
REMARK    5  A    between atoms: C_6  and  C_7
REMARK    6  A    between atoms: C_9  and  C_10
REMARK                            x       y       z     vdW  Elec       q    Type
REMARK                         _______ _______ _______ _____ _____    ______ ____
ROOT
ATOM      1  C   UNL     1       2.299   7.746  18.286  0.00  0.00    +0.000 A 
ATOM      2  N   UNL     1       3.020   6.837  17.673  0.00  0.00    +0.000 NA
ATOM      3  C   UNL     1       3.324   5.968  18.686  0.00  0.00    +0.000 A 
ATOM      4  N   UNL     1       2.794   6.285  19.875  0.00  0.00    +0.000 NA
ATOM      5  O   UNL     1       2.109   7.479  19.609  0.00  0.00    +0.000 OA
ENDROOT
BRANCH   3   6
ATOM      6  C   UNL     1       4.211   4.781  18.467  0.00  0.00    +0.000 C 
ATOM      7  C   UNL     1       3.895   4.061  17.141  0.00  0.00    +0.000 C 
ATOM      8  C   UNL     1       2.567   3.300  17.166  0.00  0.00    +0.000 C 
ATOM      9  C   UNL     1       2.459   2.381  18.373  0.00  0.00    +0.000 C 
ATOM     10  F   UNL     1       3.298   1.326  18.180  0.00  0.00    +0.000 F 
ATOM     11  F   UNL     1       1.206   1.864  18.435  0.00  0.00    +0.000 F 
ATOM     12  C   UNL     1       2.807   3.033  19.700  0.00  0.00    +0.000 C 
ATOM     13  C   UNL     1       4.136   3.788  19.639  0.00  0.00    +0.000 C 
ENDBRANCH   3   6
BRANCH   1  14
ATOM     14  C   UNL     1       1.813   9.047  17.773  0.00  0.00    +0.000 C 
BRANCH  14  17
ATOM     15  C   UNL     1       0.452  10.681  18.951  0.00  0.00    +0.000 C 
ATOM     16  O   UNL     1      -0.505  10.378  18.237  0.00  0.00    +0.000 OA
ATOM     17  N   UNL     1       1.669  10.046  18.812  0.00  0.00    +0.000 N 
ATOM     18  H   UNL     1       2.476  10.382  19.338  0.00  0.00    +0.000 HD
BRANCH  15  20
ATOM     19  C   UNL     1       1.584  12.592  20.139  0.00  0.00    +0.000 C 
ATOM     20  C   UNL     1       0.339  11.701  20.079  0.00  0.00    +0.000 C 
BRANCH  20  21
ATOM     21  N   UNL     1       0.055  11.043  21.347  0.00  0.00    +0.000 N 
ATOM     22  C   UNL     1      -1.029  11.209  22.167  0.00  0.00    +0.000 A 
ATOM     23  C   UNL     1      -0.890  10.290  23.180  0.00  0.00    +0.000 A 
ATOM     24  C   UNL     1       0.328   9.643  22.909  0.00  0.00    +0.000 A 
ATOM     25  N   UNL     1       0.928  10.121  21.815  0.00  0.00    +0.000 NA
ENDBRANCH  20  21
ENDBRANCH  15  20
ENDBRANCH  14  17
ENDBRANCH   1  14
TORSDOF 5
ENDMDL
