MODEL 1
REMARK VINA RESULT:      -7.0      0.000      0.000
REMARK  Name = 
REMARK  11 active torsions:
REMARK  status: ('A' for Active; 'I' for Inactive)
REMARK    1  A    between atoms: C_1  and  C_2
REMARK    2  A    between atoms: C_2  and  N_3
REMARK    3  A    between atoms: C_5  and  C_6
REMARK    4  A    between atoms: C_14  and  C_15
REMARK    5  A    between atoms: N_17  and  C_18
REMARK    6  A    between atoms: C_18  and  C_19
REMARK    7  A    between atoms: C_19  and  C_20
REMARK    8  A    between atoms: C_20  and  C_21
REMARK    9  A    between atoms: C_21  and  C_22
REMARK   10  A    between atoms: C_22  and  C_23
REMARK   11  A    between atoms: C_23  and  S_24
REMARK                            x       y       z     vdW  Elec       q    Type
REMARK                         _______ _______ _______ _____ _____    ______ ____
ROOT
ATOM      1  N   UNL     1       5.731   4.465  16.698  0.00  0.00    +0.000 N 
ATOM      2  N   UNL     1       4.767   3.721  17.278  0.00  0.00    +0.000 NA
ATOM      3  C   UNL     1       4.432   4.395  18.385  0.00  0.00    +0.000 A 
ATOM      4  C   UNL     1       5.191   5.582  18.490  0.00  0.00    +0.000 A 
ATOM      5  C   UNL     1       6.037   5.619  17.392  0.00  0.00    +0.000 A 
ENDROOT
BRANCH   3   6
ATOM      6  C   UNL     1       3.415   3.907  19.308  0.00  0.00    +0.000 A 
ATOM      7  C   UNL     1       2.929   4.737  20.328  0.00  0.00    +0.000 A 
ATOM      8  C   UNL     1       1.992   4.255  21.243  0.00  0.00    +0.000 A 
ATOM      9  C   UNL     1       1.542   2.946  21.134  0.00  0.00    +0.000 A 
ATOM     10  F   UNL     1       0.657   2.478  22.025  0.00  0.00    +0.000 F 
ATOM     11  C   UNL     1       1.990   2.114  20.114  0.00  0.00    +0.000 A 
ATOM     12  C   UNL     1       2.921   2.597  19.192  0.00  0.00    +0.000 A 
ENDBRANCH   3   6
BRANCH   5  13
ATOM     13  C   UNL     1       7.035   6.591  17.015  0.00  0.00    +0.000 C 
ATOM     14  O   UNL     1       7.803   6.438  16.063  0.00  0.00    +0.000 OA
ATOM     15  N   UNL     1       7.099   7.726  17.798  0.00  0.00    +0.000 N 
ATOM     16  H   UNL     1       6.474   7.836  18.585  0.00  0.00    +0.000 HD
BRANCH  15  17
ATOM     17  C   UNL     1       8.061   8.769  17.516  0.00  0.00    +0.000 C 
BRANCH  17  18
ATOM     18  C   UNL     1       8.748   9.281  18.780  0.00  0.00    +0.000 C 
BRANCH  18  19
ATOM     19  C   UNL     1       9.060  10.775  18.667  0.00  0.00    +0.000 C 
BRANCH  19  20
ATOM     20  C   UNL     1      10.347  11.021  17.880  0.00  0.00    +0.000 C 
BRANCH  20  21
ATOM     21  C   UNL     1      11.397  11.736  18.737  0.00  0.00    +0.000 C 
BRANCH  21  22
ATOM     22  C   UNL     1      12.071  12.855  17.946  0.00  0.00    +0.000 C 
BRANCH  22  23
ATOM     23  S   UNL     1      10.918  14.229  17.663  0.00  0.00    +0.000 S 
ATOM     24  H   UNL     1       9.796  13.495  17.652  0.00  0.00    +0.000 HD
ENDBRANCH  22  23
ENDBRANCH  21  22
ENDBRANCH  20  21
ENDBRANCH  19  20
ENDBRANCH  18  19
ENDBRANCH  17  18
ENDBRANCH  15  17
ENDBRANCH   5  13
BRANCH   1  26
ATOM     25  C   UNL     1       5.551   4.275  14.250  0.00  0.00    +0.000 C 
ATOM     26  C   UNL     1       6.350   3.927  15.495  0.00  0.00    +0.000 C 
ENDBRANCH   1  26
TORSDOF 10
ENDMDL
MODEL 2
REMARK VINA RESULT:      -6.9      5.142      8.541
REMARK  Name = 
REMARK  11 active torsions:
REMARK  status: ('A' for Active; 'I' for Inactive)
REMARK    1  A    between atoms: C_1  and  C_2
REMARK    2  A    between atoms: C_2  and  N_3
REMARK    3  A    between atoms: C_5  and  C_6
REMARK    4  A    between atoms: C_14  and  C_15
REMARK    5  A    between atoms: N_17  and  C_18
REMARK    6  A    between atoms: C_18  and  C_19
REMARK    7  A    between atoms: C_19  and  C_20
REMARK    8  A    between atoms: C_20  and  C_21
REMARK    9  A    between atoms: C_21  and  C_22
REMARK   10  A    between atoms: C_22  and  C_23
REMARK   11  A    between atoms: C_23  and  S_24
REMARK                            x       y       z     vdW  Elec       q    Type
REMARK                         _______ _______ _______ _____ _____    ______ ____
ROOT
ATOM      1  N   UNL     1       5.860   5.469  18.126  0.00  0.00    +0.000 N 
ATOM      2  N   UNL     1       6.626   5.142  17.064  0.00  0.00    +0.000 NA
ATOM      3  C   UNL     1       5.779   5.107  16.028  0.00  0.00    +0.000 A 
ATOM      4  C   UNL     1       4.469   5.426  16.449  0.00  0.00    +0.000 A 
ATOM      5  C   UNL     1       4.528   5.656  17.815  0.00  0.00    +0.000 A 
ENDROOT
BRANCH   3   6
ATOM      6  C   UNL     1       6.224   4.773  14.680  0.00  0.00    +0.000 A 
ATOM      7  C   UNL     1       5.520   3.830  13.917  0.00  0.00    +0.000 A 
ATOM      8  C   UNL     1       5.973   3.473  12.647  0.00  0.00    +0.000 A 
ATOM      9  C   UNL     1       7.124   4.062  12.141  0.00  0.00    +0.000 A 
ATOM     10  F   UNL     1       7.568   3.703  10.929  0.00  0.00    +0.000 F 
ATOM     11  C   UNL     1       7.822   5.018  12.869  0.00  0.00    +0.000 A 
ATOM     12  C   UNL     1       7.366   5.384  14.138  0.00  0.00    +0.000 A 
ENDBRANCH   3   6
BRANCH   5  13
ATOM     13  C   UNL     1       3.482   5.994  18.750  0.00  0.00    +0.000 C 
ATOM     14  O   UNL     1       2.889   7.074  18.739  0.00  0.00    +0.000 OA
ATOM     15  N   UNL     1       3.177   5.030  19.690  0.00  0.00    +0.000 N 
ATOM     16  H   UNL     1       3.679   4.153  19.699  0.00  0.00    +0.000 HD
BRANCH  15  17
ATOM     17  C   UNL     1       2.146   5.257  20.679  0.00  0.00    +0.000 C 
BRANCH  17  18
ATOM     18  C   UNL     1       1.173   4.085  20.782  0.00  0.00    +0.000 C 
BRANCH  18  19
ATOM     19  C   UNL     1       0.793   3.566  19.393  0.00  0.00    +0.000 C 
BRANCH  19  20
ATOM     20  C   UNL     1       1.351   2.165  19.145  0.00  0.00    +0.000 C 
BRANCH  20  21
ATOM     21  C   UNL     1       2.381   2.166  18.011  0.00  0.00    +0.000 C 
BRANCH  21  22
ATOM     22  C   UNL     1       3.632   1.391  18.416  0.00  0.00    +0.000 C 
BRANCH  22  23
ATOM     23  S   UNL     1       4.377   2.101  19.911  0.00  0.00    +0.000 S 
ATOM     24  H   UNL     1       3.263   2.676  20.387  0.00  0.00    +0.000 HD
ENDBRANCH  22  23
ENDBRANCH  21  22
ENDBRANCH  20  21
ENDBRANCH  19  20
ENDBRANCH  18  19
ENDBRANCH  17  18
ENDBRANCH  15  17
ENDBRANCH   5  13
BRANCH   1  26
ATOM     25  C   UNL     1       7.990   5.833  19.306  0.00  0.00    +0.000 C 
ATOM     26  C   UNL     1       6.511   5.505  19.427  0.00  0.00    +0.000 C 
ENDBRANCH   1  26
TORSDOF 10
ENDMDL
MODEL 3
REMARK VINA RESULT:      -6.9      4.281      5.650
REMARK  Name = 
REMARK  11 active torsions:
REMARK  status: ('A' for Active; 'I' for Inactive)
REMARK    1  A    between atoms: C_1  and  C_2
REMARK    2  A    between atoms: C_2  and  N_3
REMARK    3  A    between atoms: C_5  and  C_6
REMARK    4  A    between atoms: C_14  and  C_15
REMARK    5  A    between atoms: N_17  and  C_18
REMARK    6  A    between atoms: C_18  and  C_19
REMARK    7  A    between atoms: C_19  and  C_20
REMARK    8  A    between atoms: C_20  and  C_21
REMARK    9  A    between atoms: C_21  and  C_22
REMARK   10  A    between atoms: C_22  and  C_23
REMARK   11  A    between atoms: C_23  and  S_24
REMARK                            x       y       z     vdW  Elec       q    Type
REMARK                         _______ _______ _______ _____ _____    ______ ____
ROOT
ATOM      1  N   UNL     1       2.186   5.629  20.348  0.00  0.00    +0.000 N 
ATOM      2  N   UNL     1       1.367   6.442  21.047  0.00  0.00    +0.000 NA
ATOM      3  C   UNL     1       1.496   7.641  20.465  0.00  0.00    +0.000 A 
ATOM      4  C   UNL     1       2.401   7.570  19.383  0.00  0.00    +0.000 A 
ATOM      5  C   UNL     1       2.849   6.260  19.315  0.00  0.00    +0.000 A 
ENDROOT
BRANCH   3   6
ATOM      6  C   UNL     1       0.771   8.812  20.943  0.00  0.00    +0.000 A 
ATOM      7  C   UNL     1       0.501   8.967  22.310  0.00  0.00    +0.000 A 
ATOM      8  C   UNL     1      -0.236  10.062  22.762  0.00  0.00    +0.000 A 
ATOM      9  C   UNL     1      -0.699  10.999  21.849  0.00  0.00    +0.000 A 
ATOM     10  F   UNL     1      -1.424  12.039  22.283  0.00  0.00    +0.000 F 
ATOM     11  C   UNL     1      -0.421  10.879  20.492  0.00  0.00    +0.000 A 
ATOM     12  C   UNL     1       0.325   9.789  20.037  0.00  0.00    +0.000 A 
ENDBRANCH   3   6
BRANCH   5  13
ATOM     13  C   UNL     1       3.795   5.643  18.417  0.00  0.00    +0.000 C 
ATOM     14  O   UNL     1       3.466   5.071  17.376  0.00  0.00    +0.000 OA
ATOM     15  N   UNL     1       5.121   5.714  18.795  0.00  0.00    +0.000 N 
ATOM     16  H   UNL     1       5.380   6.173  19.657  0.00  0.00    +0.000 HD
BRANCH  15  17
ATOM     17  C   UNL     1       6.160   5.130  17.973  0.00  0.00    +0.000 C 
BRANCH  17  18
ATOM     18  C   UNL     1       6.973   6.188  17.230  0.00  0.00    +0.000 C 
BRANCH  18  19
ATOM     19  C   UNL     1       7.824   7.007  18.203  0.00  0.00    +0.000 C 
BRANCH  19  20
ATOM     20  C   UNL     1       7.913   8.471  17.774  0.00  0.00    +0.000 C 
BRANCH  20  21
ATOM     21  C   UNL     1       8.773   9.287  18.746  0.00  0.00    +0.000 C 
BRANCH  21  22
ATOM     22  C   UNL     1       9.132  10.643  18.143  0.00  0.00    +0.000 C 
BRANCH  22  23
ATOM     23  S   UNL     1      10.212  11.580  19.262  0.00  0.00    +0.000 S 
ATOM     24  H   UNL     1       9.761  11.045  20.405  0.00  0.00    +0.000 HD
ENDBRANCH  22  23
ENDBRANCH  21  22
ENDBRANCH  20  21
ENDBRANCH  19  20
ENDBRANCH  18  19
ENDBRANCH  17  18
ENDBRANCH  15  17
ENDBRANCH   5  13
BRANCH   1  26
ATOM     25  C   UNL     1       1.114   3.413  20.405  0.00  0.00    +0.000 C 
ATOM     26  C   UNL     1       2.311   4.255  20.814  0.00  0.00    +0.000 C 
ENDBRANCH   1  26
TORSDOF 10
ENDMDL
MODEL 4
REMARK VINA RESULT:      -6.7      5.323      7.618
REMARK  Name = 
REMARK  11 active torsions:
REMARK  status: ('A' for Active; 'I' for Inactive)
REMARK    1  A    between atoms: C_1  and  C_2
REMARK    2  A    between atoms: C_2  and  N_3
REMARK    3  A    between atoms: C_5  and  C_6
REMARK    4  A    between atoms: C_14  and  C_15
REMARK    5  A    between atoms: N_17  and  C_18
REMARK    6  A    between atoms: C_18  and  C_19
REMARK    7  A    between atoms: C_19  and  C_20
REMARK    8  A    between atoms: C_20  and  C_21
REMARK    9  A    between atoms: C_21  and  C_22
REMARK   10  A    between atoms: C_22  and  C_23
REMARK   11  A    between atoms: C_23  and  S_24
REMARK                            x       y       z     vdW  Elec       q    Type
REMARK                         _______ _______ _______ _____ _____    ______ ____
ROOT
ATOM      1  N   UNL     1       4.827   5.246  18.199  0.00  0.00    +0.000 N 
ATOM      2  N   UNL     1       3.862   5.882  18.895  0.00  0.00    +0.000 NA
ATOM      3  C   UNL     1       3.541   6.944  18.147  0.00  0.00    +0.000 A 
ATOM      4  C   UNL     1       4.311   6.965  16.963  0.00  0.00    +0.000 A 
ATOM      5  C   UNL     1       5.148   5.861  17.006  0.00  0.00    +0.000 A 
ENDROOT
BRANCH   3   6
ATOM      6  C   UNL     1       2.527   7.905  18.565  0.00  0.00    +0.000 A 
ATOM      7  C   UNL     1       2.002   7.857  19.865  0.00  0.00    +0.000 A 
ATOM      8  C   UNL     1       0.996   8.744  20.251  0.00  0.00    +0.000 A 
ATOM      9  C   UNL     1       0.521   9.676  19.340  0.00  0.00    +0.000 A 
ATOM     10  F   UNL     1      -0.460  10.514  19.706  0.00  0.00    +0.000 F 
ATOM     11  C   UNL     1       1.045   9.758  18.055  0.00  0.00    +0.000 A 
ATOM     12  C   UNL     1       2.059   8.878  17.668  0.00  0.00    +0.000 A 
ENDBRANCH   3   6
BRANCH   5  13
ATOM     13  C   UNL     1       6.151   5.414  16.069  0.00  0.00    +0.000 C 
ATOM     14  O   UNL     1       7.280   5.904  16.002  0.00  0.00    +0.000 OA
ATOM     15  N   UNL     1       5.774   4.391  15.222  0.00  0.00    +0.000 N 
ATOM     16  H   UNL     1       4.841   4.004  15.276  0.00  0.00    +0.000 HD
BRANCH  15  17
ATOM     17  C   UNL     1       6.696   3.860  14.241  0.00  0.00    +0.000 C 
BRANCH  17  18
ATOM     18  C   UNL     1       6.228   4.114  12.810  0.00  0.00    +0.000 C 
BRANCH  18  19
ATOM     19  C   UNL     1       4.797   3.611  12.605  0.00  0.00    +0.000 C 
BRANCH  19  20
ATOM     20  C   UNL     1       4.616   2.983  11.223  0.00  0.00    +0.000 C 
BRANCH  20  21
ATOM     21  C   UNL     1       3.227   3.285  10.650  0.00  0.00    +0.000 C 
BRANCH  21  22
ATOM     22  C   UNL     1       3.336   3.857   9.239  0.00  0.00    +0.000 C 
BRANCH  22  23
ATOM     23  S   UNL     1       2.078   5.136   8.962  0.00  0.00    +0.000 S 
ATOM     24  H   UNL     1       1.363   4.462   8.052  0.00  0.00    +0.000 HD
ENDBRANCH  22  23
ENDBRANCH  21  22
ENDBRANCH  20  21
ENDBRANCH  19  20
ENDBRANCH  18  19
ENDBRANCH  17  18
ENDBRANCH  15  17
ENDBRANCH   5  13
BRANCH   1  26
ATOM     25  C   UNL     1       4.381   3.129  19.372  0.00  0.00    +0.000 C 
ATOM     26  C   UNL     1       5.432   4.077  18.820  0.00  0.00    +0.000 C 
ENDBRANCH   1  26
TORSDOF 10
ENDMDL
MODEL 5
REMARK VINA RESULT:      -6.6      1.244      1.543
REMARK  Name = 
REMARK  11 active torsions:
REMARK  status: ('A' for Active; 'I' for Inactive)
REMARK    1  A    between atoms: C_1  and  C_2
REMARK    2  A    between atoms: C_2  and  N_3
REMARK    3  A    between atoms: C_5  and  C_6
REMARK    4  A    between atoms: C_14  and  C_15
REMARK    5  A    between atoms: N_17  and  C_18
REMARK    6  A    between atoms: C_18  and  C_19
REMARK    7  A    between atoms: C_19  and  C_20
REMARK    8  A    between atoms: C_20  and  C_21
REMARK    9  A    between atoms: C_21  and  C_22
REMARK   10  A    between atoms: C_22  and  C_23
REMARK   11  A    between atoms: C_23  and  S_24
REMARK                            x       y       z     vdW  Elec       q    Type
REMARK                         _______ _______ _______ _____ _____    ______ ____
ROOT
ATOM      1  N   UNL     1       5.095   5.190  16.675  0.00  0.00    +0.000 N 
ATOM      2  N   UNL     1       4.085   4.511  17.256  0.00  0.00    +0.000 NA
ATOM      3  C   UNL     1       4.222   4.744  18.567  0.00  0.00    +0.000 A 
ATOM      4  C   UNL     1       5.329   5.588  18.805  0.00  0.00    +0.000 A 
ATOM      5  C   UNL     1       5.894   5.872  17.571  0.00  0.00    +0.000 A 
ENDROOT
BRANCH   3   6
ATOM      6  C   UNL     1       3.316   4.167  19.552  0.00  0.00    +0.000 A 
ATOM      7  C   UNL     1       3.700   3.039  20.291  0.00  0.00    +0.000 A 
ATOM      8  C   UNL     1       2.815   2.455  21.198  0.00  0.00    +0.000 A 
ATOM      9  C   UNL     1       1.551   3.002  21.367  0.00  0.00    +0.000 A 
ATOM     10  F   UNL     1       0.694   2.428  22.223  0.00  0.00    +0.000 F 
ATOM     11  C   UNL     1       1.158   4.135  20.663  0.00  0.00    +0.000 A 
ATOM     12  C   UNL     1       2.045   4.727  19.761  0.00  0.00    +0.000 A 
ENDBRANCH   3   6
BRANCH   5  13
ATOM     13  C   UNL     1       7.052   6.665  17.236  0.00  0.00    +0.000 C 
ATOM     14  O   UNL     1       7.735   6.472  16.228  0.00  0.00    +0.000 OA
ATOM     15  N   UNL     1       7.375   7.670  18.126  0.00  0.00    +0.000 N 
ATOM     16  H   UNL     1       6.817   7.811  18.957  0.00  0.00    +0.000 HD
BRANCH  15  17
ATOM     17  C   UNL     1       8.515   8.529  17.894  0.00  0.00    +0.000 C 
BRANCH  17  18
ATOM     18  C   UNL     1       8.181  10.005  18.101  0.00  0.00    +0.000 C 
BRANCH  18  19
ATOM     19  C   UNL     1       9.372  10.758  18.697  0.00  0.00    +0.000 C 
BRANCH  19  20
ATOM     20  C   UNL     1       9.693  12.021  17.900  0.00  0.00    +0.000 C 
BRANCH  20  21
ATOM     21  C   UNL     1       8.434  12.855  17.642  0.00  0.00    +0.000 C 
BRANCH  21  22
ATOM     22  C   UNL     1       8.626  14.289  18.130  0.00  0.00    +0.000 C 
BRANCH  22  23
ATOM     23  S   UNL     1       9.874  14.362  19.446  0.00  0.00    +0.000 S 
ATOM     24  H   UNL     1       9.072  14.860  20.398  0.00  0.00    +0.000 HD
ENDBRANCH  22  23
ENDBRANCH  21  22
ENDBRANCH  20  21
ENDBRANCH  19  20
ENDBRANCH  18  19
ENDBRANCH  17  18
ENDBRANCH  15  17
ENDBRANCH   5  13
BRANCH   1  26
ATOM     25  C   UNL     1       5.958   3.767  14.862  0.00  0.00    +0.000 C 
ATOM     26  C   UNL     1       5.243   5.055  15.233  0.00  0.00    +0.000 C 
ENDBRANCH   1  26
TORSDOF 10
ENDMDL
MODEL 6
REMARK VINA RESULT:      -6.6      4.388      6.459
REMARK  Name = 
REMARK  11 active torsions:
REMARK  status: ('A' for Active; 'I' for Inactive)
REMARK    1  A    between atoms: C_1  and  C_2
REMARK    2  A    between atoms: C_2  and  N_3
REMARK    3  A    between atoms: C_5  and  C_6
REMARK    4  A    between atoms: C_14  and  C_15
REMARK    5  A    between atoms: N_17  and  C_18
REMARK    6  A    between atoms: C_18  and  C_19
REMARK    7  A    between atoms: C_19  and  C_20
REMARK    8  A    between atoms: C_20  and  C_21
REMARK    9  A    between atoms: C_21  and  C_22
REMARK   10  A    between atoms: C_22  and  C_23
REMARK   11  A    between atoms: C_23  and  S_24
REMARK                            x       y       z     vdW  Elec       q    Type
REMARK                         _______ _______ _______ _____ _____    ______ ____
ROOT
ATOM      1  N   UNL     1       2.136   4.982  20.311  0.00  0.00    +0.000 N 
ATOM      2  N   UNL     1       1.414   5.978  20.864  0.00  0.00    +0.000 NA
ATOM      3  C   UNL     1       1.862   7.094  20.276  0.00  0.00    +0.000 A 
ATOM      4  C   UNL     1       2.870   6.787  19.336  0.00  0.00    +0.000 A 
ATOM      5  C   UNL     1       3.047   5.412  19.367  0.00  0.00    +0.000 A 
ENDROOT
BRANCH   3   6
ATOM      6  C   UNL     1       1.333   8.410  20.614  0.00  0.00    +0.000 A 
ATOM      7  C   UNL     1       1.099   8.755  21.953  0.00  0.00    +0.000 A 
ATOM      8  C   UNL     1       0.547   9.994  22.275  0.00  0.00    +0.000 A 
ATOM      9  C   UNL     1       0.232  10.887  21.260  0.00  0.00    +0.000 A 
ATOM     10  F   UNL     1      -0.318  12.069  21.569  0.00  0.00    +0.000 F 
ATOM     11  C   UNL     1       0.480  10.576  19.927  0.00  0.00    +0.000 A 
ATOM     12  C   UNL     1       1.042   9.339  19.602  0.00  0.00    +0.000 A 
ENDBRANCH   3   6
BRANCH   5  13
ATOM     13  C   UNL     1       3.959   4.572  18.630  0.00  0.00    +0.000 C 
ATOM     14  O   UNL     1       4.876   3.940  19.160  0.00  0.00    +0.000 OA
ATOM     15  N   UNL     1       3.760   4.515  17.265  0.00  0.00    +0.000 N 
ATOM     16  H   UNL     1       3.014   5.047  16.838  0.00  0.00    +0.000 HD
BRANCH  15  17
ATOM     17  C   UNL     1       4.613   3.704  16.423  0.00  0.00    +0.000 C 
BRANCH  17  18
ATOM     18  C   UNL     1       5.340   4.533  15.366  0.00  0.00    +0.000 C 
BRANCH  18  19
ATOM     19  C   UNL     1       6.857   4.378  15.498  0.00  0.00    +0.000 C 
BRANCH  19  20
ATOM     20  C   UNL     1       7.360   4.901  16.843  0.00  0.00    +0.000 C 
BRANCH  20  21
ATOM     21  C   UNL     1       7.036   6.387  17.022  0.00  0.00    +0.000 C 
BRANCH  21  22
ATOM     22  C   UNL     1       7.802   6.970  18.207  0.00  0.00    +0.000 C 
BRANCH  22  23
ATOM     23  S   UNL     1       7.938   5.754  19.548  0.00  0.00    +0.000 S 
ATOM     24  H   UNL     1       6.863   5.026  19.213  0.00  0.00    +0.000 HD
ENDBRANCH  22  23
ENDBRANCH  21  22
ENDBRANCH  20  21
ENDBRANCH  19  20
ENDBRANCH  18  19
ENDBRANCH  17  18
ENDBRANCH  15  17
ENDBRANCH   5  13
BRANCH   1  26
ATOM     25  C   UNL     1       0.905   2.875  19.983  0.00  0.00    +0.000 C 
ATOM     26  C   UNL     1       1.914   3.638  20.825  0.00  0.00    +0.000 C 
ENDBRANCH   1  26
TORSDOF 10
ENDMDL
MODEL 7
REMARK VINA RESULT:      -6.6      5.148      7.361
REMARK  Name = 
REMARK  11 active torsions:
REMARK  status: ('A' for Active; 'I' for Inactive)
REMARK    1  A    between atoms: C_1  and  C_2
REMARK    2  A    between atoms: C_2  and  N_3
REMARK    3  A    between atoms: C_5  and  C_6
REMARK    4  A    between atoms: C_14  and  C_15
REMARK    5  A    between atoms: N_17  and  C_18
REMARK    6  A    between atoms: C_18  and  C_19
REMARK    7  A    between atoms: C_19  and  C_20
REMARK    8  A    between atoms: C_20  and  C_21
REMARK    9  A    between atoms: C_21  and  C_22
REMARK   10  A    between atoms: C_22  and  C_23
REMARK   11  A    between atoms: C_23  and  S_24
REMARK                            x       y       z     vdW  Elec       q    Type
REMARK                         _______ _______ _______ _____ _____    ______ ____
ROOT
ATOM      1  N   UNL     1       2.318   5.778  19.967  0.00  0.00    +0.000 N 
ATOM      2  N   UNL     1       1.641   6.543  20.847  0.00  0.00    +0.000 NA
ATOM      3  C   UNL     1       1.594   7.757  20.284  0.00  0.00    +0.000 A 
ATOM      4  C   UNL     1       2.243   7.744  19.029  0.00  0.00    +0.000 A 
ATOM      5  C   UNL     1       2.715   6.455  18.831  0.00  0.00    +0.000 A 
ENDROOT
BRANCH   3   6
ATOM      6  C   UNL     1       0.946   8.887  20.938  0.00  0.00    +0.000 A 
ATOM      7  C   UNL     1       0.594   8.812  22.293  0.00  0.00    +0.000 A 
ATOM      8  C   UNL     1      -0.071   9.873  22.908  0.00  0.00    +0.000 A 
ATOM      9  C   UNL     1      -0.379  11.006  22.169  0.00  0.00    +0.000 A 
ATOM     10  F   UNL     1      -1.036  12.017  22.756  0.00  0.00    +0.000 F 
ATOM     11  C   UNL     1      -0.016  11.113  20.831  0.00  0.00    +0.000 A 
ATOM     12  C   UNL     1       0.658  10.055  20.215  0.00  0.00    +0.000 A 
ENDBRANCH   3   6
BRANCH   5  13
ATOM     13  C   UNL     1       3.466   5.895  17.733  0.00  0.00    +0.000 C 
ATOM     14  O   UNL     1       3.323   4.736  17.338  0.00  0.00    +0.000 OA
ATOM     15  N   UNL     1       4.384   6.736  17.137  0.00  0.00    +0.000 N 
ATOM     16  H   UNL     1       4.504   7.681  17.478  0.00  0.00    +0.000 HD
BRANCH  15  17
ATOM     17  C   UNL     1       5.194   6.285  16.027  0.00  0.00    +0.000 C 
BRANCH  17  18
ATOM     18  C   UNL     1       6.522   5.685  16.485  0.00  0.00    +0.000 C 
BRANCH  18  19
ATOM     19  C   UNL     1       6.896   4.469  15.634  0.00  0.00    +0.000 C 
BRANCH  19  20
ATOM     20  C   UNL     1       5.879   4.230  14.519  0.00  0.00    +0.000 C 
BRANCH  20  21
ATOM     21  C   UNL     1       6.546   4.248  13.140  0.00  0.00    +0.000 C 
BRANCH  21  22
ATOM     22  C   UNL     1       6.133   3.027  12.323  0.00  0.00    +0.000 C 
BRANCH  22  23
ATOM     23  S   UNL     1       4.495   3.271  11.579  0.00  0.00    +0.000 S 
ATOM     24  H   UNL     1       4.489   2.155  10.837  0.00  0.00    +0.000 HD
ENDBRANCH  22  23
ENDBRANCH  21  22
ENDBRANCH  20  21
ENDBRANCH  19  20
ENDBRANCH  18  19
ENDBRANCH  17  18
ENDBRANCH  15  17
ENDBRANCH   5  13
BRANCH   1  26
ATOM     25  C   UNL     1       1.317   3.591  20.492  0.00  0.00    +0.000 C 
ATOM     26  C   UNL     1       2.594   4.403  20.357  0.00  0.00    +0.000 C 
ENDBRANCH   1  26
TORSDOF 10
ENDMDL
MODEL 8
REMARK VINA RESULT:      -6.6      5.314      7.342
REMARK  Name = 
REMARK  11 active torsions:
REMARK  status: ('A' for Active; 'I' for Inactive)
REMARK    1  A    between atoms: C_1  and  C_2
REMARK    2  A    between atoms: C_2  and  N_3
REMARK    3  A    between atoms: C_5  and  C_6
REMARK    4  A    between atoms: C_14  and  C_15
REMARK    5  A    between atoms: N_17  and  C_18
REMARK    6  A    between atoms: C_18  and  C_19
REMARK    7  A    between atoms: C_19  and  C_20
REMARK    8  A    between atoms: C_20  and  C_21
REMARK    9  A    between atoms: C_21  and  C_22
REMARK   10  A    between atoms: C_22  and  C_23
REMARK   11  A    between atoms: C_23  and  S_24
REMARK                            x       y       z     vdW  Elec       q    Type
REMARK                         _______ _______ _______ _____ _____    ______ ____
ROOT
ATOM      1  N   UNL     1       2.626   4.905  19.819  0.00  0.00    +0.000 N 
ATOM      2  N   UNL     1       1.941   5.834  20.517  0.00  0.00    +0.000 NA
ATOM      3  C   UNL     1       2.108   6.972  19.832  0.00  0.00    +0.000 A 
ATOM      4  C   UNL     1       2.902   6.746  18.686  0.00  0.00    +0.000 A 
ATOM      5  C   UNL     1       3.238   5.401  18.686  0.00  0.00    +0.000 A 
ENDROOT
BRANCH   3   6
ATOM      6  C   UNL     1       1.523   8.232  20.274  0.00  0.00    +0.000 A 
ATOM      7  C   UNL     1       1.191   8.422  21.623  0.00  0.00    +0.000 A 
ATOM      8  C   UNL     1       0.585   9.608  22.039  0.00  0.00    +0.000 A 
ATOM      9  C   UNL     1       0.316  10.601  21.107  0.00  0.00    +0.000 A 
ATOM     10  F   UNL     1      -0.285  11.732  21.504  0.00  0.00    +0.000 F 
ATOM     11  C   UNL     1       0.661  10.444  19.769  0.00  0.00    +0.000 A 
ATOM     12  C   UNL     1       1.276   9.262  19.352  0.00  0.00    +0.000 A 
ENDBRANCH   3   6
BRANCH   5  13
ATOM     13  C   UNL     1       4.048   4.642  17.763  0.00  0.00    +0.000 C 
ATOM     14  O   UNL     1       3.586   3.791  17.000  0.00  0.00    +0.000 OA
ATOM     15  N   UNL     1       5.401   4.912  17.783  0.00  0.00    +0.000 N 
ATOM     16  H   UNL     1       5.773   5.601  18.422  0.00  0.00    +0.000 HD
BRANCH  15  17
ATOM     17  C   UNL     1       6.311   4.212  16.902  0.00  0.00    +0.000 C 
BRANCH  17  18
ATOM     18  C   UNL     1       6.970   5.146  15.889  0.00  0.00    +0.000 C 
BRANCH  18  19
ATOM     19  C   UNL     1       6.221   5.124  14.556  0.00  0.00    +0.000 C 
BRANCH  19  20
ATOM     20  C   UNL     1       6.098   3.704  14.004  0.00  0.00    +0.000 C 
BRANCH  20  21
ATOM     21  C   UNL     1       6.370   3.664  12.497  0.00  0.00    +0.000 C 
BRANCH  21  22
ATOM     22  C   UNL     1       5.487   2.622  11.815  0.00  0.00    +0.000 C 
BRANCH  22  23
ATOM     23  S   UNL     1       6.494   1.286  11.110  0.00  0.00    +0.000 S 
ATOM     24  H   UNL     1       5.477   0.559  10.626  0.00  0.00    +0.000 HD
ENDBRANCH  22  23
ENDBRANCH  21  22
ENDBRANCH  20  21
ENDBRANCH  19  20
ENDBRANCH  18  19
ENDBRANCH  17  18
ENDBRANCH  15  17
ENDBRANCH   5  13
BRANCH   1  26
ATOM     25  C   UNL     1       1.398   2.796  20.137  0.00  0.00    +0.000 C 
ATOM     26  C   UNL     1       2.685   3.564  20.381  0.00  0.00    +0.000 C 
ENDBRANCH   1  26
TORSDOF 10
ENDMDL
MODEL 9
REMARK VINA RESULT:      -6.6      7.817     10.084
REMARK  Name = 
REMARK  11 active torsions:
REMARK  status: ('A' for Active; 'I' for Inactive)
REMARK    1  A    between atoms: C_1  and  C_2
REMARK    2  A    between atoms: C_2  and  N_3
REMARK    3  A    between atoms: C_5  and  C_6
REMARK    4  A    between atoms: C_14  and  C_15
REMARK    5  A    between atoms: N_17  and  C_18
REMARK    6  A    between atoms: C_18  and  C_19
REMARK    7  A    between atoms: C_19  and  C_20
REMARK    8  A    between atoms: C_20  and  C_21
REMARK    9  A    between atoms: C_21  and  C_22
REMARK   10  A    between atoms: C_22  and  C_23
REMARK   11  A    between atoms: C_23  and  S_24
REMARK                            x       y       z     vdW  Elec       q    Type
REMARK                         _______ _______ _______ _____ _____    ______ ____
ROOT
ATOM      1  N   UNL     1       1.448   8.797  20.003  0.00  0.00    +0.000 N 
ATOM      2  N   UNL     1       2.168   7.668  19.839  0.00  0.00    +0.000 NA
ATOM      3  C   UNL     1       2.428   7.613  18.527  0.00  0.00    +0.000 A 
ATOM      4  C   UNL     1       1.868   8.729  17.865  0.00  0.00    +0.000 A 
ATOM      5  C   UNL     1       1.229   9.492  18.830  0.00  0.00    +0.000 A 
ENDROOT
BRANCH   3   6
ATOM      6  C   UNL     1       3.187   6.518  17.936  0.00  0.00    +0.000 A 
ATOM      7  C   UNL     1       4.384   6.777  17.251  0.00  0.00    +0.000 A 
ATOM      8  C   UNL     1       5.086   5.736  16.642  0.00  0.00    +0.000 A 
ATOM      9  C   UNL     1       4.592   4.441  16.721  0.00  0.00    +0.000 A 
ATOM     10  F   UNL     1       5.257   3.446  16.118  0.00  0.00    +0.000 F 
ATOM     11  C   UNL     1       3.422   4.159  17.416  0.00  0.00    +0.000 A 
ATOM     12  C   UNL     1       2.722   5.197  18.035  0.00  0.00    +0.000 A 
ENDBRANCH   3   6
BRANCH   5  13
ATOM     13  C   UNL     1       0.480  10.719  18.704  0.00  0.00    +0.000 C 
ATOM     14  O   UNL     1       0.876  11.802  19.141  0.00  0.00    +0.000 OA
ATOM     15  N   UNL     1      -0.739  10.620  18.064  0.00  0.00    +0.000 N 
ATOM     16  H   UNL     1      -1.061   9.725  17.721  0.00  0.00    +0.000 HD
BRANCH  15  17
ATOM     17  C   UNL     1      -1.578  11.784  17.878  0.00  0.00    +0.000 C 
BRANCH  17  18
ATOM     18  C   UNL     1      -2.990  11.572  18.420  0.00  0.00    +0.000 C 
BRANCH  18  19
ATOM     19  C   UNL     1      -4.009  11.507  17.280  0.00  0.00    +0.000 C 
BRANCH  19  20
ATOM     20  C   UNL     1      -5.396  11.115  17.788  0.00  0.00    +0.000 C 
BRANCH  20  21
ATOM     21  C   UNL     1      -5.817  11.977  18.983  0.00  0.00    +0.000 C 
BRANCH  21  22
ATOM     22  C   UNL     1      -7.316  11.848  19.243  0.00  0.00    +0.000 C 
BRANCH  22  23
ATOM     23  S   UNL     1      -7.629  11.249  20.928  0.00  0.00    +0.000 S 
ATOM     24  H   UNL     1      -8.947  11.495  20.942  0.00  0.00    +0.000 HD
ENDBRANCH  22  23
ENDBRANCH  21  22
ENDBRANCH  20  21
ENDBRANCH  19  20
ENDBRANCH  18  19
ENDBRANCH  17  18
ENDBRANCH  15  17
ENDBRANCH   5  13
BRANCH   1  26
ATOM     25  C   UNL     1      -0.407   8.443  21.581  0.00  0.00    +0.000 C 
ATOM     26  C   UNL     1       0.951   9.078  21.342  0.00  0.00    +0.000 C 
ENDBRANCH   1  26
TORSDOF 10
ENDMDL
