MODEL 1
REMARK VINA RESULT:      -6.6      0.000      0.000
REMARK  Name = 
REMARK  10 active torsions:
REMARK  status: ('A' for Active; 'I' for Inactive)
REMARK    1  A    between atoms: C_1  and  C_2
REMARK    2  A    between atoms: C_2  and  C_3
REMARK    3  A    between atoms: C_2  and  C_4
REMARK    4  A    between atoms: C_2  and  O_5
REMARK    5  A    between atoms: O_5  and  C_6
REMARK    6  A    between atoms: N_8  and  C_9
REMARK    7  A    between atoms: C_11  and  O_12
REMARK    8  A    between atoms: N_19  and  C_20
REMARK    9  A    between atoms: C_20  and  C_21
REMARK   10  A    between atoms: C_21  and  O_23
REMARK                            x       y       z     vdW  Elec       q    Type
REMARK                         _______ _______ _______ _____ _____    ______ ____
ROOT
ATOM      1  C   UNL     1       4.529   6.147  18.309  0.00  0.00    +0.000 C 
ATOM      2  C   UNL     1       3.121   6.581  18.744  0.00  0.00    +0.000 C 
ATOM      3  C   UNL     1       2.021   5.506  18.625  0.00  0.00    +0.000 C 
ATOM      4  C   UNL     1       2.093   4.466  19.726  0.00  0.00    +0.000 A 
ATOM      5  C   UNL     1       1.006   4.285  20.595  0.00  0.00    +0.000 A 
ATOM      6  C   UNL     1       1.075   3.361  21.639  0.00  0.00    +0.000 A 
ATOM      7  C   UNL     1       2.228   2.602  21.825  0.00  0.00    +0.000 A 
ATOM      8  C   UNL     1       3.297   2.729  20.939  0.00  0.00    +0.000 A 
ATOM      9  C   UNL     1       3.224   3.649  19.887  0.00  0.00    +0.000 A 
ATOM     10  N   UNL     1       4.278   3.807  18.956  0.00  0.00    +0.000 N 
ATOM     11  C   UNL     1       5.035   4.954  19.134  0.00  0.00    +0.000 C 
ATOM     12  O   UNL     1       5.985   5.011  19.912  0.00  0.00    +0.000 OA
ENDROOT
BRANCH   1  15
ATOM     13  C   UNL     1       5.594   6.246  16.090  0.00  0.00    +0.000 C 
ATOM     14  O   UNL     1       6.562   6.856  16.502  0.00  0.00    +0.000 OA
ATOM     15  N   UNL     1       4.571   5.829  16.883  0.00  0.00    +0.000 N 
ATOM     16  H   UNL     1       3.919   5.143  16.506  0.00  0.00    +0.000 HD
BRANCH  13  17
ATOM     17  O   UNL     1       5.406   5.822  14.818  0.00  0.00    +0.000 OA
BRANCH  17  19
ATOM     18  C   UNL     1       6.498   3.710  15.453  0.00  0.00    +0.000 C 
ATOM     19  C   UNL     1       6.197   4.705  14.322  0.00  0.00    +0.000 C 
ATOM     20  C   UNL     1       7.472   5.181  13.611  0.00  0.00    +0.000 C 
ATOM     21  C   UNL     1       5.318   3.991  13.282  0.00  0.00    +0.000 C 
ENDBRANCH  17  19
ENDBRANCH  13  17
ENDBRANCH   1  15
BRANCH   3  22
ATOM     22  O   UNL     1       2.043   4.919  17.322  0.00  0.00    +0.000 OA
ATOM     23  H   UNL     1       2.081   3.941  17.422  0.00  0.00    +0.000 HD
ENDBRANCH   3  22
BRANCH  10  24
ATOM     24  C   UNL     1       4.952   2.640  18.411  0.00  0.00    +0.000 C 
BRANCH  24  25
ATOM     25  C   UNL     1       3.916   1.626  17.921  0.00  0.00    +0.000 C 
ATOM     26  O   UNL     1       2.896   1.890  17.294  0.00  0.00    +0.000 OA
BRANCH  25  27
ATOM     27  O   UNL     1       4.236   0.345  18.237  0.00  0.00    +0.000 OA
ATOM     28  H   UNL     1       5.181   0.198  18.433  0.00  0.00    +0.000 HD
ENDBRANCH  25  27
ENDBRANCH  24  25
ENDBRANCH  10  24
TORSDOF 7
ENDMDL
MODEL 2
REMARK VINA RESULT:      -6.3      1.746      2.460
REMARK  Name = 
REMARK  10 active torsions:
REMARK  status: ('A' for Active; 'I' for Inactive)
REMARK    1  A    between atoms: C_1  and  C_2
REMARK    2  A    between atoms: C_2  and  C_3
REMARK    3  A    between atoms: C_2  and  C_4
REMARK    4  A    between atoms: C_2  and  O_5
REMARK    5  A    between atoms: O_5  and  C_6
REMARK    6  A    between atoms: N_8  and  C_9
REMARK    7  A    between atoms: C_11  and  O_12
REMARK    8  A    between atoms: N_19  and  C_20
REMARK    9  A    between atoms: C_20  and  C_21
REMARK   10  A    between atoms: C_21  and  O_23
REMARK                            x       y       z     vdW  Elec       q    Type
REMARK                         _______ _______ _______ _____ _____    ______ ____
ROOT
ATOM      1  C   UNL     1       5.874   4.361  18.436  0.00  0.00    +0.000 C 
ATOM      2  C   UNL     1       5.642   5.877  18.507  0.00  0.00    +0.000 C 
ATOM      3  C   UNL     1       4.243   6.363  18.074  0.00  0.00    +0.000 C 
ATOM      4  C   UNL     1       3.179   6.104  19.124  0.00  0.00    +0.000 A 
ATOM      5  C   UNL     1       2.461   7.175  19.677  0.00  0.00    +0.000 A 
ATOM      6  C   UNL     1       1.509   6.953  20.674  0.00  0.00    +0.000 A 
ATOM      7  C   UNL     1       1.259   5.661  21.128  0.00  0.00    +0.000 A 
ATOM      8  C   UNL     1       1.925   4.579  20.551  0.00  0.00    +0.000 A 
ATOM      9  C   UNL     1       2.872   4.800  19.546  0.00  0.00    +0.000 A 
ATOM     10  N   UNL     1       3.565   3.734  18.923  0.00  0.00    +0.000 N 
ATOM     11  C   UNL     1       4.884   3.594  19.327  0.00  0.00    +0.000 C 
ATOM     12  O   UNL     1       5.211   2.955  20.324  0.00  0.00    +0.000 OA
ENDROOT
BRANCH   1  15
ATOM     13  C   UNL     1       6.832   4.027  16.191  0.00  0.00    +0.000 C 
ATOM     14  O   UNL     1       7.901   4.521  16.496  0.00  0.00    +0.000 OA
ATOM     15  N   UNL     1       5.797   3.874  17.059  0.00  0.00    +0.000 N 
ATOM     16  H   UNL     1       5.030   3.261  16.790  0.00  0.00    +0.000 HD
BRANCH  13  17
ATOM     17  O   UNL     1       6.520   3.492  14.987  0.00  0.00    +0.000 OA
BRANCH  17  19
ATOM     18  C   UNL     1       7.645   4.847  13.269  0.00  0.00    +0.000 C 
ATOM     19  C   UNL     1       6.304   4.379  13.855  0.00  0.00    +0.000 C 
ATOM     20  C   UNL     1       5.387   5.556  14.221  0.00  0.00    +0.000 C 
ATOM     21  C   UNL     1       5.585   3.539  12.787  0.00  0.00    +0.000 C 
ENDBRANCH  17  19
ENDBRANCH  13  17
ENDBRANCH   1  15
BRANCH   3  22
ATOM     22  O   UNL     1       3.898   5.807  16.804  0.00  0.00    +0.000 OA
ATOM     23  H   UNL     1       2.917   5.800  16.723  0.00  0.00    +0.000 HD
ENDBRANCH   3  22
BRANCH  10  24
ATOM     24  C   UNL     1       2.854   2.528  18.535  0.00  0.00    +0.000 C 
BRANCH  24  25
ATOM     25  C   UNL     1       1.497   2.899  17.931  0.00  0.00    +0.000 C 
ATOM     26  O   UNL     1       1.293   3.808  17.133  0.00  0.00    +0.000 OA
BRANCH  25  27
ATOM     27  O   UNL     1       0.489   2.096  18.357  0.00  0.00    +0.000 OA
ATOM     28  H   UNL     1       0.147   2.309  19.246  0.00  0.00    +0.000 HD
ENDBRANCH  25  27
ENDBRANCH  24  25
ENDBRANCH  10  24
TORSDOF 7
ENDMDL
MODEL 3
REMARK VINA RESULT:      -6.3      1.758      2.422
REMARK  Name = 
REMARK  10 active torsions:
REMARK  status: ('A' for Active; 'I' for Inactive)
REMARK    1  A    between atoms: C_1  and  C_2
REMARK    2  A    between atoms: C_2  and  C_3
REMARK    3  A    between atoms: C_2  and  C_4
REMARK    4  A    between atoms: C_2  and  O_5
REMARK    5  A    between atoms: O_5  and  C_6
REMARK    6  A    between atoms: N_8  and  C_9
REMARK    7  A    between atoms: C_11  and  O_12
REMARK    8  A    between atoms: N_19  and  C_20
REMARK    9  A    between atoms: C_20  and  C_21
REMARK   10  A    between atoms: C_21  and  O_23
REMARK                            x       y       z     vdW  Elec       q    Type
REMARK                         _______ _______ _______ _____ _____    ______ ____
ROOT
ATOM      1  C   UNL     1       5.925   4.596  18.348  0.00  0.00    +0.000 C 
ATOM      2  C   UNL     1       5.606   6.098  18.335  0.00  0.00    +0.000 C 
ATOM      3  C   UNL     1       4.161   6.474  17.947  0.00  0.00    +0.000 C 
ATOM      4  C   UNL     1       3.168   6.224  19.066  0.00  0.00    +0.000 A 
ATOM      5  C   UNL     1       2.414   7.286  19.587  0.00  0.00    +0.000 A 
ATOM      6  C   UNL     1       1.528   7.077  20.646  0.00  0.00    +0.000 A 
ATOM      7  C   UNL     1       1.379   5.806  21.193  0.00  0.00    +0.000 A 
ATOM      8  C   UNL     1       2.080   4.728  20.652  0.00  0.00    +0.000 A 
ATOM      9  C   UNL     1       2.961   4.935  19.585  0.00  0.00    +0.000 A 
ATOM     10  N   UNL     1       3.686   3.872  18.995  0.00  0.00    +0.000 N 
ATOM     11  C   UNL     1       5.029   3.834  19.336  0.00  0.00    +0.000 C 
ATOM     12  O   UNL     1       5.442   3.282  20.353  0.00  0.00    +0.000 OA
ENDROOT
BRANCH   1  15
ATOM     13  C   UNL     1       6.840   4.060  16.124  0.00  0.00    +0.000 C 
ATOM     14  O   UNL     1       7.934   4.527  16.383  0.00  0.00    +0.000 OA
ATOM     15  N   UNL     1       5.810   4.015  17.011  0.00  0.00    +0.000 N 
ATOM     16  H   UNL     1       5.014   3.418  16.793  0.00  0.00    +0.000 HD
BRANCH  13  17
ATOM     17  O   UNL     1       6.490   3.454  14.965  0.00  0.00    +0.000 OA
BRANCH  17  19
ATOM     18  C   UNL     1       5.688   3.441  12.639  0.00  0.00    +0.000 C 
ATOM     19  C   UNL     1       6.337   4.261  13.764  0.00  0.00    +0.000 C 
ATOM     20  C   UNL     1       7.668   4.894  13.330  0.00  0.00    +0.000 C 
ATOM     21  C   UNL     1       5.375   5.400  14.139  0.00  0.00    +0.000 C 
ENDBRANCH  17  19
ENDBRANCH  13  17
ENDBRANCH   1  15
BRANCH   3  22
ATOM     22  O   UNL     1       3.788   5.816  16.734  0.00  0.00    +0.000 OA
ATOM     23  H   UNL     1       3.654   6.498  16.038  0.00  0.00    +0.000 HD
ENDBRANCH   3  22
BRANCH  10  24
ATOM     24  C   UNL     1       3.030   2.604  18.722  0.00  0.00    +0.000 C 
BRANCH  24  25
ATOM     25  C   UNL     1       1.791   2.839  17.855  0.00  0.00    +0.000 C 
ATOM     26  O   UNL     1       0.634   2.588  18.176  0.00  0.00    +0.000 OA
BRANCH  25  27
ATOM     27  O   UNL     1       2.084   3.385  16.647  0.00  0.00    +0.000 OA
ATOM     28  H   UNL     1       1.724   4.281  16.507  0.00  0.00    +0.000 HD
ENDBRANCH  25  27
ENDBRANCH  24  25
ENDBRANCH  10  24
TORSDOF 7
ENDMDL
MODEL 4
REMARK VINA RESULT:      -6.1      1.819      2.830
REMARK  Name = 
REMARK  10 active torsions:
REMARK  status: ('A' for Active; 'I' for Inactive)
REMARK    1  A    between atoms: C_1  and  C_2
REMARK    2  A    between atoms: C_2  and  C_3
REMARK    3  A    between atoms: C_2  and  C_4
REMARK    4  A    between atoms: C_2  and  O_5
REMARK    5  A    between atoms: O_5  and  C_6
REMARK    6  A    between atoms: N_8  and  C_9
REMARK    7  A    between atoms: C_11  and  O_12
REMARK    8  A    between atoms: N_19  and  C_20
REMARK    9  A    between atoms: C_20  and  C_21
REMARK   10  A    between atoms: C_21  and  O_23
REMARK                            x       y       z     vdW  Elec       q    Type
REMARK                         _______ _______ _______ _____ _____    ______ ____
ROOT
ATOM      1  C   UNL     1       6.592   5.345  17.343  0.00  0.00    +0.000 C 
ATOM      2  C   UNL     1       6.022   6.708  16.926  0.00  0.00    +0.000 C 
ATOM      3  C   UNL     1       4.509   6.740  16.625  0.00  0.00    +0.000 C 
ATOM      4  C   UNL     1       3.658   6.714  17.880  0.00  0.00    +0.000 A 
ATOM      5  C   UNL     1       2.775   7.769  18.152  0.00  0.00    +0.000 A 
ATOM      6  C   UNL     1       2.017   7.778  19.325  0.00  0.00    +0.000 A 
ATOM      7  C   UNL     1       2.128   6.732  20.237  0.00  0.00    +0.000 A 
ATOM      8  C   UNL     1       2.960   5.648  19.956  0.00  0.00    +0.000 A 
ATOM      9  C   UNL     1       3.712   5.634  18.777  0.00  0.00    +0.000 A 
ATOM     10  N   UNL     1       4.562   4.553  18.443  0.00  0.00    +0.000 N 
ATOM     11  C   UNL     1       5.914   4.811  18.614  0.00  0.00    +0.000 C 
ATOM     12  O   UNL     1       6.488   4.666  19.690  0.00  0.00    +0.000 OA
ENDROOT
BRANCH   1  15
ATOM     13  C   UNL     1       7.077   4.567  15.056  0.00  0.00    +0.000 C 
ATOM     14  O   UNL     1       7.783   5.526  14.803  0.00  0.00    +0.000 OA
ATOM     15  N   UNL     1       6.479   4.368  16.261  0.00  0.00    +0.000 N 
ATOM     16  H   UNL     1       6.094   3.446  16.460  0.00  0.00    +0.000 HD
BRANCH  13  17
ATOM     17  O   UNL     1       6.831   3.523  14.230  0.00  0.00    +0.000 OA
BRANCH  17  19
ATOM     18  C   UNL     1       7.333   4.817  12.198  0.00  0.00    +0.000 C 
ATOM     19  C   UNL     1       6.405   3.790  12.864  0.00  0.00    +0.000 C 
ATOM     20  C   UNL     1       4.930   4.212  12.800  0.00  0.00    +0.000 C 
ATOM     21  C   UNL     1       6.547   2.459  12.107  0.00  0.00    +0.000 C 
ENDBRANCH  17  19
ENDBRANCH  13  17
ENDBRANCH   1  15
BRANCH   3  22
ATOM     22  O   UNL     1       4.165   5.692  15.715  0.00  0.00    +0.000 OA
ATOM     23  H   UNL     1       4.249   4.831  16.185  0.00  0.00    +0.000 HD
ENDBRANCH   3  22
BRANCH  10  24
ATOM     24  C   UNL     1       4.114   3.184  18.639  0.00  0.00    +0.000 C 
BRANCH  24  25
ATOM     25  C   UNL     1       2.917   2.897  17.729  0.00  0.00    +0.000 C 
ATOM     26  O   UNL     1       2.653   3.485  16.685  0.00  0.00    +0.000 OA
BRANCH  25  27
ATOM     27  O   UNL     1       2.137   1.882  18.182  0.00  0.00    +0.000 OA
ATOM     28  H   UNL     1       1.205   2.125  18.341  0.00  0.00    +0.000 HD
ENDBRANCH  25  27
ENDBRANCH  24  25
ENDBRANCH  10  24
TORSDOF 7
ENDMDL
MODEL 5
REMARK VINA RESULT:      -6.0      1.705      2.457
REMARK  Name = 
REMARK  10 active torsions:
REMARK  status: ('A' for Active; 'I' for Inactive)
REMARK    1  A    between atoms: C_1  and  C_2
REMARK    2  A    between atoms: C_2  and  C_3
REMARK    3  A    between atoms: C_2  and  C_4
REMARK    4  A    between atoms: C_2  and  O_5
REMARK    5  A    between atoms: O_5  and  C_6
REMARK    6  A    between atoms: N_8  and  C_9
REMARK    7  A    between atoms: C_11  and  O_12
REMARK    8  A    between atoms: N_19  and  C_20
REMARK    9  A    between atoms: C_20  and  C_21
REMARK   10  A    between atoms: C_21  and  O_23
REMARK                            x       y       z     vdW  Elec       q    Type
REMARK                         _______ _______ _______ _____ _____    ______ ____
ROOT
ATOM      1  C   UNL     1       6.330   5.136  17.741  0.00  0.00    +0.000 C 
ATOM      2  C   UNL     1       5.766   6.528  17.418  0.00  0.00    +0.000 C 
ATOM      3  C   UNL     1       4.256   6.584  17.106  0.00  0.00    +0.000 C 
ATOM      4  C   UNL     1       3.393   6.471  18.349  0.00  0.00    +0.000 A 
ATOM      5  C   UNL     1       2.510   7.507  18.689  0.00  0.00    +0.000 A 
ATOM      6  C   UNL     1       1.743   7.434  19.853  0.00  0.00    +0.000 A 
ATOM      7  C   UNL     1       1.843   6.324  20.689  0.00  0.00    +0.000 A 
ATOM      8  C   UNL     1       2.675   5.262  20.338  0.00  0.00    +0.000 A 
ATOM      9  C   UNL     1       3.438   5.330  19.168  0.00  0.00    +0.000 A 
ATOM     10  N   UNL     1       4.289   4.273  18.764  0.00  0.00    +0.000 N 
ATOM     11  C   UNL     1       5.639   4.514  18.965  0.00  0.00    +0.000 C 
ATOM     12  O   UNL     1       6.204   4.292  20.032  0.00  0.00    +0.000 OA
ENDROOT
BRANCH   1  15
ATOM     13  C   UNL     1       6.918   4.467  15.444  0.00  0.00    +0.000 C 
ATOM     14  O   UNL     1       7.706   5.384  15.303  0.00  0.00    +0.000 OA
ATOM     15  N   UNL     1       6.224   4.239  16.591  0.00  0.00    +0.000 N 
ATOM     16  H   UNL     1       5.762   3.338  16.703  0.00  0.00    +0.000 HD
BRANCH  13  17
ATOM     17  O   UNL     1       6.657   3.498  14.535  0.00  0.00    +0.000 OA
BRANCH  17  19
ATOM     18  C   UNL     1       6.276   2.637  12.262  0.00  0.00    +0.000 C 
ATOM     19  C   UNL     1       6.367   3.879  13.161  0.00  0.00    +0.000 C 
ATOM     20  C   UNL     1       7.376   4.908  12.630  0.00  0.00    +0.000 C 
ATOM     21  C   UNL     1       4.984   4.549  13.189  0.00  0.00    +0.000 C 
ENDBRANCH  17  19
ENDBRANCH  13  17
ENDBRANCH   1  15
BRANCH   3  22
ATOM     22  O   UNL     1       3.918   5.605  16.121  0.00  0.00    +0.000 OA
ATOM     23  H   UNL     1       3.441   6.054  15.387  0.00  0.00    +0.000 HD
ENDBRANCH   3  22
BRANCH  10  24
ATOM     24  C   UNL     1       3.836   2.895  18.858  0.00  0.00    +0.000 C 
BRANCH  24  25
ATOM     25  C   UNL     1       2.650   2.675  17.915  0.00  0.00    +0.000 C 
ATOM     26  O   UNL     1       2.505   3.194  16.813  0.00  0.00    +0.000 OA
BRANCH  25  27
ATOM     27  O   UNL     1       1.730   1.809  18.413  0.00  0.00    +0.000 OA
ATOM     28  H   UNL     1       1.965   1.418  19.276  0.00  0.00    +0.000 HD
ENDBRANCH  25  27
ENDBRANCH  24  25
ENDBRANCH  10  24
TORSDOF 7
ENDMDL
MODEL 6
REMARK VINA RESULT:      -5.9      7.270     10.255
REMARK  Name = 
REMARK  10 active torsions:
REMARK  status: ('A' for Active; 'I' for Inactive)
REMARK    1  A    between atoms: C_1  and  C_2
REMARK    2  A    between atoms: C_2  and  C_3
REMARK    3  A    between atoms: C_2  and  C_4
REMARK    4  A    between atoms: C_2  and  O_5
REMARK    5  A    between atoms: O_5  and  C_6
REMARK    6  A    between atoms: N_8  and  C_9
REMARK    7  A    between atoms: C_11  and  O_12
REMARK    8  A    between atoms: N_19  and  C_20
REMARK    9  A    between atoms: C_20  and  C_21
REMARK   10  A    between atoms: C_21  and  O_23
REMARK                            x       y       z     vdW  Elec       q    Type
REMARK                         _______ _______ _______ _____ _____    ______ ____
ROOT
ATOM      1  C   UNL     1       0.406  11.430  21.253  0.00  0.00    +0.000 C 
ATOM      2  C   UNL     1       1.090  10.262  21.977  0.00  0.00    +0.000 C 
ATOM      3  C   UNL     1       0.682   8.850  21.509  0.00  0.00    +0.000 C 
ATOM      4  C   UNL     1       1.314   8.463  20.186  0.00  0.00    +0.000 A 
ATOM      5  C   UNL     1       2.147   7.336  20.108  0.00  0.00    +0.000 A 
ATOM      6  C   UNL     1       2.769   6.994  18.906  0.00  0.00    +0.000 A 
ATOM      7  C   UNL     1       2.564   7.767  17.766  0.00  0.00    +0.000 A 
ATOM      8  C   UNL     1       1.696   8.858  17.813  0.00  0.00    +0.000 A 
ATOM      9  C   UNL     1       1.066   9.197  19.014  0.00  0.00    +0.000 A 
ATOM     10  N   UNL     1       0.169  10.288  19.109  0.00  0.00    +0.000 N 
ATOM     11  C   UNL     1       0.689  11.406  19.743  0.00  0.00    +0.000 C 
ATOM     12  O   UNL     1       1.347  12.259  19.154  0.00  0.00    +0.000 OA
ENDROOT
BRANCH   1  15
ATOM     13  C   UNL     1      -1.576  12.097  22.555  0.00  0.00    +0.000 C 
ATOM     14  O   UNL     1      -0.926  12.766  23.336  0.00  0.00    +0.000 OA
ATOM     15  N   UNL     1      -1.036  11.437  21.496  0.00  0.00    +0.000 N 
ATOM     16  H   UNL     1      -1.665  11.088  20.775  0.00  0.00    +0.000 HD
BRANCH  13  17
ATOM     17  O   UNL     1      -2.923  11.958  22.559  0.00  0.00    +0.000 OA
BRANCH  17  19
ATOM     18  C   UNL     1      -3.041  14.266  21.716  0.00  0.00    +0.000 C 
ATOM     19  C   UNL     1      -3.756  13.149  22.490  0.00  0.00    +0.000 C 
ATOM     20  C   UNL     1      -4.212  13.607  23.884  0.00  0.00    +0.000 C 
ATOM     21  C   UNL     1      -5.008  12.746  21.695  0.00  0.00    +0.000 C 
ENDBRANCH  17  19
ENDBRANCH  13  17
ENDBRANCH   1  15
BRANCH   3  22
ATOM     22  O   UNL     1      -0.742   8.731  21.484  0.00  0.00    +0.000 OA
ATOM     23  H   UNL     1      -1.051   8.866  20.559  0.00  0.00    +0.000 HD
ENDBRANCH   3  22
BRANCH  10  24
ATOM     24  C   UNL     1      -0.822  10.511  18.069  0.00  0.00    +0.000 C 
BRANCH  24  25
ATOM     25  C   UNL     1      -1.542  11.839  18.316  0.00  0.00    +0.000 C 
ATOM     26  O   UNL     1      -2.446  12.024  19.124  0.00  0.00    +0.000 OA
BRANCH  25  27
ATOM     27  O   UNL     1      -1.070  12.851  17.543  0.00  0.00    +0.000 OA
ATOM     28  H   UNL     1      -1.761  13.406  17.134  0.00  0.00    +0.000 HD
ENDBRANCH  25  27
ENDBRANCH  24  25
ENDBRANCH  10  24
TORSDOF 7
ENDMDL
MODEL 7
REMARK VINA RESULT:      -5.8      1.873      3.112
REMARK  Name = 
REMARK  10 active torsions:
REMARK  status: ('A' for Active; 'I' for Inactive)
REMARK    1  A    between atoms: C_1  and  C_2
REMARK    2  A    between atoms: C_2  and  C_3
REMARK    3  A    between atoms: C_2  and  C_4
REMARK    4  A    between atoms: C_2  and  O_5
REMARK    5  A    between atoms: O_5  and  C_6
REMARK    6  A    between atoms: N_8  and  C_9
REMARK    7  A    between atoms: C_11  and  O_12
REMARK    8  A    between atoms: N_19  and  C_20
REMARK    9  A    between atoms: C_20  and  C_21
REMARK   10  A    between atoms: C_21  and  O_23
REMARK                            x       y       z     vdW  Elec       q    Type
REMARK                         _______ _______ _______ _____ _____    ______ ____
ROOT
ATOM      1  C   UNL     1       6.631   5.044  17.259  0.00  0.00    +0.000 C 
ATOM      2  C   UNL     1       6.290   6.482  16.841  0.00  0.00    +0.000 C 
ATOM      3  C   UNL     1       4.831   6.725  16.402  0.00  0.00    +0.000 C 
ATOM      4  C   UNL     1       3.867   6.785  17.572  0.00  0.00    +0.000 A 
ATOM      5  C   UNL     1       3.109   7.943  17.800  0.00  0.00    +0.000 A 
ATOM      6  C   UNL     1       2.250   8.027  18.897  0.00  0.00    +0.000 A 
ATOM      7  C   UNL     1       2.132   6.954  19.777  0.00  0.00    +0.000 A 
ATOM      8  C   UNL     1       2.836   5.775  19.535  0.00  0.00    +0.000 A 
ATOM      9  C   UNL     1       3.690   5.687  18.431  0.00  0.00    +0.000 A 
ATOM     10  N   UNL     1       4.418   4.508  18.137  0.00  0.00    +0.000 N 
ATOM     11  C   UNL     1       5.769   4.577  18.441  0.00  0.00    +0.000 C 
ATOM     12  O   UNL     1       6.213   4.330  19.559  0.00  0.00    +0.000 OA
ENDROOT
BRANCH   1  15
ATOM     13  C   UNL     1       7.009   4.403  14.910  0.00  0.00    +0.000 C 
ATOM     14  O   UNL     1       7.656   5.404  14.666  0.00  0.00    +0.000 OA
ATOM     15  N   UNL     1       6.495   4.117  16.136  0.00  0.00    +0.000 N 
ATOM     16  H   UNL     1       6.163   3.170  16.310  0.00  0.00    +0.000 HD
BRANCH  13  17
ATOM     17  O   UNL     1       6.757   3.391  14.047  0.00  0.00    +0.000 OA
BRANCH  17  19
ATOM     18  C   UNL     1       7.321   4.832  12.134  0.00  0.00    +0.000 C 
ATOM     19  C   UNL     1       6.421   3.707  12.667  0.00  0.00    +0.000 C 
ATOM     20  C   UNL     1       4.928   4.032  12.505  0.00  0.00    +0.000 C 
ATOM     21  C   UNL     1       6.716   2.436  11.855  0.00  0.00    +0.000 C 
ENDBRANCH  17  19
ENDBRANCH  13  17
ENDBRANCH   1  15
BRANCH   3  22
ATOM     22  O   UNL     1       4.440   5.755  15.427  0.00  0.00    +0.000 OA
ATOM     23  H   UNL     1       5.012   4.961  15.531  0.00  0.00    +0.000 HD
ENDBRANCH   3  22
BRANCH  10  24
ATOM     24  C   UNL     1       3.775   3.209  18.241  0.00  0.00    +0.000 C 
BRANCH  24  25
ATOM     25  C   UNL     1       4.023   2.618  19.630  0.00  0.00    +0.000 C 
ATOM     26  O   UNL     1       3.385   2.878  20.644  0.00  0.00    +0.000 OA
BRANCH  25  27
ATOM     27  O   UNL     1       5.049   1.728  19.653  0.00  0.00    +0.000 OA
ATOM     28  H   UNL     1       4.820   0.835  19.331  0.00  0.00    +0.000 HD
ENDBRANCH  25  27
ENDBRANCH  24  25
ENDBRANCH  10  24
TORSDOF 7
ENDMDL
MODEL 8
REMARK VINA RESULT:      -5.8      9.622     12.602
REMARK  Name = 
REMARK  10 active torsions:
REMARK  status: ('A' for Active; 'I' for Inactive)
REMARK    1  A    between atoms: C_1  and  C_2
REMARK    2  A    between atoms: C_2  and  C_3
REMARK    3  A    between atoms: C_2  and  C_4
REMARK    4  A    between atoms: C_2  and  O_5
REMARK    5  A    between atoms: O_5  and  C_6
REMARK    6  A    between atoms: N_8  and  C_9
REMARK    7  A    between atoms: C_11  and  O_12
REMARK    8  A    between atoms: N_19  and  C_20
REMARK    9  A    between atoms: C_20  and  C_21
REMARK   10  A    between atoms: C_21  and  O_23
REMARK                            x       y       z     vdW  Elec       q    Type
REMARK                         _______ _______ _______ _____ _____    ______ ____
ROOT
ATOM      1  C   UNL     1      -2.533  13.471  20.377  0.00  0.00    +0.000 C 
ATOM      2  C   UNL     1      -2.046  14.858  20.822  0.00  0.00    +0.000 C 
ATOM      3  C   UNL     1      -1.066  14.875  22.014  0.00  0.00    +0.000 C 
ATOM      4  C   UNL     1       0.339  14.455  21.626  0.00  0.00    +0.000 A 
ATOM      5  C   UNL     1       1.413  15.338  21.809  0.00  0.00    +0.000 A 
ATOM      6  C   UNL     1       2.704  14.979  21.417  0.00  0.00    +0.000 A 
ATOM      7  C   UNL     1       2.940  13.733  20.843  0.00  0.00    +0.000 A 
ATOM      8  C   UNL     1       1.893  12.821  20.704  0.00  0.00    +0.000 A 
ATOM      9  C   UNL     1       0.601  13.177  21.104  0.00  0.00    +0.000 A 
ATOM     10  N   UNL     1      -0.491  12.283  20.992  0.00  0.00    +0.000 N 
ATOM     11  C   UNL     1      -1.363  12.569  19.953  0.00  0.00    +0.000 C 
ATOM     12  O   UNL     1      -1.183  12.173  18.805  0.00  0.00    +0.000 OA
ENDROOT
BRANCH   1  15
ATOM     13  C   UNL     1      -4.670  12.955  21.487  0.00  0.00    +0.000 C 
ATOM     14  O   UNL     1      -5.327  13.567  20.665  0.00  0.00    +0.000 OA
ATOM     15  N   UNL     1      -3.319  12.821  21.424  0.00  0.00    +0.000 N 
ATOM     16  H   UNL     1      -2.877  12.119  22.016  0.00  0.00    +0.000 HD
BRANCH  13  17
ATOM     17  O   UNL     1      -5.165  12.258  22.537  0.00  0.00    +0.000 OA
BRANCH  17  19
ATOM     18  C   UNL     1      -7.000  12.782  24.090  0.00  0.00    +0.000 C 
ATOM     19  C   UNL     1      -5.512  12.971  23.757  0.00  0.00    +0.000 C 
ATOM     20  C   UNL     1      -5.117  14.453  23.682  0.00  0.00    +0.000 C 
ATOM     21  C   UNL     1      -4.687  12.321  24.879  0.00  0.00    +0.000 C 
ENDBRANCH  17  19
ENDBRANCH  13  17
ENDBRANCH   1  15
BRANCH   3  22
ATOM     22  O   UNL     1      -1.587  14.096  23.093  0.00  0.00    +0.000 OA
ATOM     23  H   UNL     1      -0.859  13.924  23.732  0.00  0.00    +0.000 HD
ENDBRANCH   3  22
BRANCH  10  24
ATOM     24  C   UNL     1      -0.334  10.888  21.367  0.00  0.00    +0.000 C 
BRANCH  24  25
ATOM     25  C   UNL     1      -0.750  10.695  22.828  0.00  0.00    +0.000 C 
ATOM     26  O   UNL     1      -1.769  11.138  23.347  0.00  0.00    +0.000 OA
BRANCH  25  27
ATOM     27  O   UNL     1       0.133   9.946  23.537  0.00  0.00    +0.000 OA
ATOM     28  H   UNL     1       0.018   9.989  24.505  0.00  0.00    +0.000 HD
ENDBRANCH  25  27
ENDBRANCH  24  25
ENDBRANCH  10  24
TORSDOF 7
ENDMDL
MODEL 9
REMARK VINA RESULT:      -5.7      8.738     11.321
REMARK  Name = 
REMARK  10 active torsions:
REMARK  status: ('A' for Active; 'I' for Inactive)
REMARK    1  A    between atoms: C_1  and  C_2
REMARK    2  A    between atoms: C_2  and  C_3
REMARK    3  A    between atoms: C_2  and  C_4
REMARK    4  A    between atoms: C_2  and  O_5
REMARK    5  A    between atoms: O_5  and  C_6
REMARK    6  A    between atoms: N_8  and  C_9
REMARK    7  A    between atoms: C_11  and  O_12
REMARK    8  A    between atoms: N_19  and  C_20
REMARK    9  A    between atoms: C_20  and  C_21
REMARK   10  A    between atoms: C_21  and  O_23
REMARK                            x       y       z     vdW  Elec       q    Type
REMARK                         _______ _______ _______ _____ _____    ______ ____
ROOT
ATOM      1  C   UNL     1      -1.016  11.980  21.704  0.00  0.00    +0.000 C 
ATOM      2  C   UNL     1      -2.462  12.296  21.293  0.00  0.00    +0.000 C 
ATOM      3  C   UNL     1      -2.649  12.846  19.864  0.00  0.00    +0.000 C 
ATOM      4  C   UNL     1      -2.530  11.772  18.799  0.00  0.00    +0.000 A 
ATOM      5  C   UNL     1      -3.608  11.512  17.940  0.00  0.00    +0.000 A 
ATOM      6  C   UNL     1      -3.527  10.498  16.984  0.00  0.00    +0.000 A 
ATOM      7  C   UNL     1      -2.368   9.735  16.871  0.00  0.00    +0.000 A 
ATOM      8  C   UNL     1      -1.267  10.015  17.680  0.00  0.00    +0.000 A 
ATOM      9  C   UNL     1      -1.345  11.037  18.631  0.00  0.00    +0.000 A 
ATOM     10  N   UNL     1      -0.251  11.367  19.468  0.00  0.00    +0.000 N 
ATOM     11  C   UNL     1      -0.379  10.932  20.779  0.00  0.00    +0.000 C 
ATOM     12  O   UNL     1      -0.055   9.804  21.140  0.00  0.00    +0.000 OA
ENDROOT
BRANCH   1  15
ATOM     13  C   UNL     1      -0.222  14.040  22.798  0.00  0.00    +0.000 C 
ATOM     14  O   UNL     1      -0.872  13.840  23.807  0.00  0.00    +0.000 OA
ATOM     15  N   UNL     1      -0.196  13.190  21.736  0.00  0.00    +0.000 N 
ATOM     16  H   UNL     1       0.533  13.317  21.036  0.00  0.00    +0.000 HD
BRANCH  13  17
ATOM     17  O   UNL     1       0.624  15.077  22.592  0.00  0.00    +0.000 OA
BRANCH  17  19
ATOM     18  C   UNL     1      -1.446  16.323  22.126  0.00  0.00    +0.000 C 
ATOM     19  C   UNL     1       0.071  16.402  22.354  0.00  0.00    +0.000 C 
ATOM     20  C   UNL     1       0.795  17.122  21.206  0.00  0.00    +0.000 C 
ATOM     21  C   UNL     1       0.318  17.203  23.642  0.00  0.00    +0.000 C 
ENDBRANCH  17  19
ENDBRANCH  13  17
ENDBRANCH   1  15
BRANCH   3  22
ATOM     22  O   UNL     1      -1.755  13.938  19.634  0.00  0.00    +0.000 OA
ATOM     23  H   UNL     1      -1.406  13.867  18.717  0.00  0.00    +0.000 HD
ENDBRANCH   3  22
BRANCH  10  24
ATOM     24  C   UNL     1       1.092  11.444  18.918  0.00  0.00    +0.000 C 
BRANCH  24  25
ATOM     25  C   UNL     1       1.406  12.888  18.519  0.00  0.00    +0.000 C 
ATOM     26  O   UNL     1       0.961  13.894  19.061  0.00  0.00    +0.000 OA
BRANCH  25  27
ATOM     27  O   UNL     1       2.268  12.973  17.474  0.00  0.00    +0.000 OA
ATOM     28  H   UNL     1       1.858  13.237  16.629  0.00  0.00    +0.000 HD
ENDBRANCH  25  27
ENDBRANCH  24  25
ENDBRANCH  10  24
TORSDOF 7
ENDMDL
