MODEL 1
REMARK VINA RESULT:      -7.6      0.000      0.000
REMARK  Name = 
REMARK  4 active torsions:
REMARK  status: ('A' for Active; 'I' for Inactive)
REMARK    1  A    between atoms: N_1  and  N_2
REMARK    2  A    between atoms: C_3  and  C_5
REMARK    3  A    between atoms: N_7  and  C_8
REMARK    4  A    between atoms: C_17  and  N_18
REMARK                            x       y       z     vdW  Elec       q    Type
REMARK                         _______ _______ _______ _____ _____    ______ ____
ROOT
ATOM      1  C   UNL     1       4.498   4.965  18.485  0.00  0.00    +0.000 A 
ATOM      2  N   UNL     1       3.864   6.108  18.477  0.00  0.00    +0.000 NA
ATOM      3  N   UNL     1       2.778   6.343  19.345  0.00  0.00    +0.000 N 
ATOM      4  C   UNL     1       2.242   5.377  20.239  0.00  0.00    +0.000 A 
ATOM      5  O   UNL     1       1.234   5.514  20.927  0.00  0.00    +0.000 OA
ATOM      6  C   UNL     1       2.980   4.126  20.257  0.00  0.00    +0.000 A 
ATOM      7  C   UNL     1       2.703   3.029  21.047  0.00  0.00    +0.000 A 
ATOM      8  S   UNL     1       3.806   1.755  20.745  0.00  0.00    +0.000 S 
ATOM      9  C   UNL     1       4.648   2.672  19.570  0.00  0.00    +0.000 A 
ATOM     10  C   UNL     1       4.092   3.920  19.398  0.00  0.00    +0.000 A 
ENDROOT
BRANCH   3  11
ATOM     11  C   UNL     1       2.189   7.650  19.207  0.00  0.00    +0.000 A 
ATOM     12  C   UNL     1       1.557   8.296  20.280  0.00  0.00    +0.000 A 
ATOM     13  C   UNL     1       0.941   9.542  20.123  0.00  0.00    +0.000 A 
ATOM     14  C   UNL     1       0.949  10.170  18.884  0.00  0.00    +0.000 A 
ATOM     15  C   UNL     1       1.596   9.564  17.811  0.00  0.00    +0.000 A 
ATOM     16  C   UNL     1       2.225   8.322  17.973  0.00  0.00    +0.000 A 
ENDBRANCH   3  11
BRANCH   1  18
ATOM     17  N   UNL     1       6.873   4.491  18.124  0.00  0.00    +0.000 N 
ATOM     18  C   UNL     1       5.667   4.807  17.509  0.00  0.00    +0.000 C 
ATOM     19  O   UNL     1       5.505   4.962  16.306  0.00  0.00    +0.000 OA
ATOM     20  H   UNL     1       6.888   4.360  19.136  0.00  0.00    +0.000 HD
BRANCH  17  21
ATOM     21  N   UNL     1       8.004   4.170  17.343  0.00  0.00    +0.000 NA
ATOM     22  H   UNL     1       8.565   5.010  17.190  0.00  0.00    +0.000 HD
ATOM     23  H   UNL     1       7.674   3.883  16.413  0.00  0.00    +0.000 HD
ENDBRANCH  17  21
ENDBRANCH   1  18
BRANCH   7  24
ATOM     24  N   UNL     1       1.716   2.896  21.956  0.00  0.00    +0.000 N 
ATOM     25  H   UNL     1       1.943   2.987  22.950  0.00  0.00    +0.000 HD
ATOM     26  H   UNL     1       0.763   3.143  21.714  0.00  0.00    +0.000 HD
ENDBRANCH   7  24
TORSDOF 4
ENDMDL
MODEL 2
REMARK VINA RESULT:      -7.5      0.114      1.055
REMARK  Name = 
REMARK  4 active torsions:
REMARK  status: ('A' for Active; 'I' for Inactive)
REMARK    1  A    between atoms: N_1  and  N_2
REMARK    2  A    between atoms: C_3  and  C_5
REMARK    3  A    between atoms: N_7  and  C_8
REMARK    4  A    between atoms: C_17  and  N_18
REMARK                            x       y       z     vdW  Elec       q    Type
REMARK                         _______ _______ _______ _____ _____    ______ ____
ROOT
ATOM      1  C   UNL     1       4.538   4.932  18.574  0.00  0.00    +0.000 A 
ATOM      2  N   UNL     1       3.895   6.070  18.531  0.00  0.00    +0.000 NA
ATOM      3  N   UNL     1       2.774   6.303  19.354  0.00  0.00    +0.000 N 
ATOM      4  C   UNL     1       2.212   5.340  20.235  0.00  0.00    +0.000 A 
ATOM      5  O   UNL     1       1.177   5.475  20.884  0.00  0.00    +0.000 OA
ATOM      6  C   UNL     1       2.959   4.096  20.294  0.00  0.00    +0.000 A 
ATOM      7  C   UNL     1       2.660   3.003  21.082  0.00  0.00    +0.000 A 
ATOM      8  S   UNL     1       3.784   1.737  20.835  0.00  0.00    +0.000 S 
ATOM      9  C   UNL     1       4.664   2.650  19.684  0.00  0.00    +0.000 A 
ATOM     10  C   UNL     1       4.105   3.891  19.480  0.00  0.00    +0.000 A 
ENDROOT
BRANCH   3  11
ATOM     11  C   UNL     1       2.180   7.603  19.182  0.00  0.00    +0.000 A 
ATOM     12  C   UNL     1       2.201   8.272  17.948  0.00  0.00    +0.000 A 
ATOM     13  C   UNL     1       1.670   9.557  17.804  0.00  0.00    +0.000 A 
ATOM     14  C   UNL     1       1.100  10.201  18.896  0.00  0.00    +0.000 A 
ATOM     15  C   UNL     1       1.040   9.547  20.123  0.00  0.00    +0.000 A 
ATOM     16  C   UNL     1       1.560   8.253  20.264  0.00  0.00    +0.000 A 
ENDBRANCH   3  11
BRANCH   1  18
ATOM     17  N   UNL     1       6.925   4.457  18.307  0.00  0.00    +0.000 N 
ATOM     18  C   UNL     1       5.745   4.775  17.645  0.00  0.00    +0.000 C 
ATOM     19  O   UNL     1       5.631   4.934  16.437  0.00  0.00    +0.000 OA
ATOM     20  H   UNL     1       6.899   4.323  19.318  0.00  0.00    +0.000 HD
BRANCH  17  21
ATOM     21  N   UNL     1       8.086   4.138  17.571  0.00  0.00    +0.000 NA
ATOM     22  H   UNL     1       8.220   3.126  17.564  0.00  0.00    +0.000 HD
ATOM     23  H   UNL     1       8.895   4.522  18.075  0.00  0.00    +0.000 HD
ENDBRANCH  17  21
ENDBRANCH   1  18
BRANCH   7  24
ATOM     24  N   UNL     1       1.641   2.870  21.953  0.00  0.00    +0.000 N 
ATOM     25  H   UNL     1       1.566   2.008  22.501  0.00  0.00    +0.000 HD
ATOM     26  H   UNL     1       1.236   3.689  22.394  0.00  0.00    +0.000 HD
ENDBRANCH   7  24
TORSDOF 4
ENDMDL
MODEL 3
REMARK VINA RESULT:      -7.5      1.005      1.011
REMARK  Name = 
REMARK  4 active torsions:
REMARK  status: ('A' for Active; 'I' for Inactive)
REMARK    1  A    between atoms: N_1  and  N_2
REMARK    2  A    between atoms: C_3  and  C_5
REMARK    3  A    between atoms: N_7  and  C_8
REMARK    4  A    between atoms: C_17  and  N_18
REMARK                            x       y       z     vdW  Elec       q    Type
REMARK                         _______ _______ _______ _____ _____    ______ ____
ROOT
ATOM      1  C   UNL     1       4.273   5.681  18.028  0.00  0.00    +0.000 A 
ATOM      2  N   UNL     1       3.545   6.754  18.195  0.00  0.00    +0.000 NA
ATOM      3  N   UNL     1       2.573   6.821  19.215  0.00  0.00    +0.000 N 
ATOM      4  C   UNL     1       2.256   5.750  20.093  0.00  0.00    +0.000 A 
ATOM      5  O   UNL     1       1.346   5.741  20.919  0.00  0.00    +0.000 OA
ATOM      6  C   UNL     1       3.099   4.580  19.914  0.00  0.00    +0.000 A 
ATOM      7  C   UNL     1       3.033   3.411  20.645  0.00  0.00    +0.000 A 
ATOM      8  S   UNL     1       4.192   2.276  20.099  0.00  0.00    +0.000 S 
ATOM      9  C   UNL     1       4.776   3.347  18.899  0.00  0.00    +0.000 A 
ATOM     10  C   UNL     1       4.093   4.542  18.901  0.00  0.00    +0.000 A 
ENDROOT
BRANCH   3  11
ATOM     11  C   UNL     1       1.857   8.070  19.261  0.00  0.00    +0.000 A 
ATOM     12  C   UNL     1       1.378   8.608  20.466  0.00  0.00    +0.000 A 
ATOM     13  C   UNL     1       0.637   9.793  20.493  0.00  0.00    +0.000 A 
ATOM     14  C   UNL     1       0.363  10.470  19.311  0.00  0.00    +0.000 A 
ATOM     15  C   UNL     1       0.853   9.974  18.107  0.00  0.00    +0.000 A 
ATOM     16  C   UNL     1       1.608   8.792  18.081  0.00  0.00    +0.000 A 
ENDBRANCH   3  11
BRANCH   1  18
ATOM     17  N   UNL     1       6.430   6.467  17.179  0.00  0.00    +0.000 N 
ATOM     18  C   UNL     1       5.303   5.704  16.896  0.00  0.00    +0.000 C 
ATOM     19  O   UNL     1       5.103   5.097  15.853  0.00  0.00    +0.000 OA
ATOM     20  H   UNL     1       6.505   6.912  18.094  0.00  0.00    +0.000 HD
BRANCH  17  21
ATOM     21  N   UNL     1       7.529   6.463  16.292  0.00  0.00    +0.000 NA
ATOM     22  H   UNL     1       7.325   5.857  15.496  0.00  0.00    +0.000 HD
ATOM     23  H   UNL     1       8.324   6.028  16.777  0.00  0.00    +0.000 HD
ENDBRANCH  17  21
ENDBRANCH   1  18
BRANCH   7  24
ATOM     24  N   UNL     1       2.199   3.121  21.663  0.00  0.00    +0.000 N 
ATOM     25  H   UNL     1       2.393   3.512  22.589  0.00  0.00    +0.000 HD
ATOM     26  H   UNL     1       1.220   2.926  21.482  0.00  0.00    +0.000 HD
ENDBRANCH   7  24
TORSDOF 4
ENDMDL
MODEL 4
REMARK VINA RESULT:      -7.5      1.566      1.700
REMARK  Name = 
REMARK  4 active torsions:
REMARK  status: ('A' for Active; 'I' for Inactive)
REMARK    1  A    between atoms: N_1  and  N_2
REMARK    2  A    between atoms: C_3  and  C_5
REMARK    3  A    between atoms: N_7  and  C_8
REMARK    4  A    between atoms: C_17  and  N_18
REMARK                            x       y       z     vdW  Elec       q    Type
REMARK                         _______ _______ _______ _____ _____    ______ ____
ROOT
ATOM      1  C   UNL     1       4.107   5.919  17.759  0.00  0.00    +0.000 A 
ATOM      2  N   UNL     1       3.473   6.896  18.354  0.00  0.00    +0.000 NA
ATOM      3  N   UNL     1       2.446   6.637  19.284  0.00  0.00    +0.000 N 
ATOM      4  C   UNL     1       1.970   5.338  19.612  0.00  0.00    +0.000 A 
ATOM      5  O   UNL     1       1.009   5.085  20.335  0.00  0.00    +0.000 OA
ATOM      6  C   UNL     1       2.708   4.266  18.968  0.00  0.00    +0.000 A 
ATOM      7  C   UNL     1       2.483   2.914  19.126  0.00  0.00    +0.000 A 
ATOM      8  S   UNL     1       3.565   1.992  18.173  0.00  0.00    +0.000 S 
ATOM      9  C   UNL     1       4.328   3.396  17.558  0.00  0.00    +0.000 A 
ATOM     10  C   UNL     1       3.761   4.547  18.058  0.00  0.00    +0.000 A 
ENDROOT
BRANCH   3  11
ATOM     11  C   UNL     1       1.849   7.821  19.845  0.00  0.00    +0.000 A 
ATOM     12  C   UNL     1       1.579   7.939  21.217  0.00  0.00    +0.000 A 
ATOM     13  C   UNL     1       0.950   9.071  21.744  0.00  0.00    +0.000 A 
ATOM     14  C   UNL     1       0.580  10.116  20.904  0.00  0.00    +0.000 A 
ATOM     15  C   UNL     1       0.864  10.036  19.545  0.00  0.00    +0.000 A 
ATOM     16  C   UNL     1       1.508   8.906  19.019  0.00  0.00    +0.000 A 
ENDBRANCH   3  11
BRANCH   1  18
ATOM     17  N   UNL     1       6.419   6.625  17.373  0.00  0.00    +0.000 N 
ATOM     18  C   UNL     1       5.210   6.301  16.769  0.00  0.00    +0.000 C 
ATOM     19  O   UNL     1       4.994   6.313  15.565  0.00  0.00    +0.000 OA
ATOM     20  H   UNL     1       6.495   6.557  18.388  0.00  0.00    +0.000 HD
BRANCH  17  21
ATOM     21  N   UNL     1       7.566   6.855  16.583  0.00  0.00    +0.000 NA
ATOM     22  H   UNL     1       8.283   7.316  17.144  0.00  0.00    +0.000 HD
ATOM     23  H   UNL     1       7.313   7.526  15.847  0.00  0.00    +0.000 HD
ENDBRANCH  17  21
ENDBRANCH   1  18
BRANCH   7  24
ATOM     24  N   UNL     1       1.559   2.317  19.905  0.00  0.00    +0.000 N 
ATOM     25  H   UNL     1       1.498   2.580  20.892  0.00  0.00    +0.000 HD
ATOM     26  H   UNL     1       0.690   1.983  19.501  0.00  0.00    +0.000 HD
ENDBRANCH   7  24
TORSDOF 4
ENDMDL
MODEL 5
REMARK VINA RESULT:      -7.4      1.070      1.518
REMARK  Name = 
REMARK  4 active torsions:
REMARK  status: ('A' for Active; 'I' for Inactive)
REMARK    1  A    between atoms: N_1  and  N_2
REMARK    2  A    between atoms: C_3  and  C_5
REMARK    3  A    between atoms: N_7  and  C_8
REMARK    4  A    between atoms: C_17  and  N_18
REMARK                            x       y       z     vdW  Elec       q    Type
REMARK                         _______ _______ _______ _____ _____    ______ ____
ROOT
ATOM      1  C   UNL     1       4.275   5.833  18.030  0.00  0.00    +0.000 A 
ATOM      2  N   UNL     1       3.536   6.892  18.237  0.00  0.00    +0.000 NA
ATOM      3  N   UNL     1       2.542   6.901  19.238  0.00  0.00    +0.000 N 
ATOM      4  C   UNL     1       2.212   5.783  20.051  0.00  0.00    +0.000 A 
ATOM      5  O   UNL     1       1.284   5.726  20.854  0.00  0.00    +0.000 OA
ATOM      6  C   UNL     1       3.066   4.629  19.829  0.00  0.00    +0.000 A 
ATOM      7  C   UNL     1       2.991   3.422  20.496  0.00  0.00    +0.000 A 
ATOM      8  S   UNL     1       4.170   2.324  19.918  0.00  0.00    +0.000 S 
ATOM      9  C   UNL     1       4.774   3.460  18.788  0.00  0.00    +0.000 A 
ATOM     10  C   UNL     1       4.083   4.650  18.839  0.00  0.00    +0.000 A 
ENDROOT
BRANCH   3  11
ATOM     11  C   UNL     1       1.817   8.141  19.333  0.00  0.00    +0.000 A 
ATOM     12  C   UNL     1       1.600   8.962  18.215  0.00  0.00    +0.000 A 
ATOM     13  C   UNL     1       0.941  10.191  18.327  0.00  0.00    +0.000 A 
ATOM     14  C   UNL     1       0.481  10.623  19.565  0.00  0.00    +0.000 A 
ATOM     15  C   UNL     1       0.657   9.813  20.683  0.00  0.00    +0.000 A 
ATOM     16  C   UNL     1       1.305   8.575  20.568  0.00  0.00    +0.000 A 
ENDBRANCH   3  11
BRANCH   1  18
ATOM     17  N   UNL     1       6.474   6.618  17.296  0.00  0.00    +0.000 N 
ATOM     18  C   UNL     1       5.330   5.922  16.925  0.00  0.00    +0.000 C 
ATOM     19  O   UNL     1       5.133   5.416  15.829  0.00  0.00    +0.000 OA
ATOM     20  H   UNL     1       6.543   6.978  18.248  0.00  0.00    +0.000 HD
BRANCH  17  21
ATOM     21  N   UNL     1       7.591   6.655  16.434  0.00  0.00    +0.000 NA
ATOM     22  H   UNL     1       8.405   6.264  16.909  0.00  0.00    +0.000 HD
ATOM     23  H   UNL     1       7.820   7.642  16.256  0.00  0.00    +0.000 HD
ENDBRANCH  17  21
ENDBRANCH   1  18
BRANCH   7  24
ATOM     24  N   UNL     1       2.137   3.075  21.479  0.00  0.00    +0.000 N 
ATOM     25  H   UNL     1       1.175   3.422  21.445  0.00  0.00    +0.000 HD
ATOM     26  H   UNL     1       2.252   2.193  21.966  0.00  0.00    +0.000 HD
ENDBRANCH   7  24
TORSDOF 4
ENDMDL
MODEL 6
REMARK VINA RESULT:      -7.4      1.543      1.930
REMARK  Name = 
REMARK  4 active torsions:
REMARK  status: ('A' for Active; 'I' for Inactive)
REMARK    1  A    between atoms: N_1  and  N_2
REMARK    2  A    between atoms: C_3  and  C_5
REMARK    3  A    between atoms: N_7  and  C_8
REMARK    4  A    between atoms: C_17  and  N_18
REMARK                            x       y       z     vdW  Elec       q    Type
REMARK                         _______ _______ _______ _____ _____    ______ ____
ROOT
ATOM      1  C   UNL     1       4.121   5.854  17.741  0.00  0.00    +0.000 A 
ATOM      2  N   UNL     1       3.482   6.842  18.312  0.00  0.00    +0.000 NA
ATOM      3  N   UNL     1       2.449   6.599  19.241  0.00  0.00    +0.000 N 
ATOM      4  C   UNL     1       1.975   5.307  19.593  0.00  0.00    +0.000 A 
ATOM      5  O   UNL     1       1.010   5.066  20.315  0.00  0.00    +0.000 OA
ATOM      6  C   UNL     1       2.719   4.223  18.975  0.00  0.00    +0.000 A 
ATOM      7  C   UNL     1       2.495   2.874  19.159  0.00  0.00    +0.000 A 
ATOM      8  S   UNL     1       3.584   1.935  18.230  0.00  0.00    +0.000 S 
ATOM      9  C   UNL     1       4.348   3.328  17.592  0.00  0.00    +0.000 A 
ATOM     10  C   UNL     1       3.776   4.488  18.065  0.00  0.00    +0.000 A 
ENDROOT
BRANCH   3  11
ATOM     11  C   UNL     1       1.847   7.793  19.774  0.00  0.00    +0.000 A 
ATOM     12  C   UNL     1       1.498   8.878  18.955  0.00  0.00    +0.000 A 
ATOM     13  C   UNL     1       0.963  10.055  19.488  0.00  0.00    +0.000 A 
ATOM     14  C   UNL     1       0.762  10.169  20.858  0.00  0.00    +0.000 A 
ATOM     15  C   UNL     1       1.072   9.096  21.689  0.00  0.00    +0.000 A 
ATOM     16  C   UNL     1       1.595   7.911  21.152  0.00  0.00    +0.000 A 
ENDBRANCH   3  11
BRANCH   1  18
ATOM     17  N   UNL     1       6.402   6.655  17.354  0.00  0.00    +0.000 N 
ATOM     18  C   UNL     1       5.229   6.219  16.749  0.00  0.00    +0.000 C 
ATOM     19  O   UNL     1       5.046   6.125  15.543  0.00  0.00    +0.000 OA
ATOM     20  H   UNL     1       6.453   6.671  18.372  0.00  0.00    +0.000 HD
BRANCH  17  21
ATOM     21  N   UNL     1       7.557   6.885  16.575  0.00  0.00    +0.000 NA
ATOM     22  H   UNL     1       8.299   6.248  16.866  0.00  0.00    +0.000 HD
ATOM     23  H   UNL     1       7.900   7.830  16.791  0.00  0.00    +0.000 HD
ENDBRANCH  17  21
ENDBRANCH   1  18
BRANCH   7  24
ATOM     24  N   UNL     1       1.567   2.291  19.944  0.00  0.00    +0.000 N 
ATOM     25  H   UNL     1       1.030   1.502  19.575  0.00  0.00    +0.000 HD
ATOM     26  H   UNL     1       1.677   2.294  20.952  0.00  0.00    +0.000 HD
ENDBRANCH   7  24
TORSDOF 4
ENDMDL
MODEL 7
REMARK VINA RESULT:      -7.3      3.281      6.034
REMARK  Name = 
REMARK  4 active torsions:
REMARK  status: ('A' for Active; 'I' for Inactive)
REMARK    1  A    between atoms: N_1  and  N_2
REMARK    2  A    between atoms: C_3  and  C_5
REMARK    3  A    between atoms: N_7  and  C_8
REMARK    4  A    between atoms: C_17  and  N_18
REMARK                            x       y       z     vdW  Elec       q    Type
REMARK                         _______ _______ _______ _____ _____    ______ ____
ROOT
ATOM      1  C   UNL     1       4.288   3.718  17.934  0.00  0.00    +0.000 A 
ATOM      2  N   UNL     1       4.930   3.691  16.795  0.00  0.00    +0.000 NA
ATOM      3  N   UNL     1       5.059   4.853  16.006  0.00  0.00    +0.000 N 
ATOM      4  C   UNL     1       4.475   6.108  16.325  0.00  0.00    +0.000 A 
ATOM      5  O   UNL     1       4.479   7.107  15.609  0.00  0.00    +0.000 OA
ATOM      6  C   UNL     1       3.795   6.126  17.608  0.00  0.00    +0.000 A 
ATOM      7  C   UNL     1       3.166   7.213  18.181  0.00  0.00    +0.000 A 
ATOM      8  S   UNL     1       2.474   6.802  19.691  0.00  0.00    +0.000 S 
ATOM      9  C   UNL     1       3.019   5.183  19.577  0.00  0.00    +0.000 A 
ATOM     10  C   UNL     1       3.702   4.954  18.404  0.00  0.00    +0.000 A 
ENDROOT
BRANCH   3  11
ATOM     11  C   UNL     1       5.792   4.652  14.783  0.00  0.00    +0.000 A 
ATOM     12  C   UNL     1       5.304   3.835  13.751  0.00  0.00    +0.000 A 
ATOM     13  C   UNL     1       6.047   3.603  12.589  0.00  0.00    +0.000 A 
ATOM     14  C   UNL     1       7.297   4.190  12.434  0.00  0.00    +0.000 A 
ATOM     15  C   UNL     1       7.789   5.028  13.429  0.00  0.00    +0.000 A 
ATOM     16  C   UNL     1       7.038   5.272  14.587  0.00  0.00    +0.000 A 
ENDBRANCH   3  11
BRANCH   1  18
ATOM     17  N   UNL     1       5.192   2.271  19.689  0.00  0.00    +0.000 N 
ATOM     18  C   UNL     1       4.204   2.407  18.720  0.00  0.00    +0.000 C 
ATOM     19  O   UNL     1       3.334   1.583  18.476  0.00  0.00    +0.000 OA
ATOM     20  H   UNL     1       5.855   3.034  19.825  0.00  0.00    +0.000 HD
BRANCH  17  21
ATOM     21  N   UNL     1       5.154   1.185  20.590  0.00  0.00    +0.000 NA
ATOM     22  H   UNL     1       4.372   0.572  20.357  0.00  0.00    +0.000 HD
ATOM     23  H   UNL     1       4.946   1.558  21.525  0.00  0.00    +0.000 HD
ENDBRANCH  17  21
ENDBRANCH   1  18
BRANCH   7  24
ATOM     24  N   UNL     1       3.064   8.462  17.684  0.00  0.00    +0.000 N 
ATOM     25  H   UNL     1       3.141   8.602  16.673  0.00  0.00    +0.000 HD
ATOM     26  H   UNL     1       2.507   9.159  18.167  0.00  0.00    +0.000 HD
ENDBRANCH   7  24
TORSDOF 4
ENDMDL
MODEL 8
REMARK VINA RESULT:      -7.3      3.152      5.901
REMARK  Name = 
REMARK  4 active torsions:
REMARK  status: ('A' for Active; 'I' for Inactive)
REMARK    1  A    between atoms: N_1  and  N_2
REMARK    2  A    between atoms: C_3  and  C_5
REMARK    3  A    between atoms: N_7  and  C_8
REMARK    4  A    between atoms: C_17  and  N_18
REMARK                            x       y       z     vdW  Elec       q    Type
REMARK                         _______ _______ _______ _____ _____    ______ ____
ROOT
ATOM      1  C   UNL     1       4.173   3.838  18.282  0.00  0.00    +0.000 A 
ATOM      2  N   UNL     1       4.849   3.778  17.163  0.00  0.00    +0.000 NA
ATOM      3  N   UNL     1       4.980   4.908  16.331  0.00  0.00    +0.000 N 
ATOM      4  C   UNL     1       4.364   6.164  16.582  0.00  0.00    +0.000 A 
ATOM      5  O   UNL     1       4.371   7.133  15.826  0.00  0.00    +0.000 OA
ATOM      6  C   UNL     1       3.648   6.222  17.844  0.00  0.00    +0.000 A 
ATOM      7  C   UNL     1       2.984   7.319  18.354  0.00  0.00    +0.000 A 
ATOM      8  S   UNL     1       2.257   6.957  19.860  0.00  0.00    +0.000 S 
ATOM      9  C   UNL     1       2.833   5.345  19.827  0.00  0.00    +0.000 A 
ATOM     10  C   UNL     1       3.553   5.081  18.684  0.00  0.00    +0.000 A 
ENDROOT
BRANCH   3  11
ATOM     11  C   UNL     1       5.750   4.672  15.138  0.00  0.00    +0.000 A 
ATOM     12  C   UNL     1       7.005   5.267  14.934  0.00  0.00    +0.000 A 
ATOM     13  C   UNL     1       7.721   5.074  13.749  0.00  0.00    +0.000 A 
ATOM     14  C   UNL     1       7.196   4.274  12.741  0.00  0.00    +0.000 A 
ATOM     15  C   UNL     1       5.968   3.649  12.931  0.00  0.00    +0.000 A 
ATOM     16  C   UNL     1       5.256   3.831  14.125  0.00  0.00    +0.000 A 
ENDBRANCH   3  11
BRANCH   1  18
ATOM     17  N   UNL     1       5.124   2.423  20.039  0.00  0.00    +0.000 N 
ATOM     18  C   UNL     1       4.091   2.559  19.119  0.00  0.00    +0.000 C 
ATOM     19  O   UNL     1       3.183   1.758  18.951  0.00  0.00    +0.000 OA
ATOM     20  H   UNL     1       5.818   3.168  20.112  0.00  0.00    +0.000 HD
BRANCH  17  21
ATOM     21  N   UNL     1       5.101   1.371  20.980  0.00  0.00    +0.000 NA
ATOM     22  H   UNL     1       4.151   1.007  21.064  0.00  0.00    +0.000 HD
ATOM     23  H   UNL     1       5.330   1.766  21.900  0.00  0.00    +0.000 HD
ENDBRANCH  17  21
ENDBRANCH   1  18
BRANCH   7  24
ATOM     24  N   UNL     1       2.873   8.545  17.803  0.00  0.00    +0.000 N 
ATOM     25  H   UNL     1       3.422   9.315  18.195  0.00  0.00    +0.000 HD
ATOM     26  H   UNL     1       2.645   8.644  16.820  0.00  0.00    +0.000 HD
ENDBRANCH   7  24
TORSDOF 4
ENDMDL
MODEL 9
REMARK VINA RESULT:      -7.3      2.267      4.068
REMARK  Name = 
REMARK  4 active torsions:
REMARK  status: ('A' for Active; 'I' for Inactive)
REMARK    1  A    between atoms: N_1  and  N_2
REMARK    2  A    between atoms: C_3  and  C_5
REMARK    3  A    between atoms: N_7  and  C_8
REMARK    4  A    between atoms: C_17  and  N_18
REMARK                            x       y       z     vdW  Elec       q    Type
REMARK                         _______ _______ _______ _____ _____    ______ ____
ROOT
ATOM      1  C   UNL     1       2.707   4.565  19.247  0.00  0.00    +0.000 A 
ATOM      2  N   UNL     1       2.159   5.682  19.650  0.00  0.00    +0.000 NA
ATOM      3  N   UNL     1       2.455   6.906  19.016  0.00  0.00    +0.000 N 
ATOM      4  C   UNL     1       3.389   7.055  17.956  0.00  0.00    +0.000 A 
ATOM      5  O   UNL     1       3.747   8.119  17.456  0.00  0.00    +0.000 OA
ATOM      6  C   UNL     1       3.961   5.800  17.500  0.00  0.00    +0.000 A 
ATOM      7  C   UNL     1       4.868   5.644  16.472  0.00  0.00    +0.000 A 
ATOM      8  S   UNL     1       5.300   4.001  16.272  0.00  0.00    +0.000 S 
ATOM      9  C   UNL     1       4.275   3.505  17.551  0.00  0.00    +0.000 A 
ATOM     10  C   UNL     1       3.626   4.573  18.131  0.00  0.00    +0.000 A 
ENDROOT
BRANCH   3  11
ATOM     11  C   UNL     1       1.772   8.040  19.583  0.00  0.00    +0.000 A 
ATOM     12  C   UNL     1       1.470   8.116  20.952  0.00  0.00    +0.000 A 
ATOM     13  C   UNL     1       0.759   9.196  21.484  0.00  0.00    +0.000 A 
ATOM     14  C   UNL     1       0.338  10.229  20.655  0.00  0.00    +0.000 A 
ATOM     15  C   UNL     1       0.652  10.191  19.300  0.00  0.00    +0.000 A 
ATOM     16  C   UNL     1       1.377   9.115  18.769  0.00  0.00    +0.000 A 
ENDBRANCH   3  11
BRANCH   1  18
ATOM     17  N   UNL     1       2.211   3.453  21.371  0.00  0.00    +0.000 N 
ATOM     18  C   UNL     1       2.320   3.286  19.995  0.00  0.00    +0.000 C 
ATOM     19  O   UNL     1       2.142   2.237  19.393  0.00  0.00    +0.000 OA
ATOM     20  H   UNL     1       2.357   4.382  21.766  0.00  0.00    +0.000 HD
BRANCH  17  21
ATOM     21  N   UNL     1       1.719   2.402  22.175  0.00  0.00    +0.000 NA
ATOM     22  H   UNL     1       0.963   1.921  21.686  0.00  0.00    +0.000 HD
ATOM     23  H   UNL     1       1.290   2.818  23.011  0.00  0.00    +0.000 HD
ENDBRANCH  17  21
ENDBRANCH   1  18
BRANCH   7  24
ATOM     24  N   UNL     1       5.393   6.604  15.684  0.00  0.00    +0.000 N 
ATOM     25  H   UNL     1       4.770   7.142  15.076  0.00  0.00    +0.000 HD
ATOM     26  H   UNL     1       6.235   7.093  15.968  0.00  0.00    +0.000 HD
ENDBRANCH   7  24
TORSDOF 4
ENDMDL
