MODEL 1
REMARK VINA RESULT:      -6.5      0.000      0.000
REMARK  Name = 
REMARK  11 active torsions:
REMARK  status: ('A' for Active; 'I' for Inactive)
REMARK    1  A    between atoms: C_1  and  C_2
REMARK    2  A    between atoms: C_2  and  C_3
REMARK    3  A    between atoms: C_3  and  C_4
REMARK    4  A    between atoms: C_4  and  N_5
REMARK    5  A    between atoms: C_8  and  C_9
REMARK    6  A    between atoms: C_10  and  O_11
REMARK    7  A    between atoms: C_14  and  C_15
REMARK    8  A    between atoms: C_15  and  O_17
REMARK    9  A    between atoms: O_17  and  C_18
REMARK   10  A    between atoms: C_18  and  C_19
REMARK   11  A    between atoms: C_20  and  C_21
REMARK                            x       y       z     vdW  Elec       q    Type
REMARK                         _______ _______ _______ _____ _____    ______ ____
ROOT
ATOM      1  N   UNL     1       4.530   4.489  16.643  0.00  0.00    +0.000 N 
ATOM      2  C   UNL     1       5.350   4.479  15.466  0.00  0.00    +0.000 A 
ATOM      3  C   UNL     1       5.111   3.682  14.358  0.00  0.00    +0.000 A 
ATOM      4  C   UNL     1       5.948   3.791  13.242  0.00  0.00    +0.000 A 
ATOM      5  C   UNL     1       5.642   2.949  12.035  0.00  0.00    +0.000 C 
ATOM      6  C   UNL     1       7.023   4.703  13.294  0.00  0.00    +0.000 A 
ATOM      7  C   UNL     1       7.273   5.494  14.425  0.00  0.00    +0.000 A 
ATOM      8  C   UNL     1       6.419   5.379  15.508  0.00  0.00    +0.000 A 
ATOM      9  C   UNL     1       6.365   6.160  16.792  0.00  0.00    +0.000 C 
ATOM     10  C   UNL     1       4.896   5.841  17.181  0.00  0.00    +0.000 C 
ATOM     11  C   UNL     1       4.464   6.074  18.619  0.00  0.00    +0.000 C 
ENDROOT
BRANCH   6  12
ATOM     12  O   UNL     1       7.865   4.893  12.231  0.00  0.00    +0.000 OA
ATOM     13  H   UNL     1       8.412   4.104  12.116  0.00  0.00    +0.000 HD
ENDBRANCH   6  12
BRANCH   9  14
ATOM     14  C   UNL     1       7.336   5.757  17.882  0.00  0.00    +0.000 C 
ATOM     15  O   UNL     1       7.557   4.629  18.290  0.00  0.00    +0.000 OA
BRANCH  14  16
ATOM     16  O   UNL     1       7.888   6.892  18.427  0.00  0.00    +0.000 OA
BRANCH  16  17
ATOM     17  C   UNL     1       7.787   8.104  17.660  0.00  0.00    +0.000 C 
ATOM     18  C   UNL     1       8.521   9.265  18.304  0.00  0.00    +0.000 C 
ENDBRANCH  16  17
ENDBRANCH  14  16
ENDBRANCH   9  14
BRANCH   1  19
ATOM     19  C   UNL     1       4.852   3.275  17.426  0.00  0.00    +0.000 C 
BRANCH  19  20
ATOM     20  C   UNL     1       3.572   2.538  17.814  0.00  0.00    +0.000 C 
BRANCH  20  22
ATOM     21  C   UNL     1       1.220   3.165  18.441  0.00  0.00    +0.000 C 
ATOM     22  C   UNL     1       2.333   3.346  17.424  0.00  0.00    +0.000 C 
ENDBRANCH  20  22
ENDBRANCH  19  20
ENDBRANCH   1  19
TORSDOF 7
ENDMDL
MODEL 2
REMARK VINA RESULT:      -6.5      3.265      5.472
REMARK  Name = 
REMARK  11 active torsions:
REMARK  status: ('A' for Active; 'I' for Inactive)
REMARK    1  A    between atoms: C_1  and  C_2
REMARK    2  A    between atoms: C_2  and  C_3
REMARK    3  A    between atoms: C_3  and  C_4
REMARK    4  A    between atoms: C_4  and  N_5
REMARK    5  A    between atoms: C_8  and  C_9
REMARK    6  A    between atoms: C_10  and  O_11
REMARK    7  A    between atoms: C_14  and  C_15
REMARK    8  A    between atoms: C_15  and  O_17
REMARK    9  A    between atoms: O_17  and  C_18
REMARK   10  A    between atoms: C_18  and  C_19
REMARK   11  A    between atoms: C_20  and  C_21
REMARK                            x       y       z     vdW  Elec       q    Type
REMARK                         _______ _______ _______ _____ _____    ______ ____
ROOT
ATOM      1  N   UNL     1       3.409   6.668  18.446  0.00  0.00    +0.000 N 
ATOM      2  C   UNL     1       4.158   5.814  17.572  0.00  0.00    +0.000 A 
ATOM      3  C   UNL     1       5.097   6.267  16.658  0.00  0.00    +0.000 A 
ATOM      4  C   UNL     1       5.809   5.339  15.889  0.00  0.00    +0.000 A 
ATOM      5  C   UNL     1       6.853   5.852  14.938  0.00  0.00    +0.000 C 
ATOM      6  C   UNL     1       5.529   3.968  16.062  0.00  0.00    +0.000 A 
ATOM      7  C   UNL     1       4.565   3.515  16.974  0.00  0.00    +0.000 A 
ATOM      8  C   UNL     1       3.889   4.452  17.735  0.00  0.00    +0.000 A 
ATOM      9  C   UNL     1       2.900   4.269  18.853  0.00  0.00    +0.000 C 
ATOM     10  C   UNL     1       3.045   5.670  19.505  0.00  0.00    +0.000 C 
ATOM     11  C   UNL     1       1.955   6.140  20.453  0.00  0.00    +0.000 C 
ENDROOT
BRANCH   6  12
ATOM     12  O   UNL     1       6.206   2.998  15.374  0.00  0.00    +0.000 OA
ATOM     13  H   UNL     1       5.751   2.152  15.488  0.00  0.00    +0.000 HD
ENDBRANCH   6  12
BRANCH   9  14
ATOM     14  C   UNL     1       1.467   3.977  18.460  0.00  0.00    +0.000 C 
ATOM     15  O   UNL     1       0.933   4.220  17.390  0.00  0.00    +0.000 OA
BRANCH  14  16
ATOM     16  O   UNL     1       0.803   3.463  19.549  0.00  0.00    +0.000 OA
BRANCH  16  17
ATOM     17  C   UNL     1       1.443   2.387  20.258  0.00  0.00    +0.000 C 
ATOM     18  C   UNL     1       1.529   2.644  21.751  0.00  0.00    +0.000 C 
ENDBRANCH  16  17
ENDBRANCH  14  16
ENDBRANCH   9  14
BRANCH   1  19
ATOM     19  C   UNL     1       2.343   7.309  17.645  0.00  0.00    +0.000 C 
BRANCH  19  20
ATOM     20  C   UNL     1       2.402   8.828  17.799  0.00  0.00    +0.000 C 
BRANCH  20  22
ATOM     21  C   UNL     1       0.779   9.728  19.494  0.00  0.00    +0.000 C 
ATOM     22  C   UNL     1       1.007   9.411  18.026  0.00  0.00    +0.000 C 
ENDBRANCH  20  22
ENDBRANCH  19  20
ENDBRANCH   1  19
TORSDOF 7
ENDMDL
MODEL 3
REMARK VINA RESULT:      -6.4      3.397      5.939
REMARK  Name = 
REMARK  11 active torsions:
REMARK  status: ('A' for Active; 'I' for Inactive)
REMARK    1  A    between atoms: C_1  and  C_2
REMARK    2  A    between atoms: C_2  and  C_3
REMARK    3  A    between atoms: C_3  and  C_4
REMARK    4  A    between atoms: C_4  and  N_5
REMARK    5  A    between atoms: C_8  and  C_9
REMARK    6  A    between atoms: C_10  and  O_11
REMARK    7  A    between atoms: C_14  and  C_15
REMARK    8  A    between atoms: C_15  and  O_17
REMARK    9  A    between atoms: O_17  and  C_18
REMARK   10  A    between atoms: C_18  and  C_19
REMARK   11  A    between atoms: C_20  and  C_21
REMARK                            x       y       z     vdW  Elec       q    Type
REMARK                         _______ _______ _______ _____ _____    ______ ____
ROOT
ATOM      1  N   UNL     1       3.087   5.566  20.240  0.00  0.00    +0.000 N 
ATOM      2  C   UNL     1       2.625   6.763  19.600  0.00  0.00    +0.000 A 
ATOM      3  C   UNL     1       1.808   7.704  20.206  0.00  0.00    +0.000 A 
ATOM      4  C   UNL     1       1.460   8.864  19.504  0.00  0.00    +0.000 A 
ATOM      5  C   UNL     1       0.610   9.890  20.199  0.00  0.00    +0.000 C 
ATOM      6  C   UNL     1       1.943   9.024  18.189  0.00  0.00    +0.000 A 
ATOM      7  C   UNL     1       2.753   8.060  17.572  0.00  0.00    +0.000 A 
ATOM      8  C   UNL     1       3.098   6.932  18.295  0.00  0.00    +0.000 A 
ATOM      9  C   UNL     1       4.027   5.800  17.950  0.00  0.00    +0.000 C 
ATOM     10  C   UNL     1       4.293   5.288  19.391  0.00  0.00    +0.000 C 
ATOM     11  C   UNL     1       4.866   3.892  19.565  0.00  0.00    +0.000 C 
ENDROOT
BRANCH   6  12
ATOM     12  O   UNL     1       1.675  10.145  17.450  0.00  0.00    +0.000 OA
ATOM     13  H   UNL     1       2.173  10.105  16.621  0.00  0.00    +0.000 HD
ENDBRANCH   6  12
BRANCH   9  14
ATOM     14  C   UNL     1       3.475   4.709  17.057  0.00  0.00    +0.000 C 
ATOM     15  O   UNL     1       2.378   4.182  17.130  0.00  0.00    +0.000 OA
BRANCH  14  16
ATOM     16  O   UNL     1       4.456   4.316  16.177  0.00  0.00    +0.000 OA
BRANCH  16  17
ATOM     17  C   UNL     1       5.474   5.282  15.857  0.00  0.00    +0.000 C 
ATOM     18  C   UNL     1       6.876   4.726  16.019  0.00  0.00    +0.000 C 
ENDBRANCH  16  17
ENDBRANCH  14  16
ENDBRANCH   9  14
BRANCH   1  19
ATOM     19  C   UNL     1       1.964   4.603  20.257  0.00  0.00    +0.000 C 
BRANCH  19  20
ATOM     20  C   UNL     1       1.960   3.815  21.565  0.00  0.00    +0.000 C 
BRANCH  20  22
ATOM     21  C   UNL     1       1.446   2.041  19.860  0.00  0.00    +0.000 C 
ATOM     22  C   UNL     1       1.477   2.381  21.340  0.00  0.00    +0.000 C 
ENDBRANCH  20  22
ENDBRANCH  19  20
ENDBRANCH   1  19
TORSDOF 7
ENDMDL
MODEL 4
REMARK VINA RESULT:      -6.3      3.097      5.723
REMARK  Name = 
REMARK  11 active torsions:
REMARK  status: ('A' for Active; 'I' for Inactive)
REMARK    1  A    between atoms: C_1  and  C_2
REMARK    2  A    between atoms: C_2  and  C_3
REMARK    3  A    between atoms: C_3  and  C_4
REMARK    4  A    between atoms: C_4  and  N_5
REMARK    5  A    between atoms: C_8  and  C_9
REMARK    6  A    between atoms: C_10  and  O_11
REMARK    7  A    between atoms: C_14  and  C_15
REMARK    8  A    between atoms: C_15  and  O_17
REMARK    9  A    between atoms: O_17  and  C_18
REMARK   10  A    between atoms: C_18  and  C_19
REMARK   11  A    between atoms: C_20  and  C_21
REMARK                            x       y       z     vdW  Elec       q    Type
REMARK                         _______ _______ _______ _____ _____    ______ ____
ROOT
ATOM      1  N   UNL     1       3.743   5.505  19.866  0.00  0.00    +0.000 N 
ATOM      2  C   UNL     1       3.101   6.662  19.312  0.00  0.00    +0.000 A 
ATOM      3  C   UNL     1       2.099   7.376  19.950  0.00  0.00    +0.000 A 
ATOM      4  C   UNL     1       1.579   8.522  19.338  0.00  0.00    +0.000 A 
ATOM      5  C   UNL     1       0.526   9.305  20.070  0.00  0.00    +0.000 C 
ATOM      6  C   UNL     1       2.085   8.901  18.078  0.00  0.00    +0.000 A 
ATOM      7  C   UNL     1       3.086   8.164  17.427  0.00  0.00    +0.000 A 
ATOM      8  C   UNL     1       3.596   7.045  18.062  0.00  0.00    +0.000 A 
ATOM      9  C   UNL     1       4.730   6.137  17.674  0.00  0.00    +0.000 C 
ATOM     10  C   UNL     1       5.017   5.533  19.075  0.00  0.00    +0.000 C 
ATOM     11  C   UNL     1       5.826   4.250  19.154  0.00  0.00    +0.000 C 
ENDROOT
BRANCH   6  12
ATOM     12  O   UNL     1       1.653  10.027  17.431  0.00  0.00    +0.000 OA
ATOM     13  H   UNL     1       2.069  10.070  16.558  0.00  0.00    +0.000 HD
ENDBRANCH   6  12
BRANCH   9  14
ATOM     14  C   UNL     1       4.429   5.063  16.649  0.00  0.00    +0.000 C 
ATOM     15  O   UNL     1       3.656   4.127  16.769  0.00  0.00    +0.000 OA
BRANCH  14  16
ATOM     16  O   UNL     1       5.246   5.248  15.558  0.00  0.00    +0.000 OA
BRANCH  16  17
ATOM     17  C   UNL     1       6.133   4.169  15.215  0.00  0.00    +0.000 C 
ATOM     18  C   UNL     1       6.089   3.827  13.737  0.00  0.00    +0.000 C 
ENDBRANCH  16  17
ENDBRANCH  14  16
ENDBRANCH   9  14
BRANCH   1  19
ATOM     19  C   UNL     1       2.814   4.363  19.721  0.00  0.00    +0.000 C 
BRANCH  19  20
ATOM     20  C   UNL     1       2.307   3.913  21.090  0.00  0.00    +0.000 C 
BRANCH  20  22
ATOM     21  C   UNL     1       0.746   2.759  19.494  0.00  0.00    +0.000 C 
ATOM     22  C   UNL     1       1.151   2.921  20.948  0.00  0.00    +0.000 C 
ENDBRANCH  20  22
ENDBRANCH  19  20
ENDBRANCH   1  19
TORSDOF 7
ENDMDL
MODEL 5
REMARK VINA RESULT:      -6.3      2.348      5.269
REMARK  Name = 
REMARK  11 active torsions:
REMARK  status: ('A' for Active; 'I' for Inactive)
REMARK    1  A    between atoms: C_1  and  C_2
REMARK    2  A    between atoms: C_2  and  C_3
REMARK    3  A    between atoms: C_3  and  C_4
REMARK    4  A    between atoms: C_4  and  N_5
REMARK    5  A    between atoms: C_8  and  C_9
REMARK    6  A    between atoms: C_10  and  O_11
REMARK    7  A    between atoms: C_14  and  C_15
REMARK    8  A    between atoms: C_15  and  O_17
REMARK    9  A    between atoms: O_17  and  C_18
REMARK   10  A    between atoms: C_18  and  C_19
REMARK   11  A    between atoms: C_20  and  C_21
REMARK                            x       y       z     vdW  Elec       q    Type
REMARK                         _______ _______ _______ _____ _____    ______ ____
ROOT
ATOM      1  N   UNL     1       3.872   5.467  17.136  0.00  0.00    +0.000 N 
ATOM      2  C   UNL     1       3.693   4.643  18.297  0.00  0.00    +0.000 A 
ATOM      3  C   UNL     1       2.611   4.737  19.157  0.00  0.00    +0.000 A 
ATOM      4  C   UNL     1       2.511   3.847  20.232  0.00  0.00    +0.000 A 
ATOM      5  C   UNL     1       1.306   3.939  21.125  0.00  0.00    +0.000 C 
ATOM      6  C   UNL     1       3.532   2.891  20.411  0.00  0.00    +0.000 A 
ATOM      7  C   UNL     1       4.636   2.812  19.549  0.00  0.00    +0.000 A 
ATOM      8  C   UNL     1       4.701   3.692  18.483  0.00  0.00    +0.000 A 
ATOM      9  C   UNL     1       5.682   3.776  17.347  0.00  0.00    +0.000 C 
ATOM     10  C   UNL     1       4.804   4.586  16.356  0.00  0.00    +0.000 C 
ATOM     11  C   UNL     1       5.486   5.281  15.191  0.00  0.00    +0.000 C 
ENDROOT
BRANCH   6  12
ATOM     12  O   UNL     1       3.490   1.964  21.417  0.00  0.00    +0.000 OA
ATOM     13  H   UNL     1       2.865   1.265  21.177  0.00  0.00    +0.000 HD
ENDBRANCH   6  12
BRANCH   9  14
ATOM     14  C   UNL     1       6.999   4.469  17.628  0.00  0.00    +0.000 C 
ATOM     15  O   UNL     1       8.031   4.377  16.984  0.00  0.00    +0.000 OA
BRANCH  14  16
ATOM     16  O   UNL     1       6.891   5.170  18.805  0.00  0.00    +0.000 OA
BRANCH  16  17
ATOM     17  C   UNL     1       7.903   6.154  19.078  0.00  0.00    +0.000 C 
ATOM     18  C   UNL     1       7.843   7.332  18.123  0.00  0.00    +0.000 C 
ENDBRANCH  16  17
ENDBRANCH  14  16
ENDBRANCH   9  14
BRANCH   1  19
ATOM     19  C   UNL     1       4.331   6.796  17.595  0.00  0.00    +0.000 C 
BRANCH  19  20
ATOM     20  C   UNL     1       3.332   7.875  17.182  0.00  0.00    +0.000 C 
BRANCH  20  22
ATOM     21  C   UNL     1       1.450   9.340  17.977  0.00  0.00    +0.000 C 
ATOM     22  C   UNL     1       2.305   8.123  18.288  0.00  0.00    +0.000 C 
ENDBRANCH  20  22
ENDBRANCH  19  20
ENDBRANCH   1  19
TORSDOF 7
ENDMDL
MODEL 6
REMARK VINA RESULT:      -6.3      1.240      1.469
REMARK  Name = 
REMARK  11 active torsions:
REMARK  status: ('A' for Active; 'I' for Inactive)
REMARK    1  A    between atoms: C_1  and  C_2
REMARK    2  A    between atoms: C_2  and  C_3
REMARK    3  A    between atoms: C_3  and  C_4
REMARK    4  A    between atoms: C_4  and  N_5
REMARK    5  A    between atoms: C_8  and  C_9
REMARK    6  A    between atoms: C_10  and  O_11
REMARK    7  A    between atoms: C_14  and  C_15
REMARK    8  A    between atoms: C_15  and  O_17
REMARK    9  A    between atoms: O_17  and  C_18
REMARK   10  A    between atoms: C_18  and  C_19
REMARK   11  A    between atoms: C_20  and  C_21
REMARK                            x       y       z     vdW  Elec       q    Type
REMARK                         _______ _______ _______ _____ _____    ______ ____
ROOT
ATOM      1  N   UNL     1       3.670   4.306  17.020  0.00  0.00    +0.000 N 
ATOM      2  C   UNL     1       4.765   4.446  16.106  0.00  0.00    +0.000 A 
ATOM      3  C   UNL     1       4.807   3.868  14.847  0.00  0.00    +0.000 A 
ATOM      4  C   UNL     1       5.906   4.114  14.015  0.00  0.00    +0.000 A 
ATOM      5  C   UNL     1       5.907   3.513  12.639  0.00  0.00    +0.000 C 
ATOM      6  C   UNL     1       6.945   4.935  14.501  0.00  0.00    +0.000 A 
ATOM      7  C   UNL     1       6.907   5.503  15.783  0.00  0.00    +0.000 A 
ATOM      8  C   UNL     1       5.801   5.258  16.577  0.00  0.00    +0.000 A 
ATOM      9  C   UNL     1       5.430   5.809  17.926  0.00  0.00    +0.000 C 
ATOM     10  C   UNL     1       3.906   5.519  17.870  0.00  0.00    +0.000 C 
ATOM     11  C   UNL     1       3.122   5.529  19.171  0.00  0.00    +0.000 C 
ENDROOT
BRANCH   6  12
ATOM     12  O   UNL     1       8.035   5.252  13.736  0.00  0.00    +0.000 OA
ATOM     13  H   UNL     1       8.775   5.479  14.317  0.00  0.00    +0.000 HD
ENDBRANCH   6  12
BRANCH   9  14
ATOM     14  C   UNL     1       6.081   5.165  19.133  0.00  0.00    +0.000 C 
ATOM     15  O   UNL     1       5.855   4.056  19.587  0.00  0.00    +0.000 OA
BRANCH  14  16
ATOM     16  O   UNL     1       6.929   6.075  19.719  0.00  0.00    +0.000 OA
BRANCH  16  17
ATOM     17  C   UNL     1       8.170   6.343  19.044  0.00  0.00    +0.000 C 
ATOM     18  C   UNL     1       8.264   7.772  18.542  0.00  0.00    +0.000 C 
ENDBRANCH  16  17
ENDBRANCH  14  16
ENDBRANCH   9  14
BRANCH   1  19
ATOM     19  C   UNL     1       3.759   2.958  17.625  0.00  0.00    +0.000 C 
BRANCH  19  20
ATOM     20  C   UNL     1       2.392   2.277  17.610  0.00  0.00    +0.000 C 
BRANCH  20  22
ATOM     21  C   UNL     1       0.749   2.789  19.443  0.00  0.00    +0.000 C 
ATOM     22  C   UNL     1       1.934   1.933  19.028  0.00  0.00    +0.000 C 
ENDBRANCH  20  22
ENDBRANCH  19  20
ENDBRANCH   1  19
TORSDOF 7
ENDMDL
MODEL 7
REMARK VINA RESULT:      -6.1      2.503      5.182
REMARK  Name = 
REMARK  11 active torsions:
REMARK  status: ('A' for Active; 'I' for Inactive)
REMARK    1  A    between atoms: C_1  and  C_2
REMARK    2  A    between atoms: C_2  and  C_3
REMARK    3  A    between atoms: C_3  and  C_4
REMARK    4  A    between atoms: C_4  and  N_5
REMARK    5  A    between atoms: C_8  and  C_9
REMARK    6  A    between atoms: C_10  and  O_11
REMARK    7  A    between atoms: C_14  and  C_15
REMARK    8  A    between atoms: C_15  and  O_17
REMARK    9  A    between atoms: O_17  and  C_18
REMARK   10  A    between atoms: C_18  and  C_19
REMARK   11  A    between atoms: C_20  and  C_21
REMARK                            x       y       z     vdW  Elec       q    Type
REMARK                         _______ _______ _______ _____ _____    ______ ____
ROOT
ATOM      1  N   UNL     1       5.449   4.797  19.005  0.00  0.00    +0.000 N 
ATOM      2  C   UNL     1       4.383   5.747  18.870  0.00  0.00    +0.000 A 
ATOM      3  C   UNL     1       3.362   5.907  19.793  0.00  0.00    +0.000 A 
ATOM      4  C   UNL     1       2.400   6.903  19.586  0.00  0.00    +0.000 A 
ATOM      5  C   UNL     1       1.329   7.087  20.623  0.00  0.00    +0.000 C 
ATOM      6  C   UNL     1       2.498   7.701  18.426  0.00  0.00    +0.000 A 
ATOM      7  C   UNL     1       3.522   7.522  17.485  0.00  0.00    +0.000 A 
ATOM      8  C   UNL     1       4.470   6.543  17.724  0.00  0.00    +0.000 A 
ATOM      9  C   UNL     1       5.725   6.198  16.970  0.00  0.00    +0.000 C 
ATOM     10  C   UNL     1       6.463   5.442  18.107  0.00  0.00    +0.000 C 
ATOM     11  C   UNL     1       7.626   4.538  17.735  0.00  0.00    +0.000 C 
ENDROOT
BRANCH   6  12
ATOM     12  O   UNL     1       1.618   8.717  18.170  0.00  0.00    +0.000 OA
ATOM     13  H   UNL     1       1.605   8.892  17.218  0.00  0.00    +0.000 HD
ENDBRANCH   6  12
BRANCH   9  14
ATOM     14  C   UNL     1       5.567   5.339  15.733  0.00  0.00    +0.000 C 
ATOM     15  O   UNL     1       4.739   4.463  15.545  0.00  0.00    +0.000 OA
BRANCH  14  16
ATOM     16  O   UNL     1       6.583   5.634  14.854  0.00  0.00    +0.000 OA
BRANCH  16  17
ATOM     17  C   UNL     1       6.878   4.656  13.842  0.00  0.00    +0.000 C 
ATOM     18  C   UNL     1       7.806   5.192  12.767  0.00  0.00    +0.000 C 
ENDBRANCH  16  17
ENDBRANCH  14  16
ENDBRANCH   9  14
BRANCH   1  19
ATOM     19  C   UNL     1       4.908   3.463  18.663  0.00  0.00    +0.000 C 
BRANCH  19  20
ATOM     20  C   UNL     1       4.362   2.774  19.912  0.00  0.00    +0.000 C 
BRANCH  20  22
ATOM     21  C   UNL     1       2.028   2.710  20.842  0.00  0.00    +0.000 C 
ATOM     22  C   UNL     1       2.927   2.294  19.690  0.00  0.00    +0.000 C 
ENDBRANCH  20  22
ENDBRANCH  19  20
ENDBRANCH   1  19
TORSDOF 7
ENDMDL
MODEL 8
REMARK VINA RESULT:      -6.1      1.839      4.940
REMARK  Name = 
REMARK  11 active torsions:
REMARK  status: ('A' for Active; 'I' for Inactive)
REMARK    1  A    between atoms: C_1  and  C_2
REMARK    2  A    between atoms: C_2  and  C_3
REMARK    3  A    between atoms: C_3  and  C_4
REMARK    4  A    between atoms: C_4  and  N_5
REMARK    5  A    between atoms: C_8  and  C_9
REMARK    6  A    between atoms: C_10  and  O_11
REMARK    7  A    between atoms: C_14  and  C_15
REMARK    8  A    between atoms: C_15  and  O_17
REMARK    9  A    between atoms: O_17  and  C_18
REMARK   10  A    between atoms: C_18  and  C_19
REMARK   11  A    between atoms: C_20  and  C_21
REMARK                            x       y       z     vdW  Elec       q    Type
REMARK                         _______ _______ _______ _____ _____    ______ ____
ROOT
ATOM      1  N   UNL     1       7.172   5.581  17.222  0.00  0.00    +0.000 N 
ATOM      2  C   UNL     1       6.769   5.124  15.924  0.00  0.00    +0.000 A 
ATOM      3  C   UNL     1       7.502   5.326  14.765  0.00  0.00    +0.000 A 
ATOM      4  C   UNL     1       7.038   4.790  13.558  0.00  0.00    +0.000 A 
ATOM      5  C   UNL     1       7.873   4.984  12.324  0.00  0.00    +0.000 C 
ATOM      6  C   UNL     1       5.823   4.073  13.564  0.00  0.00    +0.000 A 
ATOM      7  C   UNL     1       5.075   3.887  14.735  0.00  0.00    +0.000 A 
ATOM      8  C   UNL     1       5.566   4.412  15.918  0.00  0.00    +0.000 A 
ATOM      9  C   UNL     1       5.055   4.282  17.327  0.00  0.00    +0.000 C 
ATOM     10  C   UNL     1       6.370   4.639  18.070  0.00  0.00    +0.000 C 
ATOM     11  C   UNL     1       6.285   5.040  19.533  0.00  0.00    +0.000 C 
ENDROOT
BRANCH   6  12
ATOM     12  O   UNL     1       5.321   3.489  12.432  0.00  0.00    +0.000 OA
ATOM     13  H   UNL     1       5.483   4.072  11.677  0.00  0.00    +0.000 HD
ENDBRANCH   6  12
BRANCH   9  14
ATOM     14  C   UNL     1       3.915   5.194  17.730  0.00  0.00    +0.000 C 
ATOM     15  O   UNL     1       3.827   6.394  17.532  0.00  0.00    +0.000 OA
BRANCH  14  16
ATOM     16  O   UNL     1       3.002   4.468  18.457  0.00  0.00    +0.000 OA
BRANCH  16  17
ATOM     17  C   UNL     1       2.108   3.614  17.722  0.00  0.00    +0.000 C 
ATOM     18  C   UNL     1       1.112   2.902  18.618  0.00  0.00    +0.000 C 
ENDBRANCH  16  17
ENDBRANCH  14  16
ENDBRANCH   9  14
BRANCH   1  19
ATOM     19  C   UNL     1       6.907   7.035  17.288  0.00  0.00    +0.000 C 
BRANCH  19  20
ATOM     20  C   UNL     1       8.027   7.746  18.045  0.00  0.00    +0.000 C 
BRANCH  20  22
ATOM     21  C   UNL     1       8.958   9.990  18.691  0.00  0.00    +0.000 C 
ATOM     22  C   UNL     1       8.019   9.248  17.756  0.00  0.00    +0.000 C 
ENDBRANCH  20  22
ENDBRANCH  19  20
ENDBRANCH   1  19
TORSDOF 7
ENDMDL
MODEL 9
REMARK VINA RESULT:      -6.0      2.871      6.423
REMARK  Name = 
REMARK  11 active torsions:
REMARK  status: ('A' for Active; 'I' for Inactive)
REMARK    1  A    between atoms: C_1  and  C_2
REMARK    2  A    between atoms: C_2  and  C_3
REMARK    3  A    between atoms: C_3  and  C_4
REMARK    4  A    between atoms: C_4  and  N_5
REMARK    5  A    between atoms: C_8  and  C_9
REMARK    6  A    between atoms: C_10  and  O_11
REMARK    7  A    between atoms: C_14  and  C_15
REMARK    8  A    between atoms: C_15  and  O_17
REMARK    9  A    between atoms: O_17  and  C_18
REMARK   10  A    between atoms: C_18  and  C_19
REMARK   11  A    between atoms: C_20  and  C_21
REMARK                            x       y       z     vdW  Elec       q    Type
REMARK                         _______ _______ _______ _____ _____    ______ ____
ROOT
ATOM      1  N   UNL     1       3.769   5.227  16.895  0.00  0.00    +0.000 N 
ATOM      2  C   UNL     1       3.178   6.178  17.791  0.00  0.00    +0.000 A 
ATOM      3  C   UNL     1       3.017   7.524  17.502  0.00  0.00    +0.000 A 
ATOM      4  C   UNL     1       2.378   8.354  18.430  0.00  0.00    +0.000 A 
ATOM      5  C   UNL     1       2.176   9.799  18.075  0.00  0.00    +0.000 C 
ATOM      6  C   UNL     1       1.933   7.787  19.643  0.00  0.00    +0.000 A 
ATOM      7  C   UNL     1       2.115   6.428  19.940  0.00  0.00    +0.000 A 
ATOM      8  C   UNL     1       2.733   5.627  18.996  0.00  0.00    +0.000 A 
ATOM      9  C   UNL     1       2.963   4.141  18.981  0.00  0.00    +0.000 C 
ATOM     10  C   UNL     1       3.176   3.968  17.453  0.00  0.00    +0.000 C 
ATOM     11  C   UNL     1       3.841   2.695  16.957  0.00  0.00    +0.000 C 
ENDROOT
BRANCH   6  12
ATOM     12  O   UNL     1       1.269   8.523  20.586  0.00  0.00    +0.000 OA
ATOM     13  H   UNL     1       0.402   8.125  20.747  0.00  0.00    +0.000 HD
ENDBRANCH   6  12
BRANCH   9  14
ATOM     14  C   UNL     1       4.143   3.621  19.775  0.00  0.00    +0.000 C 
ATOM     15  O   UNL     1       5.311   3.954  19.662  0.00  0.00    +0.000 OA
BRANCH  14  16
ATOM     16  O   UNL     1       3.709   2.619  20.611  0.00  0.00    +0.000 OA
BRANCH  16  17
ATOM     17  C   UNL     1       2.315   2.270  20.547  0.00  0.00    +0.000 C 
ATOM     18  C   UNL     1       1.565   2.628  21.816  0.00  0.00    +0.000 C 
ENDBRANCH  16  17
ENDBRANCH  14  16
ENDBRANCH   9  14
BRANCH   1  19
ATOM     19  C   UNL     1       5.235   5.427  16.932  0.00  0.00    +0.000 C 
BRANCH  19  20
ATOM     20  C   UNL     1       5.786   5.590  15.517  0.00  0.00    +0.000 C 
BRANCH  20  22
ATOM     21  C   UNL     1       6.179   3.885  13.712  0.00  0.00    +0.000 C 
ATOM     22  C   UNL     1       6.590   4.359  15.096  0.00  0.00    +0.000 C 
ENDBRANCH  20  22
ENDBRANCH  19  20
ENDBRANCH   1  19
TORSDOF 7
ENDMDL
