MODEL 1
REMARK VINA RESULT:      -7.6      0.000      0.000
REMARK  Name = 
REMARK  9 active torsions:
REMARK  status: ('A' for Active; 'I' for Inactive)
REMARK    1  A    between atoms: C_1  and  O_2
REMARK    2  A    between atoms: O_2  and  C_3
REMARK    3  A    between atoms: C_6  and  C_7
REMARK    4  A    between atoms: C_8  and  C_9
REMARK    5  A    between atoms: N_13  and  C_14
REMARK    6  A    between atoms: C_14  and  C_15
REMARK    7  A    between atoms: C_22  and  C_23
REMARK    8  A    between atoms: C_27  and  O_28
REMARK    9  A    between atoms: O_28  and  C_29
REMARK                            x       y       z     vdW  Elec       q    Type
REMARK                         _______ _______ _______ _____ _____    ______ ____
ROOT
ATOM      1  C   UNL     1       0.753   9.371  20.223  0.00  0.00    +0.000 A 
ATOM      2  C   UNL     1       0.745   9.842  21.539  0.00  0.00    +0.000 A 
ATOM      3  C   UNL     1       1.591   9.464  22.701  0.00  0.00    +0.000 C 
ATOM      4  N   UNL     1      -0.198  10.836  21.719  0.00  0.00    +0.000 NA
ATOM      5  C   UNL     1      -0.751  10.977  20.538  0.00  0.00    +0.000 A 
ATOM      6  C   UNL     1      -1.809  11.919  20.158  0.00  0.00    +0.000 A 
ATOM      7  N   UNL     1      -2.314  12.814  21.087  0.00  0.00    +0.000 N 
ATOM      8  N   UNL     1      -2.282  11.892  18.937  0.00  0.00    +0.000 NA
ATOM      9  C   UNL     1      -1.778  10.976  18.031  0.00  0.00    +0.000 A 
ATOM     10  C   UNL     1      -2.341  11.041  16.638  0.00  0.00    +0.000 C 
ATOM     11  C   UNL     1      -0.824  10.076  18.334  0.00  0.00    +0.000 A 
ATOM     12  N   UNL     1      -0.271  10.092  19.612  0.00  0.00    +0.000 N 
ATOM     13  H   UNL     1      -1.983  12.633  22.031  0.00  0.00    +0.000 HD
ENDROOT
BRANCH   1  17
ATOM     14  C   UNL     1       3.308   6.488  18.291  0.00  0.00    +0.000 A 
ATOM     15  C   UNL     1       2.930   7.671  17.646  0.00  0.00    +0.000 A 
ATOM     16  C   UNL     1       2.154   8.629  18.299  0.00  0.00    +0.000 A 
ATOM     17  C   UNL     1       1.611   8.376  19.560  0.00  0.00    +0.000 A 
ATOM     18  C   UNL     1       1.884   7.130  20.136  0.00  0.00    +0.000 A 
ATOM     19  C   UNL     1       2.754   6.198  19.543  0.00  0.00    +0.000 A 
BRANCH  14  21
ATOM     20  C   UNL     1       3.617   4.403  17.213  0.00  0.00    +0.000 C 
ATOM     21  O   UNL     1       4.186   5.618  17.705  0.00  0.00    +0.000 OA
ENDBRANCH  14  21
BRANCH  19  22
ATOM     22  O   UNL     1       2.943   5.109  20.350  0.00  0.00    +0.000 OA
ATOM     23  C   UNL     1       1.828   4.319  20.725  0.00  0.00    +0.000 C 
ENDBRANCH  19  22
ENDBRANCH   1  17
BRANCH   7  24
ATOM     24  C   UNL     1      -3.663  13.335  20.964  0.00  0.00    +0.000 C 
BRANCH  24  25
ATOM     25  C   UNL     1      -4.366  13.408  22.329  0.00  0.00    +0.000 C 
ATOM     26  C   UNL     1      -3.594  12.580  23.370  0.00  0.00    +0.000 C 
ATOM     27  C   UNL     1      -4.345  12.518  24.695  0.00  0.00    +0.000 C 
ATOM     28  O   UNL     1      -5.663  12.011  24.504  0.00  0.00    +0.000 OA
ATOM     29  C   UNL     1      -6.440  12.845  23.647  0.00  0.00    +0.000 C 
ATOM     30  C   UNL     1      -5.819  12.917  22.257  0.00  0.00    +0.000 C 
ENDBRANCH  24  25
ENDBRANCH   7  24
TORSDOF 5
ENDMDL
MODEL 2
REMARK VINA RESULT:      -7.6      3.390     10.035
REMARK  Name = 
REMARK  9 active torsions:
REMARK  status: ('A' for Active; 'I' for Inactive)
REMARK    1  A    between atoms: C_1  and  O_2
REMARK    2  A    between atoms: O_2  and  C_3
REMARK    3  A    between atoms: C_6  and  C_7
REMARK    4  A    between atoms: C_8  and  C_9
REMARK    5  A    between atoms: N_13  and  C_14
REMARK    6  A    between atoms: C_14  and  C_15
REMARK    7  A    between atoms: C_22  and  C_23
REMARK    8  A    between atoms: C_27  and  O_28
REMARK    9  A    between atoms: O_28  and  C_29
REMARK                            x       y       z     vdW  Elec       q    Type
REMARK                         _______ _______ _______ _____ _____    ______ ____
ROOT
ATOM      1  C   UNL     1       1.571   8.595  19.592  0.00  0.00    +0.000 A 
ATOM      2  C   UNL     1       2.147   9.030  18.394  0.00  0.00    +0.000 A 
ATOM      3  C   UNL     1       2.099  10.359  17.732  0.00  0.00    +0.000 C 
ATOM      4  N   UNL     1       2.890   8.032  17.794  0.00  0.00    +0.000 NA
ATOM      5  C   UNL     1       2.779   7.010  18.608  0.00  0.00    +0.000 A 
ATOM      6  C   UNL     1       3.391   5.685  18.461  0.00  0.00    +0.000 A 
ATOM      7  N   UNL     1       4.217   5.413  17.383  0.00  0.00    +0.000 N 
ATOM      8  N   UNL     1       3.134   4.758  19.350  0.00  0.00    +0.000 NA
ATOM      9  C   UNL     1       2.290   5.044  20.408  0.00  0.00    +0.000 A 
ATOM     10  C   UNL     1       2.084   3.942  21.410  0.00  0.00    +0.000 C 
ATOM     11  C   UNL     1       1.686   6.235  20.578  0.00  0.00    +0.000 A 
ATOM     12  N   UNL     1       1.957   7.258  19.673  0.00  0.00    +0.000 N 
ATOM     13  H   UNL     1       4.212   6.153  16.684  0.00  0.00    +0.000 HD
ENDROOT
BRANCH   1  17
ATOM     14  C   UNL     1      -0.759  10.724  22.526  0.00  0.00    +0.000 A 
ATOM     15  C   UNL     1       0.133   9.712  22.901  0.00  0.00    +0.000 A 
ATOM     16  C   UNL     1       0.929   9.069  21.953  0.00  0.00    +0.000 A 
ATOM     17  C   UNL     1       0.761   9.312  20.590  0.00  0.00    +0.000 A 
ATOM     18  C   UNL     1      -0.232  10.226  20.220  0.00  0.00    +0.000 A 
ATOM     19  C   UNL     1      -0.967  10.965  21.164  0.00  0.00    +0.000 A 
BRANCH  14  21
ATOM     20  C   UNL     1      -1.361  12.872  23.317  0.00  0.00    +0.000 C 
ATOM     21  O   UNL     1      -1.432  11.453  23.469  0.00  0.00    +0.000 OA
ENDBRANCH  14  21
BRANCH  19  22
ATOM     22  O   UNL     1      -1.795  11.868  20.554  0.00  0.00    +0.000 OA
ATOM     23  C   UNL     1      -2.079  11.731  19.173  0.00  0.00    +0.000 C 
ENDBRANCH  19  22
ENDBRANCH   1  17
BRANCH   7  24
ATOM     24  C   UNL     1       4.376   4.058  16.888  0.00  0.00    +0.000 C 
BRANCH  24  25
ATOM     25  C   UNL     1       5.583   3.940  15.942  0.00  0.00    +0.000 C 
ATOM     26  C   UNL     1       6.606   5.048  16.246  0.00  0.00    +0.000 C 
ATOM     27  C   UNL     1       7.744   5.043  15.232  0.00  0.00    +0.000 C 
ATOM     28  O   UNL     1       7.237   5.156  13.905  0.00  0.00    +0.000 OA
ATOM     29  C   UNL     1       6.392   4.061  13.558  0.00  0.00    +0.000 C 
ATOM     30  C   UNL     1       5.169   4.015  14.465  0.00  0.00    +0.000 C 
ENDBRANCH  24  25
ENDBRANCH   7  24
TORSDOF 5
ENDMDL
MODEL 3
REMARK VINA RESULT:      -7.4      2.888      4.468
REMARK  Name = 
REMARK  9 active torsions:
REMARK  status: ('A' for Active; 'I' for Inactive)
REMARK    1  A    between atoms: C_1  and  O_2
REMARK    2  A    between atoms: O_2  and  C_3
REMARK    3  A    between atoms: C_6  and  C_7
REMARK    4  A    between atoms: C_8  and  C_9
REMARK    5  A    between atoms: N_13  and  C_14
REMARK    6  A    between atoms: C_14  and  C_15
REMARK    7  A    between atoms: C_22  and  C_23
REMARK    8  A    between atoms: C_27  and  O_28
REMARK    9  A    between atoms: O_28  and  C_29
REMARK                            x       y       z     vdW  Elec       q    Type
REMARK                         _______ _______ _______ _____ _____    ______ ____
ROOT
ATOM      1  C   UNL     1       2.758   6.202  19.324  0.00  0.00    +0.000 A 
ATOM      2  C   UNL     1       2.110   5.734  20.471  0.00  0.00    +0.000 A 
ATOM      3  C   UNL     1       2.171   4.406  21.136  0.00  0.00    +0.000 C 
ATOM      4  N   UNL     1       1.329   6.714  21.052  0.00  0.00    +0.000 NA
ATOM      5  C   UNL     1       1.499   7.763  20.283  0.00  0.00    +0.000 A 
ATOM      6  C   UNL     1       0.909   9.095  20.452  0.00  0.00    +0.000 A 
ATOM      7  N   UNL     1       0.092   9.365  21.538  0.00  0.00    +0.000 N 
ATOM      8  N   UNL     1       1.149  10.020  19.557  0.00  0.00    +0.000 NA
ATOM      9  C   UNL     1       1.951   9.724  18.469  0.00  0.00    +0.000 A 
ATOM     10  C   UNL     1       2.216  10.854  17.512  0.00  0.00    +0.000 C 
ATOM     11  C   UNL     1       2.499   8.513  18.255  0.00  0.00    +0.000 A 
ATOM     12  N   UNL     1       2.295   7.511  19.199  0.00  0.00    +0.000 N 
ATOM     13  H   UNL     1      -0.145   8.531  22.071  0.00  0.00    +0.000 HD
ENDROOT
BRANCH   1  17
ATOM     14  C   UNL     1       5.561   4.315  16.650  0.00  0.00    +0.000 A 
ATOM     15  C   UNL     1       4.224   3.906  16.708  0.00  0.00    +0.000 A 
ATOM     16  C   UNL     1       3.307   4.561  17.531  0.00  0.00    +0.000 A 
ATOM     17  C   UNL     1       3.722   5.548  18.425  0.00  0.00    +0.000 A 
ATOM     18  C   UNL     1       5.088   5.851  18.455  0.00  0.00    +0.000 A 
ATOM     19  C   UNL     1       6.008   5.282  17.557  0.00  0.00    +0.000 A 
BRANCH  14  21
ATOM     20  C   UNL     1       6.462   4.413  14.463  0.00  0.00    +0.000 C 
ATOM     21  O   UNL     1       6.424   3.770  15.739  0.00  0.00    +0.000 OA
ENDBRANCH  14  21
BRANCH  19  22
ATOM     22  O   UNL     1       7.256   5.820  17.715  0.00  0.00    +0.000 OA
ATOM     23  C   UNL     1       7.449   7.207  17.502  0.00  0.00    +0.000 C 
ENDBRANCH  19  22
ENDBRANCH   1  17
BRANCH   7  24
ATOM     24  C   UNL     1      -0.924  10.399  21.469  0.00  0.00    +0.000 C 
BRANCH  24  25
ATOM     25  C   UNL     1      -0.475  11.681  22.190  0.00  0.00    +0.000 C 
ATOM     26  C   UNL     1      -1.655  12.300  22.957  0.00  0.00    +0.000 C 
ATOM     27  C   UNL     1      -1.275  13.645  23.564  0.00  0.00    +0.000 C 
ATOM     28  O   UNL     1      -0.789  14.532  22.559  0.00  0.00    +0.000 OA
ATOM     29  C   UNL     1       0.390  14.034  21.929  0.00  0.00    +0.000 C 
ATOM     30  C   UNL     1       0.105  12.717  21.217  0.00  0.00    +0.000 C 
ENDBRANCH  24  25
ENDBRANCH   7  24
TORSDOF 5
ENDMDL
MODEL 4
REMARK VINA RESULT:      -7.4      3.147      5.020
REMARK  Name = 
REMARK  9 active torsions:
REMARK  status: ('A' for Active; 'I' for Inactive)
REMARK    1  A    between atoms: C_1  and  O_2
REMARK    2  A    between atoms: O_2  and  C_3
REMARK    3  A    between atoms: C_6  and  C_7
REMARK    4  A    between atoms: C_8  and  C_9
REMARK    5  A    between atoms: N_13  and  C_14
REMARK    6  A    between atoms: C_14  and  C_15
REMARK    7  A    between atoms: C_22  and  C_23
REMARK    8  A    between atoms: C_27  and  O_28
REMARK    9  A    between atoms: O_28  and  C_29
REMARK                            x       y       z     vdW  Elec       q    Type
REMARK                         _______ _______ _______ _____ _____    ______ ____
ROOT
ATOM      1  C   UNL     1       3.427   5.834  18.789  0.00  0.00    +0.000 A 
ATOM      2  C   UNL     1       2.980   5.121  19.906  0.00  0.00    +0.000 A 
ATOM      3  C   UNL     1       3.342   3.763  20.388  0.00  0.00    +0.000 C 
ATOM      4  N   UNL     1       2.087   5.860  20.657  0.00  0.00    +0.000 NA
ATOM      5  C   UNL     1       1.993   7.003  20.021  0.00  0.00    +0.000 A 
ATOM      6  C   UNL     1       1.186   8.168  20.398  0.00  0.00    +0.000 A 
ATOM      7  N   UNL     1       0.432   8.149  21.560  0.00  0.00    +0.000 N 
ATOM      8  N   UNL     1       1.171   9.218  19.616  0.00  0.00    +0.000 NA
ATOM      9  C   UNL     1       1.915   9.208  18.449  0.00  0.00    +0.000 A 
ATOM     10  C   UNL     1       1.883  10.469  17.631  0.00  0.00    +0.000 C 
ATOM     11  C   UNL     1       2.655   8.158  18.046  0.00  0.00    +0.000 A 
ATOM     12  N   UNL     1       2.722   7.034  18.864  0.00  0.00    +0.000 N 
ATOM     13  H   UNL     1       0.400   7.230  21.996  0.00  0.00    +0.000 HD
ENDROOT
BRANCH   1  17
ATOM     14  C   UNL     1       6.277   4.832  15.716  0.00  0.00    +0.000 A 
ATOM     15  C   UNL     1       5.162   4.022  15.965  0.00  0.00    +0.000 A 
ATOM     16  C   UNL     1       4.211   4.384  16.919  0.00  0.00    +0.000 A 
ATOM     17  C   UNL     1       4.412   5.485  17.753  0.00  0.00    +0.000 A 
ATOM     18  C   UNL     1       5.599   6.206  17.585  0.00  0.00    +0.000 A 
ATOM     19  C   UNL     1       6.516   5.924  16.557  0.00  0.00    +0.000 A 
BRANCH  14  21
ATOM     20  C   UNL     1       6.521   4.024  13.504  0.00  0.00    +0.000 C 
ATOM     21  O   UNL     1       7.130   4.554  14.684  0.00  0.00    +0.000 OA
ENDBRANCH  14  21
BRANCH  19  22
ATOM     22  O   UNL     1       7.537   6.835  16.535  0.00  0.00    +0.000 OA
ATOM     23  C   UNL     1       7.767   7.650  17.671  0.00  0.00    +0.000 C 
ENDBRANCH  19  22
ENDBRANCH   1  17
BRANCH   7  24
ATOM     24  C   UNL     1      -0.759   8.968  21.691  0.00  0.00    +0.000 C 
BRANCH  24  25
ATOM     25  C   UNL     1      -0.409  10.463  21.775  0.00  0.00    +0.000 C 
ATOM     26  C   UNL     1      -1.107  11.105  22.986  0.00  0.00    +0.000 C 
ATOM     27  C   UNL     1      -0.892  12.613  23.012  0.00  0.00    +0.000 C 
ATOM     28  O   UNL     1      -1.327  13.205  21.791  0.00  0.00    +0.000 OA
ATOM     29  C   UNL     1      -0.593  12.720  20.668  0.00  0.00    +0.000 C 
ATOM     30  C   UNL     1      -0.798  11.220  20.497  0.00  0.00    +0.000 C 
ENDBRANCH  24  25
ENDBRANCH   7  24
TORSDOF 5
ENDMDL
MODEL 5
REMARK VINA RESULT:      -7.3      1.850      9.055
REMARK  Name = 
REMARK  9 active torsions:
REMARK  status: ('A' for Active; 'I' for Inactive)
REMARK    1  A    between atoms: C_1  and  O_2
REMARK    2  A    between atoms: O_2  and  C_3
REMARK    3  A    between atoms: C_6  and  C_7
REMARK    4  A    between atoms: C_8  and  C_9
REMARK    5  A    between atoms: N_13  and  C_14
REMARK    6  A    between atoms: C_14  and  C_15
REMARK    7  A    between atoms: C_22  and  C_23
REMARK    8  A    between atoms: C_27  and  O_28
REMARK    9  A    between atoms: O_28  and  C_29
REMARK                            x       y       z     vdW  Elec       q    Type
REMARK                         _______ _______ _______ _____ _____    ______ ____
ROOT
ATOM      1  C   UNL     1      -2.510  12.391  20.616  0.00  0.00    +0.000 A 
ATOM      2  C   UNL     1      -1.434  12.238  21.496  0.00  0.00    +0.000 A 
ATOM      3  C   UNL     1      -1.232  12.769  22.870  0.00  0.00    +0.000 C 
ATOM      4  N   UNL     1      -0.450  11.429  20.962  0.00  0.00    +0.000 NA
ATOM      5  C   UNL     1      -0.913  11.088  19.784  0.00  0.00    +0.000 A 
ATOM      6  C   UNL     1      -0.272  10.216  18.794  0.00  0.00    +0.000 A 
ATOM      7  N   UNL     1       0.949   9.622  19.073  0.00  0.00    +0.000 N 
ATOM      8  N   UNL     1      -0.857  10.019  17.640  0.00  0.00    +0.000 NA
ATOM      9  C   UNL     1      -2.065  10.637  17.374  0.00  0.00    +0.000 A 
ATOM     10  C   UNL     1      -2.695  10.322  16.045  0.00  0.00    +0.000 C 
ATOM     11  C   UNL     1      -2.685  11.463  18.237  0.00  0.00    +0.000 A 
ATOM     12  N   UNL     1      -2.113  11.675  19.488  0.00  0.00    +0.000 N 
ATOM     13  H   UNL     1       1.374   9.974  19.927  0.00  0.00    +0.000 HD
ENDROOT
BRANCH   1  17
ATOM     14  C   UNL     1      -6.259  14.476  21.016  0.00  0.00    +0.000 A 
ATOM     15  C   UNL     1      -5.050  15.172  20.902  0.00  0.00    +0.000 A 
ATOM     16  C   UNL     1      -3.847  14.493  20.711  0.00  0.00    +0.000 A 
ATOM     17  C   UNL     1      -3.790  13.100  20.771  0.00  0.00    +0.000 A 
ATOM     18  C   UNL     1      -4.988  12.421  21.024  0.00  0.00    +0.000 A 
ATOM     19  C   UNL     1      -6.226  13.080  21.108  0.00  0.00    +0.000 A 
BRANCH  14  21
ATOM     20  C   UNL     1      -7.911  15.510  22.361  0.00  0.00    +0.000 C 
ATOM     21  O   UNL     1      -7.453  15.144  21.057  0.00  0.00    +0.000 OA
ENDBRANCH  14  21
BRANCH  19  22
ATOM     22  O   UNL     1      -7.256  12.191  21.249  0.00  0.00    +0.000 OA
ATOM     23  C   UNL     1      -7.372  11.110  20.341  0.00  0.00    +0.000 C 
ENDBRANCH  19  22
ENDBRANCH   1  17
BRANCH   7  24
ATOM     24  C   UNL     1       1.858   9.249  18.005  0.00  0.00    +0.000 C 
BRANCH  24  25
ATOM     25  C   UNL     1       2.256   7.766  18.095  0.00  0.00    +0.000 C 
ATOM     26  C   UNL     1       2.207   7.291  19.556  0.00  0.00    +0.000 C 
ATOM     27  C   UNL     1       2.734   5.867  19.692  0.00  0.00    +0.000 C 
ATOM     28  O   UNL     1       4.051   5.764  19.159  0.00  0.00    +0.000 OA
ATOM     29  C   UNL     1       4.091   6.070  17.766  0.00  0.00    +0.000 C 
ATOM     30  C   UNL     1       3.656   7.509  17.518  0.00  0.00    +0.000 C 
ENDBRANCH  24  25
ENDBRANCH   7  24
TORSDOF 5
ENDMDL
MODEL 6
REMARK VINA RESULT:      -7.1      3.585      8.612
REMARK  Name = 
REMARK  9 active torsions:
REMARK  status: ('A' for Active; 'I' for Inactive)
REMARK    1  A    between atoms: C_1  and  O_2
REMARK    2  A    between atoms: O_2  and  C_3
REMARK    3  A    between atoms: C_6  and  C_7
REMARK    4  A    between atoms: C_8  and  C_9
REMARK    5  A    between atoms: N_13  and  C_14
REMARK    6  A    between atoms: C_14  and  C_15
REMARK    7  A    between atoms: C_22  and  C_23
REMARK    8  A    between atoms: C_27  and  O_28
REMARK    9  A    between atoms: O_28  and  C_29
REMARK                            x       y       z     vdW  Elec       q    Type
REMARK                         _______ _______ _______ _____ _____    ______ ____
ROOT
ATOM      1  C   UNL     1       0.692   9.939  20.466  0.00  0.00    +0.000 A 
ATOM      2  C   UNL     1       0.243   9.375  21.664  0.00  0.00    +0.000 A 
ATOM      3  C   UNL     1      -0.599   9.955  22.743  0.00  0.00    +0.000 C 
ATOM      4  N   UNL     1       0.650   8.061  21.793  0.00  0.00    +0.000 NA
ATOM      5  C   UNL     1       1.328   7.822  20.697  0.00  0.00    +0.000 A 
ATOM      6  C   UNL     1       1.973   6.564  20.307  0.00  0.00    +0.000 A 
ATOM      7  N   UNL     1       1.877   5.447  21.122  0.00  0.00    +0.000 N 
ATOM      8  N   UNL     1       2.656   6.513  19.191  0.00  0.00    +0.000 NA
ATOM      9  C   UNL     1       2.758   7.645  18.403  0.00  0.00    +0.000 A 
ATOM     10  C   UNL     1       3.518   7.491  17.114  0.00  0.00    +0.000 C 
ATOM     11  C   UNL     1       2.203   8.829  18.724  0.00  0.00    +0.000 A 
ATOM     12  N   UNL     1       1.443   8.918  19.886  0.00  0.00    +0.000 N 
ATOM     13  H   UNL     1       1.461   5.653  22.027  0.00  0.00    +0.000 HD
ENDROOT
BRANCH   1  17
ATOM     14  C   UNL     1      -0.020  13.842  18.785  0.00  0.00    +0.000 A 
ATOM     15  C   UNL     1      -0.966  12.817  18.668  0.00  0.00    +0.000 A 
ATOM     16  C   UNL     1      -0.756  11.575  19.267  0.00  0.00    +0.000 A 
ATOM     17  C   UNL     1       0.460  11.268  19.878  0.00  0.00    +0.000 A 
ATOM     18  C   UNL     1       1.449  12.257  19.867  0.00  0.00    +0.000 A 
ATOM     19  C   UNL     1       1.218  13.551  19.368  0.00  0.00    +0.000 A 
BRANCH  14  21
ATOM     20  C   UNL     1      -0.627  16.066  19.323  0.00  0.00    +0.000 C 
ATOM     21  O   UNL     1      -0.289  15.102  18.324  0.00  0.00    +0.000 OA
ENDBRANCH  14  21
BRANCH  19  22
ATOM     22  O   UNL     1       2.300  14.364  19.569  0.00  0.00    +0.000 OA
ATOM     23  C   UNL     1       3.195  14.610  18.499  0.00  0.00    +0.000 C 
ENDBRANCH  19  22
ENDBRANCH   1  17
BRANCH   7  24
ATOM     24  C   UNL     1       2.898   4.417  21.099  0.00  0.00    +0.000 C 
BRANCH  24  25
ATOM     25  C   UNL     1       2.468   3.215  20.241  0.00  0.00    +0.000 C 
ATOM     26  C   UNL     1       3.428   3.041  19.052  0.00  0.00    +0.000 C 
ATOM     27  C   UNL     1       2.944   1.947  18.107  0.00  0.00    +0.000 C 
ATOM     28  O   UNL     1       1.615   2.214  17.666  0.00  0.00    +0.000 OA
ATOM     29  C   UNL     1       0.686   2.242  18.748  0.00  0.00    +0.000 C 
ATOM     30  C   UNL     1       1.030   3.360  19.724  0.00  0.00    +0.000 C 
ENDBRANCH  24  25
ENDBRANCH   7  24
TORSDOF 5
ENDMDL
MODEL 7
REMARK VINA RESULT:      -7.1      0.737      1.189
REMARK  Name = 
REMARK  9 active torsions:
REMARK  status: ('A' for Active; 'I' for Inactive)
REMARK    1  A    between atoms: C_1  and  O_2
REMARK    2  A    between atoms: O_2  and  C_3
REMARK    3  A    between atoms: C_6  and  C_7
REMARK    4  A    between atoms: C_8  and  C_9
REMARK    5  A    between atoms: N_13  and  C_14
REMARK    6  A    between atoms: C_14  and  C_15
REMARK    7  A    between atoms: C_22  and  C_23
REMARK    8  A    between atoms: C_27  and  O_28
REMARK    9  A    between atoms: O_28  and  C_29
REMARK                            x       y       z     vdW  Elec       q    Type
REMARK                         _______ _______ _______ _____ _____    ______ ____
ROOT
ATOM      1  C   UNL     1       0.693   9.459  19.975  0.00  0.00    +0.000 A 
ATOM      2  C   UNL     1       0.636   9.913  21.296  0.00  0.00    +0.000 A 
ATOM      3  C   UNL     1       1.477   9.563  22.471  0.00  0.00    +0.000 C 
ATOM      4  N   UNL     1      -0.357  10.857  21.468  0.00  0.00    +0.000 NA
ATOM      5  C   UNL     1      -0.893  10.986  20.278  0.00  0.00    +0.000 A 
ATOM      6  C   UNL     1      -1.989  11.879  19.888  0.00  0.00    +0.000 A 
ATOM      7  N   UNL     1      -2.555  12.737  20.817  0.00  0.00    +0.000 N 
ATOM      8  N   UNL     1      -2.437  11.844  18.658  0.00  0.00    +0.000 NA
ATOM      9  C   UNL     1      -1.871  10.965  17.752  0.00  0.00    +0.000 A 
ATOM     10  C   UNL     1      -2.409  11.020  16.349  0.00  0.00    +0.000 C 
ATOM     11  C   UNL     1      -0.880  10.109  18.064  0.00  0.00    +0.000 A 
ATOM     12  N   UNL     1      -0.353  10.137  19.352  0.00  0.00    +0.000 N 
ATOM     13  H   UNL     1      -2.234  12.560  21.766  0.00  0.00    +0.000 HD
ENDROOT
BRANCH   1  17
ATOM     14  C   UNL     1       3.423   6.728  18.062  0.00  0.00    +0.000 A 
ATOM     15  C   UNL     1       3.001   7.900  17.423  0.00  0.00    +0.000 A 
ATOM     16  C   UNL     1       2.166   8.810  18.072  0.00  0.00    +0.000 A 
ATOM     17  C   UNL     1       1.612   8.515  19.318  0.00  0.00    +0.000 A 
ATOM     18  C   UNL     1       1.934   7.277  19.885  0.00  0.00    +0.000 A 
ATOM     19  C   UNL     1       2.860   6.396  19.299  0.00  0.00    +0.000 A 
BRANCH  14  21
ATOM     20  C   UNL     1       5.640   6.496  17.264  0.00  0.00    +0.000 C 
ATOM     21  O   UNL     1       4.355   5.910  17.484  0.00  0.00    +0.000 OA
ENDBRANCH  14  21
BRANCH  19  22
ATOM     22  O   UNL     1       3.086   5.308  20.097  0.00  0.00    +0.000 OA
ATOM     23  C   UNL     1       2.011   4.745  20.828  0.00  0.00    +0.000 C 
ENDBRANCH  19  22
ENDBRANCH   1  17
BRANCH   7  24
ATOM     24  C   UNL     1      -3.926  13.193  20.673  0.00  0.00    +0.000 C 
BRANCH  24  25
ATOM     25  C   UNL     1      -4.818  12.666  21.809  0.00  0.00    +0.000 C 
ATOM     26  C   UNL     1      -6.246  13.216  21.662  0.00  0.00    +0.000 C 
ATOM     27  C   UNL     1      -7.114  12.826  22.852  0.00  0.00    +0.000 C 
ATOM     28  O   UNL     1      -6.518  13.255  24.074  0.00  0.00    +0.000 OA
ATOM     29  C   UNL     1      -5.247  12.645  24.293  0.00  0.00    +0.000 C 
ATOM     30  C   UNL     1      -4.266  13.034  23.194  0.00  0.00    +0.000 C 
ENDBRANCH  24  25
ENDBRANCH   7  24
TORSDOF 5
ENDMDL
MODEL 8
REMARK VINA RESULT:      -7.1      2.671      4.583
REMARK  Name = 
REMARK  9 active torsions:
REMARK  status: ('A' for Active; 'I' for Inactive)
REMARK    1  A    between atoms: C_1  and  O_2
REMARK    2  A    between atoms: O_2  and  C_3
REMARK    3  A    between atoms: C_6  and  C_7
REMARK    4  A    between atoms: C_8  and  C_9
REMARK    5  A    between atoms: N_13  and  C_14
REMARK    6  A    between atoms: C_14  and  C_15
REMARK    7  A    between atoms: C_22  and  C_23
REMARK    8  A    between atoms: C_27  and  O_28
REMARK    9  A    between atoms: O_28  and  C_29
REMARK                            x       y       z     vdW  Elec       q    Type
REMARK                         _______ _______ _______ _____ _____    ______ ____
ROOT
ATOM      1  C   UNL     1       2.951   6.976  18.663  0.00  0.00    +0.000 A 
ATOM      2  C   UNL     1       3.222   7.699  17.498  0.00  0.00    +0.000 A 
ATOM      3  C   UNL     1       4.100   7.370  16.344  0.00  0.00    +0.000 C 
ATOM      4  N   UNL     1       2.507   8.880  17.453  0.00  0.00    +0.000 NA
ATOM      5  C   UNL     1       1.808   8.879  18.563  0.00  0.00    +0.000 A 
ATOM      6  C   UNL     1       0.857   9.900  19.015  0.00  0.00    +0.000 A 
ATOM      7  N   UNL     1       0.589  11.006  18.225  0.00  0.00    +0.000 N 
ATOM      8  N   UNL     1       0.278   9.763  20.182  0.00  0.00    +0.000 NA
ATOM      9  C   UNL     1       0.575   8.662  20.965  0.00  0.00    +0.000 A 
ATOM     10  C   UNL     1      -0.168   8.555  22.268  0.00  0.00    +0.000 C 
ATOM     11  C   UNL     1       1.455   7.709  20.607  0.00  0.00    +0.000 A 
ATOM     12  N   UNL     1       2.069   7.800  19.361  0.00  0.00    +0.000 N 
ATOM     13  H   UNL     1       1.212  11.079  17.424  0.00  0.00    +0.000 HD
ENDROOT
BRANCH   1  17
ATOM     14  C   UNL     1       4.348   3.134  20.024  0.00  0.00    +0.000 A 
ATOM     15  C   UNL     1       5.237   4.099  19.536  0.00  0.00    +0.000 A 
ATOM     16  C   UNL     1       4.786   5.362  19.155  0.00  0.00    +0.000 A 
ATOM     17  C   UNL     1       3.423   5.656  19.112  0.00  0.00    +0.000 A 
ATOM     18  C   UNL     1       2.537   4.635  19.472  0.00  0.00    +0.000 A 
ATOM     19  C   UNL     1       2.975   3.393  19.965  0.00  0.00    +0.000 A 
BRANCH  14  21
ATOM     20  C   UNL     1       4.794   0.842  19.629  0.00  0.00    +0.000 C 
ATOM     21  O   UNL     1       4.807   1.950  20.533  0.00  0.00    +0.000 OA
ENDBRANCH  14  21
BRANCH  19  22
ATOM     22  O   UNL     1       1.921   2.609  20.349  0.00  0.00    +0.000 OA
ATOM     23  C   UNL     1       1.503   2.620  21.703  0.00  0.00    +0.000 C 
ENDBRANCH  19  22
ENDBRANCH   1  17
BRANCH   7  24
ATOM     24  C   UNL     1       0.144  12.255  18.814  0.00  0.00    +0.000 C 
BRANCH  24  25
ATOM     25  C   UNL     1      -1.359  12.483  18.585  0.00  0.00    +0.000 C 
ATOM     26  C   UNL     1      -2.117  12.410  19.921  0.00  0.00    +0.000 C 
ATOM     27  C   UNL     1      -3.624  12.491  19.707  0.00  0.00    +0.000 C 
ATOM     28  O   UNL     1      -4.060  11.474  18.808  0.00  0.00    +0.000 OA
ATOM     29  C   UNL     1      -3.469  11.610  17.517  0.00  0.00    +0.000 C 
ATOM     30  C   UNL     1      -1.954  11.466  17.601  0.00  0.00    +0.000 C 
ENDBRANCH  24  25
ENDBRANCH   7  24
TORSDOF 5
ENDMDL
MODEL 9
REMARK VINA RESULT:      -7.0      1.205      1.629
REMARK  Name = 
REMARK  9 active torsions:
REMARK  status: ('A' for Active; 'I' for Inactive)
REMARK    1  A    between atoms: C_1  and  O_2
REMARK    2  A    between atoms: O_2  and  C_3
REMARK    3  A    between atoms: C_6  and  C_7
REMARK    4  A    between atoms: C_8  and  C_9
REMARK    5  A    between atoms: N_13  and  C_14
REMARK    6  A    between atoms: C_14  and  C_15
REMARK    7  A    between atoms: C_22  and  C_23
REMARK    8  A    between atoms: C_27  and  O_28
REMARK    9  A    between atoms: O_28  and  C_29
REMARK                            x       y       z     vdW  Elec       q    Type
REMARK                         _______ _______ _______ _____ _____    ______ ____
ROOT
ATOM      1  C   UNL     1       0.405   9.681  19.616  0.00  0.00    +0.000 A 
ATOM      2  C   UNL     1       0.250  10.281  20.870  0.00  0.00    +0.000 A 
ATOM      3  C   UNL     1       1.073  10.161  22.101  0.00  0.00    +0.000 C 
ATOM      4  N   UNL     1      -0.838  11.131  20.896  0.00  0.00    +0.000 NA
ATOM      5  C   UNL     1      -1.336  11.061  19.685  0.00  0.00    +0.000 A 
ATOM      6  C   UNL     1      -2.498  11.784  19.157  0.00  0.00    +0.000 A 
ATOM      7  N   UNL     1      -3.184  12.683  19.957  0.00  0.00    +0.000 N 
ATOM      8  N   UNL     1      -2.890  11.556  17.929  0.00  0.00    +0.000 NA
ATOM      9  C   UNL     1      -2.204  10.639  17.154  0.00  0.00    +0.000 A 
ATOM     10  C   UNL     1      -2.688  10.471  15.739  0.00  0.00    +0.000 C 
ATOM     11  C   UNL     1      -1.146   9.934  17.595  0.00  0.00    +0.000 A 
ATOM     12  N   UNL     1      -0.677  10.168  18.885  0.00  0.00    +0.000 N 
ATOM     13  H   UNL     1      -2.885  12.655  20.930  0.00  0.00    +0.000 HD
ENDROOT
BRANCH   1  17
ATOM     14  C   UNL     1       3.468   7.035  18.137  0.00  0.00    +0.000 A 
ATOM     15  C   UNL     1       3.087   8.177  17.422  0.00  0.00    +0.000 A 
ATOM     16  C   UNL     1       2.139   9.062  17.936  0.00  0.00    +0.000 A 
ATOM     17  C   UNL     1       1.438   8.766  19.105  0.00  0.00    +0.000 A 
ATOM     18  C   UNL     1       1.732   7.552  19.737  0.00  0.00    +0.000 A 
ATOM     19  C   UNL     1       2.760   6.700  19.297  0.00  0.00    +0.000 A 
BRANCH  14  21
ATOM     20  C   UNL     1       4.116   5.028  17.062  0.00  0.00    +0.000 C 
ATOM     21  O   UNL     1       4.499   6.246  17.704  0.00  0.00    +0.000 OA
ENDBRANCH  14  21
BRANCH  19  22
ATOM     22  O   UNL     1       2.922   5.636  20.141  0.00  0.00    +0.000 OA
ATOM     23  C   UNL     1       1.787   5.064  20.766  0.00  0.00    +0.000 C 
ENDBRANCH  19  22
ENDBRANCH   1  17
BRANCH   7  24
ATOM     24  C   UNL     1      -4.585  12.975  19.720  0.00  0.00    +0.000 C 
BRANCH  24  25
ATOM     25  C   UNL     1      -5.473  12.442  20.858  0.00  0.00    +0.000 C 
ATOM     26  C   UNL     1      -6.922  12.278  20.369  0.00  0.00    +0.000 C 
ATOM     27  C   UNL     1      -7.851  11.888  21.512  0.00  0.00    +0.000 C 
ATOM     28  O   UNL     1      -7.766  12.835  22.575  0.00  0.00    +0.000 OA
ATOM     29  C   UNL     1      -6.455  12.899  23.133  0.00  0.00    +0.000 C 
ATOM     30  C   UNL     1      -5.447  13.360  22.089  0.00  0.00    +0.000 C 
ENDBRANCH  24  25
ENDBRANCH   7  24
TORSDOF 5
ENDMDL
