MODEL 1
REMARK VINA RESULT:      -8.4      0.000      0.000
REMARK  Name = 
REMARK  5 active torsions:
REMARK  status: ('A' for Active; 'I' for Inactive)
REMARK    1  A    between atoms: C_1  and  N_2
REMARK    2  A    between atoms: N_5  and  C_6
REMARK    3  A    between atoms: C_6  and  C_7
REMARK    4  A    between atoms: N_9  and  C_10
REMARK    5  A    between atoms: C_13  and  C_14
REMARK                            x       y       z     vdW  Elec       q    Type
REMARK                         _______ _______ _______ _____ _____    ______ ____
ROOT
ATOM      1  C   UNL     1      -2.393  11.322  18.298  0.00  0.00    +0.000 A 
ATOM      2  C   UNL     1      -1.857  10.335  17.469  0.00  0.00    +0.000 A 
ATOM      3  C   UNL     1      -0.712   9.634  17.835  0.00  0.00    +0.000 A 
ATOM      4  C   UNL     1      -0.058   9.920  19.042  0.00  0.00    +0.000 A 
ATOM      5  C   UNL     1      -0.612  10.880  19.896  0.00  0.00    +0.000 A 
ATOM      6  C   UNL     1      -1.766  11.586  19.520  0.00  0.00    +0.000 A 
ENDROOT
BRANCH   4   7
ATOM      7  C   UNL     1       1.353   9.388  19.212  0.00  0.00    +0.000 C 
ATOM      8  C   UNL     1       1.415   8.736  20.591  0.00  0.00    +0.000 C 
ATOM      9  N   UNL     1       1.213   7.280  20.567  0.00  0.00    +0.000 NA
ATOM     10  C   UNL     1       1.969   6.667  19.719  0.00  0.00    +0.000 C 
ATOM     11  C   UNL     1       2.300   5.253  19.932  0.00  0.00    +0.000 A 
ATOM     12  C   UNL     1       1.512   4.417  20.730  0.00  0.00    +0.000 A 
ATOM     13  C   UNL     1       1.996   3.160  21.073  0.00  0.00    +0.000 A 
ATOM     14  C   UNL     1       3.273   2.766  20.660  0.00  0.00    +0.000 A 
ATOM     15  C   UNL     1       4.039   3.593  19.834  0.00  0.00    +0.000 A 
ATOM     16  C   UNL     1       3.524   4.820  19.433  0.00  0.00    +0.000 A 
ATOM     17  N   UNL     1       4.196   5.613  18.498  0.00  0.00    +0.000 N 
ATOM     18  C   UNL     1       3.656   6.752  17.959  0.00  0.00    +0.000 C 
ATOM     19  O   UNL     1       4.130   7.233  16.938  0.00  0.00    +0.000 OA
ATOM     20  N   UNL     1       2.581   7.302  18.653  0.00  0.00    +0.000 N 
ATOM     21  C   UNL     1       1.902   8.471  18.116  0.00  0.00    +0.000 C 
ATOM     22  H   UNL     1       5.023   5.261  18.034  0.00  0.00    +0.000 HD
ENDBRANCH   4   7
BRANCH   1  25
ATOM     23  C   UNL     1      -4.813  11.660  17.820  0.00  0.00    +0.000 C 
ATOM     24  O   UNL     1      -5.252  10.597  18.260  0.00  0.00    +0.000 OA
ATOM     25  N   UNL     1      -3.502  12.106  17.916  0.00  0.00    +0.000 N 
ATOM     26  H   UNL     1      -3.341  13.060  17.616  0.00  0.00    +0.000 HD
BRANCH  23  27
ATOM     27  C   UNL     1      -5.774  12.639  17.156  0.00  0.00    +0.000 C 
BRANCH  27  32
ATOM     28  C   UNL     1      -6.281  17.173  18.897  0.00  0.00    +0.000 C 
ATOM     29  N   UNL     1      -6.859  15.836  18.815  0.00  0.00    +0.000 NA
ATOM     30  C   UNL     1      -5.984  14.838  19.450  0.00  0.00    +0.000 C 
ATOM     31  C   UNL     1      -6.579  13.412  19.354  0.00  0.00    +0.000 C 
ATOM     32  N   UNL     1      -6.955  12.949  17.991  0.00  0.00    +0.000 NA
ATOM     33  C   UNL     1      -7.747  14.026  17.343  0.00  0.00    +0.000 C 
ATOM     34  C   UNL     1      -7.131  15.447  17.423  0.00  0.00    +0.000 C 
ENDBRANCH  27  32
ENDBRANCH  23  27
ENDBRANCH   1  25
TORSDOF 4
ENDMDL
MODEL 2
REMARK VINA RESULT:      -8.2      2.466     10.880
REMARK  Name = 
REMARK  5 active torsions:
REMARK  status: ('A' for Active; 'I' for Inactive)
REMARK    1  A    between atoms: C_1  and  N_2
REMARK    2  A    between atoms: N_5  and  C_6
REMARK    3  A    between atoms: C_6  and  C_7
REMARK    4  A    between atoms: N_9  and  C_10
REMARK    5  A    between atoms: C_13  and  C_14
REMARK                            x       y       z     vdW  Elec       q    Type
REMARK                         _______ _______ _______ _____ _____    ______ ____
ROOT
ATOM      1  C   UNL     1       0.874   8.985  21.446  0.00  0.00    +0.000 A 
ATOM      2  C   UNL     1       0.859   9.985  20.474  0.00  0.00    +0.000 A 
ATOM      3  C   UNL     1       0.176  11.180  20.683  0.00  0.00    +0.000 A 
ATOM      4  C   UNL     1      -0.532  11.395  21.874  0.00  0.00    +0.000 A 
ATOM      5  C   UNL     1      -0.489  10.412  22.869  0.00  0.00    +0.000 A 
ATOM      6  C   UNL     1       0.200   9.208  22.651  0.00  0.00    +0.000 A 
ENDROOT
BRANCH   4   7
ATOM      7  C   UNL     1      -1.531  12.538  21.894  0.00  0.00    +0.000 C 
ATOM      8  C   UNL     1      -1.735  12.971  20.445  0.00  0.00    +0.000 C 
ATOM      9  N   UNL     1      -2.918  12.373  19.809  0.00  0.00    +0.000 NA
ATOM     10  C   UNL     1      -3.999  12.508  20.500  0.00  0.00    +0.000 C 
ATOM     11  C   UNL     1      -5.301  12.482  19.822  0.00  0.00    +0.000 A 
ATOM     12  C   UNL     1      -5.473  11.888  18.566  0.00  0.00    +0.000 A 
ATOM     13  C   UNL     1      -6.666  12.092  17.883  0.00  0.00    +0.000 A 
ATOM     14  C   UNL     1      -7.653  12.919  18.429  0.00  0.00    +0.000 A 
ATOM     15  C   UNL     1      -7.486  13.480  19.699  0.00  0.00    +0.000 A 
ATOM     16  C   UNL     1      -6.323  13.217  20.412  0.00  0.00    +0.000 A 
ATOM     17  N   UNL     1      -6.178  13.641  21.736  0.00  0.00    +0.000 N 
ATOM     18  C   UNL     1      -5.119  13.275  22.526  0.00  0.00    +0.000 C 
ATOM     19  O   UNL     1      -5.187  13.405  23.742  0.00  0.00    +0.000 OA
ATOM     20  N   UNL     1      -4.003  12.782  21.856  0.00  0.00    +0.000 N 
ATOM     21  C   UNL     1      -2.860  12.305  22.618  0.00  0.00    +0.000 C 
ATOM     22  H   UNL     1      -6.957  14.069  22.221  0.00  0.00    +0.000 HD
ENDBRANCH   4   7
BRANCH   1  25
ATOM     23  C   UNL     1       2.028   7.295  20.027  0.00  0.00    +0.000 C 
ATOM     24  O   UNL     1       2.264   7.994  19.040  0.00  0.00    +0.000 OA
ATOM     25  N   UNL     1       1.486   7.733  21.228  0.00  0.00    +0.000 N 
ATOM     26  H   UNL     1       1.481   7.052  21.979  0.00  0.00    +0.000 HD
BRANCH  23  27
ATOM     27  C   UNL     1       2.407   5.819  19.996  0.00  0.00    +0.000 C 
BRANCH  27  32
ATOM     28  C   UNL     1       3.710   1.355  18.505  0.00  0.00    +0.000 C 
ATOM     29  N   UNL     1       2.631   2.332  18.604  0.00  0.00    +0.000 NA
ATOM     30  C   UNL     1       2.938   3.545  17.830  0.00  0.00    +0.000 C 
ATOM     31  C   UNL     1       1.806   4.596  17.942  0.00  0.00    +0.000 C 
ATOM     32  N   UNL     1       1.398   4.975  19.321  0.00  0.00    +0.000 NA
ATOM     33  C   UNL     1       1.199   3.726  20.100  0.00  0.00    +0.000 C 
ATOM     34  C   UNL     1       2.349   2.690  20.002  0.00  0.00    +0.000 C 
ENDBRANCH  27  32
ENDBRANCH  23  27
ENDBRANCH   1  25
TORSDOF 4
ENDMDL
MODEL 3
REMARK VINA RESULT:      -8.1      2.875     10.965
REMARK  Name = 
REMARK  5 active torsions:
REMARK  status: ('A' for Active; 'I' for Inactive)
REMARK    1  A    between atoms: C_1  and  N_2
REMARK    2  A    between atoms: N_5  and  C_6
REMARK    3  A    between atoms: C_6  and  C_7
REMARK    4  A    between atoms: N_9  and  C_10
REMARK    5  A    between atoms: C_13  and  C_14
REMARK                            x       y       z     vdW  Elec       q    Type
REMARK                         _______ _______ _______ _____ _____    ______ ____
ROOT
ATOM      1  C   UNL     1       1.059   9.062  20.586  0.00  0.00    +0.000 A 
ATOM      2  C   UNL     1       0.691  10.212  19.887  0.00  0.00    +0.000 A 
ATOM      3  C   UNL     1       0.093  11.287  20.537  0.00  0.00    +0.000 A 
ATOM      4  C   UNL     1      -0.172  11.229  21.913  0.00  0.00    +0.000 A 
ATOM      5  C   UNL     1       0.230  10.095  22.627  0.00  0.00    +0.000 A 
ATOM      6  C   UNL     1       0.831   9.012  21.965  0.00  0.00    +0.000 A 
ENDROOT
BRANCH   4   7
ATOM      7  C   UNL     1      -1.129  12.260  22.483  0.00  0.00    +0.000 C 
ATOM      8  C   UNL     1      -1.632  13.093  21.306  0.00  0.00    +0.000 C 
ATOM      9  N   UNL     1      -2.930  12.649  20.778  0.00  0.00    +0.000 NA
ATOM     10  C   UNL     1      -3.838  12.515  21.684  0.00  0.00    +0.000 C 
ATOM     11  C   UNL     1      -5.254  12.623  21.314  0.00  0.00    +0.000 A 
ATOM     12  C   UNL     1      -5.696  12.420  20.001  0.00  0.00    +0.000 A 
ATOM     13  C   UNL     1      -7.005  12.755  19.673  0.00  0.00    +0.000 A 
ATOM     14  C   UNL     1      -7.844  13.329  20.635  0.00  0.00    +0.000 A 
ATOM     15  C   UNL     1      -7.404  13.495  21.951  0.00  0.00    +0.000 A 
ATOM     16  C   UNL     1      -6.119  13.093  22.296  0.00  0.00    +0.000 A 
ATOM     17  N   UNL     1      -5.691  13.112  23.626  0.00  0.00    +0.000 N 
ATOM     18  C   UNL     1      -4.493  12.584  24.033  0.00  0.00    +0.000 C 
ATOM     19  O   UNL     1      -4.299  12.343  25.218  0.00  0.00    +0.000 OA
ATOM     20  N   UNL     1      -3.550  12.373  23.030  0.00  0.00    +0.000 N 
ATOM     21  C   UNL     1      -2.277  11.752  23.360  0.00  0.00    +0.000 C 
ATOM     22  H   UNL     1      -6.343  13.334  24.367  0.00  0.00    +0.000 HD
ENDBRANCH   4   7
BRANCH   1  25
ATOM     23  C   UNL     1       2.235   7.920  18.712  0.00  0.00    +0.000 C 
ATOM     24  O   UNL     1       2.646   8.910  18.105  0.00  0.00    +0.000 OA
ATOM     25  N   UNL     1       1.589   7.925  19.941  0.00  0.00    +0.000 N 
ATOM     26  H   UNL     1       1.436   7.014  20.358  0.00  0.00    +0.000 HD
BRANCH  23  27
ATOM     27  C   UNL     1       2.493   6.535  18.131  0.00  0.00    +0.000 C 
BRANCH  27  32
ATOM     28  C   UNL     1       3.456   1.749  18.242  0.00  0.00    +0.000 C 
ATOM     29  N   UNL     1       4.012   3.097  18.277  0.00  0.00    +0.000 NA
ATOM     30  C   UNL     1       3.542   3.837  19.459  0.00  0.00    +0.000 C 
ATOM     31  C   UNL     1       4.113   5.276  19.497  0.00  0.00    +0.000 C 
ATOM     32  N   UNL     1       3.899   6.098  18.277  0.00  0.00    +0.000 NA
ATOM     33  C   UNL     1       4.286   5.281  17.098  0.00  0.00    +0.000 C 
ATOM     34  C   UNL     1       3.689   3.850  17.056  0.00  0.00    +0.000 C 
ENDBRANCH  27  32
ENDBRANCH  23  27
ENDBRANCH   1  25
TORSDOF 4
ENDMDL
MODEL 4
REMARK VINA RESULT:      -8.1      3.455     11.312
REMARK  Name = 
REMARK  5 active torsions:
REMARK  status: ('A' for Active; 'I' for Inactive)
REMARK    1  A    between atoms: C_1  and  N_2
REMARK    2  A    between atoms: N_5  and  C_6
REMARK    3  A    between atoms: C_6  and  C_7
REMARK    4  A    between atoms: N_9  and  C_10
REMARK    5  A    between atoms: C_13  and  C_14
REMARK                            x       y       z     vdW  Elec       q    Type
REMARK                         _______ _______ _______ _____ _____    ______ ____
ROOT
ATOM      1  C   UNL     1       0.726   8.894  21.039  0.00  0.00    +0.000 A 
ATOM      2  C   UNL     1       0.424   9.286  22.344  0.00  0.00    +0.000 A 
ATOM      3  C   UNL     1      -0.329  10.429  22.595  0.00  0.00    +0.000 A 
ATOM      4  C   UNL     1      -0.786  11.227  21.536  0.00  0.00    +0.000 A 
ATOM      5  C   UNL     1      -0.520  10.819  20.224  0.00  0.00    +0.000 A 
ATOM      6  C   UNL     1       0.242   9.666  19.978  0.00  0.00    +0.000 A 
ENDROOT
BRANCH   4   7
ATOM      7  C   UNL     1      -1.280  12.621  21.877  0.00  0.00    +0.000 C 
ATOM      8  C   UNL     1      -2.359  12.969  20.854  0.00  0.00    +0.000 C 
ATOM      9  N   UNL     1      -3.727  12.715  21.327  0.00  0.00    +0.000 NA
ATOM     10  C   UNL     1      -3.981  13.239  22.479  0.00  0.00    +0.000 C 
ATOM     11  C   UNL     1      -5.367  13.560  22.840  0.00  0.00    +0.000 A 
ATOM     12  C   UNL     1      -6.459  12.942  22.220  0.00  0.00    +0.000 A 
ATOM     13  C   UNL     1      -7.735  13.446  22.444  0.00  0.00    +0.000 A 
ATOM     14  C   UNL     1      -7.908  14.583  23.240  0.00  0.00    +0.000 A 
ATOM     15  C   UNL     1      -6.816  15.172  23.883  0.00  0.00    +0.000 A 
ATOM     16  C   UNL     1      -5.550  14.624  23.716  0.00  0.00    +0.000 A 
ATOM     17  N   UNL     1      -4.458  15.095  24.450  0.00  0.00    +0.000 N 
ATOM     18  C   UNL     1      -3.228  14.488  24.434  0.00  0.00    +0.000 C 
ATOM     19  O   UNL     1      -2.409  14.737  25.309  0.00  0.00    +0.000 OA
ATOM     20  N   UNL     1      -2.996  13.617  23.373  0.00  0.00    +0.000 N 
ATOM     21  C   UNL     1      -1.745  12.876  23.313  0.00  0.00    +0.000 C 
ATOM     22  H   UNL     1      -4.594  15.784  25.179  0.00  0.00    +0.000 HD
ENDBRANCH   4   7
BRANCH   1  25
ATOM     23  C   UNL     1       2.192   7.543  19.549  0.00  0.00    +0.000 C 
ATOM     24  O   UNL     1       2.318   8.342  18.619  0.00  0.00    +0.000 OA
ATOM     25  N   UNL     1       1.556   7.790  20.758  0.00  0.00    +0.000 N 
ATOM     26  H   UNL     1       1.658   7.067  21.460  0.00  0.00    +0.000 HD
BRANCH  23  27
ATOM     27  C   UNL     1       2.831   6.164  19.431  0.00  0.00    +0.000 C 
BRANCH  27  32
ATOM     28  C   UNL     1       3.633   1.412  18.643  0.00  0.00    +0.000 C 
ATOM     29  N   UNL     1       3.395   2.717  18.036  0.00  0.00    +0.000 NA
ATOM     30  C   UNL     1       4.479   3.660  18.356  0.00  0.00    +0.000 C 
ATOM     31  C   UNL     1       4.228   5.053  17.731  0.00  0.00    +0.000 C 
ATOM     32  N   UNL     1       2.915   5.682  18.035  0.00  0.00    +0.000 NA
ATOM     33  C   UNL     1       1.855   4.668  17.800  0.00  0.00    +0.000 C 
ATOM     34  C   UNL     1       2.103   3.282  18.452  0.00  0.00    +0.000 C 
ENDBRANCH  27  32
ENDBRANCH  23  27
ENDBRANCH   1  25
TORSDOF 4
ENDMDL
MODEL 5
REMARK VINA RESULT:      -8.0      2.373     10.988
REMARK  Name = 
REMARK  5 active torsions:
REMARK  status: ('A' for Active; 'I' for Inactive)
REMARK    1  A    between atoms: C_1  and  N_2
REMARK    2  A    between atoms: N_5  and  C_6
REMARK    3  A    between atoms: C_6  and  C_7
REMARK    4  A    between atoms: N_9  and  C_10
REMARK    5  A    between atoms: C_13  and  C_14
REMARK                            x       y       z     vdW  Elec       q    Type
REMARK                         _______ _______ _______ _____ _____    ______ ____
ROOT
ATOM      1  C   UNL     1       2.077   8.249  18.766  0.00  0.00    +0.000 A 
ATOM      2  C   UNL     1       1.608   8.521  20.052  0.00  0.00    +0.000 A 
ATOM      3  C   UNL     1       0.666   9.521  20.276  0.00  0.00    +0.000 A 
ATOM      4  C   UNL     1       0.180  10.292  19.211  0.00  0.00    +0.000 A 
ATOM      5  C   UNL     1       0.616   9.998  17.914  0.00  0.00    +0.000 A 
ATOM      6  C   UNL     1       1.569   8.990  17.695  0.00  0.00    +0.000 A 
ENDROOT
BRANCH   4   7
ATOM      7  C   UNL     1      -0.556  11.574  19.558  0.00  0.00    +0.000 C 
ATOM      8  C   UNL     1      -1.245  12.047  18.280  0.00  0.00    +0.000 C 
ATOM      9  N   UNL     1      -2.655  11.642  18.184  0.00  0.00    +0.000 NA
ATOM     10  C   UNL     1      -3.349  11.934  19.231  0.00  0.00    +0.000 C 
ATOM     11  C   UNL     1      -4.801  12.113  19.113  0.00  0.00    +0.000 A 
ATOM     12  C   UNL     1      -5.533  11.563  18.054  0.00  0.00    +0.000 A 
ATOM     13  C   UNL     1      -6.856  11.953  17.877  0.00  0.00    +0.000 A 
ATOM     14  C   UNL     1      -7.421  12.916  18.720  0.00  0.00    +0.000 A 
ATOM     15  C   UNL     1      -6.693  13.433  19.795  0.00  0.00    +0.000 A 
ATOM     16  C   UNL     1      -5.395  12.989  20.015  0.00  0.00    +0.000 A 
ATOM     17  N   UNL     1      -4.685  13.374  21.155  0.00  0.00    +0.000 N 
ATOM     18  C   UNL     1      -3.466  12.843  21.491  0.00  0.00    +0.000 C 
ATOM     19  O   UNL     1      -3.034  12.970  22.630  0.00  0.00    +0.000 OA
ATOM     20  N   UNL     1      -2.783  12.192  20.467  0.00  0.00    +0.000 N 
ATOM     21  C   UNL     1      -1.515  11.540  20.750  0.00  0.00    +0.000 C 
ATOM     22  H   UNL     1      -5.141  13.910  21.881  0.00  0.00    +0.000 HD
ENDBRANCH   4   7
BRANCH   1  25
ATOM     23  C   UNL     1       2.892   5.963  18.213  0.00  0.00    +0.000 C 
ATOM     24  O   UNL     1       1.823   5.444  17.889  0.00  0.00    +0.000 OA
ATOM     25  N   UNL     1       3.092   7.301  18.520  0.00  0.00    +0.000 N 
ATOM     26  H   UNL     1       4.058   7.583  18.638  0.00  0.00    +0.000 HD
BRANCH  23  27
ATOM     27  C   UNL     1       4.153   5.106  18.233  0.00  0.00    +0.000 C 
BRANCH  27  32
ATOM     28  C   UNL     1       6.794   4.611  14.154  0.00  0.00    +0.000 C 
ATOM     29  N   UNL     1       6.667   5.289  15.440  0.00  0.00    +0.000 NA
ATOM     30  C   UNL     1       6.749   4.335  16.557  0.00  0.00    +0.000 C 
ATOM     31  C   UNL     1       6.598   5.042  17.926  0.00  0.00    +0.000 C 
ATOM     32  N   UNL     1       5.394   5.899  18.091  0.00  0.00    +0.000 NA
ATOM     33  C   UNL     1       5.286   6.775  16.896  0.00  0.00    +0.000 C 
ATOM     34  C   UNL     1       5.413   6.054  15.529  0.00  0.00    +0.000 C 
ENDBRANCH  27  32
ENDBRANCH  23  27
ENDBRANCH   1  25
TORSDOF 4
ENDMDL
MODEL 6
REMARK VINA RESULT:      -7.9      9.272     11.052
REMARK  Name = 
REMARK  5 active torsions:
REMARK  status: ('A' for Active; 'I' for Inactive)
REMARK    1  A    between atoms: C_1  and  N_2
REMARK    2  A    between atoms: N_5  and  C_6
REMARK    3  A    between atoms: C_6  and  C_7
REMARK    4  A    between atoms: N_9  and  C_10
REMARK    5  A    between atoms: C_13  and  C_14
REMARK                            x       y       z     vdW  Elec       q    Type
REMARK                         _______ _______ _______ _____ _____    ______ ____
ROOT
ATOM      1  C   UNL     1       8.781  10.700  18.376  0.00  0.00    +0.000 A 
ATOM      2  C   UNL     1       7.914  10.233  17.387  0.00  0.00    +0.000 A 
ATOM      3  C   UNL     1       7.533   8.895  17.339  0.00  0.00    +0.000 A 
ATOM      4  C   UNL     1       8.033   7.979  18.276  0.00  0.00    +0.000 A 
ATOM      5  C   UNL     1       8.871   8.448  19.293  0.00  0.00    +0.000 A 
ATOM      6  C   UNL     1       9.253   9.799  19.335  0.00  0.00    +0.000 A 
ENDROOT
BRANCH   4   7
ATOM      7  C   UNL     1       7.871   6.503  17.962  0.00  0.00    +0.000 C 
ATOM      8  C   UNL     1       7.597   5.797  19.288  0.00  0.00    +0.000 C 
ATOM      9  N   UNL     1       6.169   5.569  19.552  0.00  0.00    +0.000 NA
ATOM     10  C   UNL     1       5.547   4.999  18.575  0.00  0.00    +0.000 C 
ATOM     11  C   UNL     1       4.330   4.224  18.844  0.00  0.00    +0.000 A 
ATOM     12  C   UNL     1       3.561   4.424  19.996  0.00  0.00    +0.000 A 
ATOM     13  C   UNL     1       2.555   3.513  20.300  0.00  0.00    +0.000 A 
ATOM     14  C   UNL     1       2.356   2.393  19.487  0.00  0.00    +0.000 A 
ATOM     15  C   UNL     1       3.106   2.221  18.320  0.00  0.00    +0.000 A 
ATOM     16  C   UNL     1       4.062   3.170  17.978  0.00  0.00    +0.000 A 
ATOM     17  N   UNL     1       4.732   3.108  16.753  0.00  0.00    +0.000 N 
ATOM     18  C   UNL     1       5.566   4.101  16.308  0.00  0.00    +0.000 C 
ATOM     19  O   UNL     1       5.878   4.156  15.125  0.00  0.00    +0.000 OA
ATOM     20  N   UNL     1       6.023   4.991  17.277  0.00  0.00    +0.000 N 
ATOM     21  C   UNL     1       6.857   6.115  16.883  0.00  0.00    +0.000 C 
ATOM     22  H   UNL     1       4.464   2.421  16.061  0.00  0.00    +0.000 HD
ENDBRANCH   4   7
BRANCH   1  25
ATOM     23  C   UNL     1      10.532  12.441  18.066  0.00  0.00    +0.000 C 
ATOM     24  O   UNL     1      11.385  11.764  17.491  0.00  0.00    +0.000 OA
ATOM     25  N   UNL     1       9.249  12.030  18.399  0.00  0.00    +0.000 N 
ATOM     26  H   UNL     1       8.635  12.755  18.751  0.00  0.00    +0.000 HD
BRANCH  23  27
ATOM     27  C   UNL     1      10.848  13.893  18.407  0.00  0.00    +0.000 C 
BRANCH  27  32
ATOM     28  C   UNL     1      10.823  18.629  19.600  0.00  0.00    +0.000 C 
ATOM     29  N   UNL     1      10.458  17.630  18.601  0.00  0.00    +0.000 NA
ATOM     30  C   UNL     1       9.476  16.674  19.137  0.00  0.00    +0.000 C 
ATOM     31  C   UNL     1       9.095  15.598  18.090  0.00  0.00    +0.000 C 
ATOM     32  N   UNL     1      10.226  14.856  17.472  0.00  0.00    +0.000 NA
ATOM     33  C   UNL     1      11.244  15.848  17.038  0.00  0.00    +0.000 C 
ATOM     34  C   UNL     1      11.637  16.906  18.101  0.00  0.00    +0.000 C 
ENDBRANCH  27  32
ENDBRANCH  23  27
ENDBRANCH   1  25
TORSDOF 4
ENDMDL
MODEL 7
REMARK VINA RESULT:      -7.9      2.253     10.545
REMARK  Name = 
REMARK  5 active torsions:
REMARK  status: ('A' for Active; 'I' for Inactive)
REMARK    1  A    between atoms: C_1  and  N_2
REMARK    2  A    between atoms: N_5  and  C_6
REMARK    3  A    between atoms: C_6  and  C_7
REMARK    4  A    between atoms: N_9  and  C_10
REMARK    5  A    between atoms: C_13  and  C_14
REMARK                            x       y       z     vdW  Elec       q    Type
REMARK                         _______ _______ _______ _____ _____    ______ ____
ROOT
ATOM      1  C   UNL     1       2.167   7.391  18.631  0.00  0.00    +0.000 A 
ATOM      2  C   UNL     1       2.106   8.478  17.758  0.00  0.00    +0.000 A 
ATOM      3  C   UNL     1       1.705   9.734  18.203  0.00  0.00    +0.000 A 
ATOM      4  C   UNL     1       1.332   9.929  19.541  0.00  0.00    +0.000 A 
ATOM      5  C   UNL     1       1.428   8.853  20.429  0.00  0.00    +0.000 A 
ATOM      6  C   UNL     1       1.832   7.587  19.974  0.00  0.00    +0.000 A 
ENDROOT
BRANCH   4   7
ATOM      7  C   UNL     1       0.577  11.203  19.875  0.00  0.00    +0.000 C 
ATOM      8  C   UNL     1       0.051  11.763  18.556  0.00  0.00    +0.000 C 
ATOM      9  N   UNL     1      -1.342  11.393  18.269  0.00  0.00    +0.000 NA
ATOM     10  C   UNL     1      -2.153  11.637  19.243  0.00  0.00    +0.000 C 
ATOM     11  C   UNL     1      -3.578  11.851  18.964  0.00  0.00    +0.000 A 
ATOM     12  C   UNL     1      -4.185  11.379  17.795  0.00  0.00    +0.000 A 
ATOM     13  C   UNL     1      -5.473  11.805  17.486  0.00  0.00    +0.000 A 
ATOM     14  C   UNL     1      -6.122  12.728  18.313  0.00  0.00    +0.000 A 
ATOM     15  C   UNL     1      -5.521  13.167  19.496  0.00  0.00    +0.000 A 
ATOM     16  C   UNL     1      -4.264  12.685  19.840  0.00  0.00    +0.000 A 
ATOM     17  N   UNL     1      -3.690  12.988  21.079  0.00  0.00    +0.000 N 
ATOM     18  C   UNL     1      -2.527  12.415  21.524  0.00  0.00    +0.000 C 
ATOM     19  O   UNL     1      -2.233  12.466  22.711  0.00  0.00    +0.000 OA
ATOM     20  N   UNL     1      -1.736  11.811  20.550  0.00  0.00    +0.000 N 
ATOM     21  C   UNL     1      -0.519  11.118  20.942  0.00  0.00    +0.000 C 
ATOM     22  H   UNL     1      -4.224  13.490  21.776  0.00  0.00    +0.000 HD
ENDBRANCH   4   7
BRANCH   1  25
ATOM     23  C   UNL     1       3.732   5.673  17.737  0.00  0.00    +0.000 C 
ATOM     24  O   UNL     1       4.792   6.291  17.855  0.00  0.00    +0.000 OA
ATOM     25  N   UNL     1       2.488   6.090  18.190  0.00  0.00    +0.000 N 
ATOM     26  H   UNL     1       1.747   5.401  18.127  0.00  0.00    +0.000 HD
BRANCH  23  27
ATOM     27  C   UNL     1       3.750   4.290  17.096  0.00  0.00    +0.000 C 
BRANCH  27  32
ATOM     28  C   UNL     1       1.300   2.655  20.992  0.00  0.00    +0.000 C 
ATOM     29  N   UNL     1       2.519   2.552  20.197  0.00  0.00    +0.000 NA
ATOM     30  C   UNL     1       3.272   3.817  20.209  0.00  0.00    +0.000 C 
ATOM     31  C   UNL     1       4.560   3.724  19.355  0.00  0.00    +0.000 C 
ATOM     32  N   UNL     1       4.383   3.263  17.952  0.00  0.00    +0.000 NA
ATOM     33  C   UNL     1       3.532   2.046  17.972  0.00  0.00    +0.000 C 
ATOM     34  C   UNL     1       2.232   2.157  18.810  0.00  0.00    +0.000 C 
ENDBRANCH  27  32
ENDBRANCH  23  27
ENDBRANCH   1  25
TORSDOF 4
ENDMDL
MODEL 8
REMARK VINA RESULT:      -7.9      3.035     11.226
REMARK  Name = 
REMARK  5 active torsions:
REMARK  status: ('A' for Active; 'I' for Inactive)
REMARK    1  A    between atoms: C_1  and  N_2
REMARK    2  A    between atoms: N_5  and  C_6
REMARK    3  A    between atoms: C_6  and  C_7
REMARK    4  A    between atoms: N_9  and  C_10
REMARK    5  A    between atoms: C_13  and  C_14
REMARK                            x       y       z     vdW  Elec       q    Type
REMARK                         _______ _______ _______ _____ _____    ______ ____
ROOT
ATOM      1  C   UNL     1       0.981   8.856  20.617  0.00  0.00    +0.000 A 
ATOM      2  C   UNL     1       0.519   8.764  21.931  0.00  0.00    +0.000 A 
ATOM      3  C   UNL     1      -0.348   9.718  22.455  0.00  0.00    +0.000 A 
ATOM      4  C   UNL     1      -0.764  10.807  21.676  0.00  0.00    +0.000 A 
ATOM      5  C   UNL     1      -0.336  10.884  20.346  0.00  0.00    +0.000 A 
ATOM      6  C   UNL     1       0.542   9.920  19.823  0.00  0.00    +0.000 A 
ENDROOT
BRANCH   4   7
ATOM      7  C   UNL     1      -1.405  11.977  22.399  0.00  0.00    +0.000 C 
ATOM      8  C   UNL     1      -1.856  12.966  21.327  0.00  0.00    +0.000 C 
ATOM      9  N   UNL     1      -3.272  12.832  20.956  0.00  0.00    +0.000 NA
ATOM     10  C   UNL     1      -4.074  12.834  21.968  0.00  0.00    +0.000 C 
ATOM     11  C   UNL     1      -5.468  13.254  21.787  0.00  0.00    +0.000 A 
ATOM     12  C   UNL     1      -6.097  13.227  20.538  0.00  0.00    +0.000 A 
ATOM     13  C   UNL     1      -7.335  13.844  20.393  0.00  0.00    +0.000 A 
ATOM     14  C   UNL     1      -7.911  14.519  21.474  0.00  0.00    +0.000 A 
ATOM     15  C   UNL     1      -7.292  14.510  22.727  0.00  0.00    +0.000 A 
ATOM     16  C   UNL     1      -6.090  13.832  22.889  0.00  0.00    +0.000 A 
ATOM     17  N   UNL     1      -5.512  13.681  24.152  0.00  0.00    +0.000 N 
ATOM     18  C   UNL     1      -4.413  12.894  24.382  0.00  0.00    +0.000 C 
ATOM     19  O   UNL     1      -4.135  12.546  25.523  0.00  0.00    +0.000 OA
ATOM     20  N   UNL     1      -3.664  12.554  23.259  0.00  0.00    +0.000 N 
ATOM     21  C   UNL     1      -2.521  11.665  23.400  0.00  0.00    +0.000 C 
ATOM     22  H   UNL     1      -6.009  13.988  24.979  0.00  0.00    +0.000 HD
ENDBRANCH   4   7
BRANCH   1  25
ATOM     23  C   UNL     1       2.257   7.825  18.744  0.00  0.00    +0.000 C 
ATOM     24  O   UNL     1       1.958   8.612  17.845  0.00  0.00    +0.000 OA
ATOM     25  N   UNL     1       1.926   7.953  20.086  0.00  0.00    +0.000 N 
ATOM     26  H   UNL     1       2.363   7.285  20.710  0.00  0.00    +0.000 HD
BRANCH  23  27
ATOM     27  C   UNL     1       3.123   6.616  18.412  0.00  0.00    +0.000 C 
BRANCH  27  32
ATOM     28  C   UNL     1       3.619   1.765  18.135  0.00  0.00    +0.000 C 
ATOM     29  N   UNL     1       3.754   2.951  18.976  0.00  0.00    +0.000 NA
ATOM     30  C   UNL     1       2.452   3.602  19.191  0.00  0.00    +0.000 C 
ATOM     31  C   UNL     1       2.585   4.871  20.068  0.00  0.00    +0.000 C 
ATOM     32  N   UNL     1       3.578   5.881  19.612  0.00  0.00    +0.000 NA
ATOM     33  C   UNL     1       4.846   5.171  19.304  0.00  0.00    +0.000 C 
ATOM     34  C   UNL     1       4.705   3.916  18.405  0.00  0.00    +0.000 C 
ENDBRANCH  27  32
ENDBRANCH  23  27
ENDBRANCH   1  25
TORSDOF 4
ENDMDL
MODEL 9
REMARK VINA RESULT:      -7.9      2.740     10.901
REMARK  Name = 
REMARK  5 active torsions:
REMARK  status: ('A' for Active; 'I' for Inactive)
REMARK    1  A    between atoms: C_1  and  N_2
REMARK    2  A    between atoms: N_5  and  C_6
REMARK    3  A    between atoms: C_6  and  C_7
REMARK    4  A    between atoms: N_9  and  C_10
REMARK    5  A    between atoms: C_13  and  C_14
REMARK                            x       y       z     vdW  Elec       q    Type
REMARK                         _______ _______ _______ _____ _____    ______ ____
ROOT
ATOM      1  C   UNL     1       1.025   9.419  21.054  0.00  0.00    +0.000 A 
ATOM      2  C   UNL     1       1.102  10.736  20.597  0.00  0.00    +0.000 A 
ATOM      3  C   UNL     1       0.350  11.746  21.190  0.00  0.00    +0.000 A 
ATOM      4  C   UNL     1      -0.520  11.457  22.251  0.00  0.00    +0.000 A 
ATOM      5  C   UNL     1      -0.572  10.146  22.739  0.00  0.00    +0.000 A 
ATOM      6  C   UNL     1       0.187   9.131  22.135  0.00  0.00    +0.000 A 
ENDROOT
BRANCH   4   7
ATOM      7  C   UNL     1      -1.556  12.507  22.609  0.00  0.00    +0.000 C 
ATOM      8  C   UNL     1      -1.814  13.321  21.344  0.00  0.00    +0.000 C 
ATOM      9  N   UNL     1      -2.993  12.879  20.585  0.00  0.00    +0.000 NA
ATOM     10  C   UNL     1      -4.059  12.770  21.304  0.00  0.00    +0.000 C 
ATOM     11  C   UNL     1      -5.377  12.883  20.667  0.00  0.00    +0.000 A 
ATOM     12  C   UNL     1      -5.563  12.658  19.299  0.00  0.00    +0.000 A 
ATOM     13  C   UNL     1      -6.781  12.998  18.720  0.00  0.00    +0.000 A 
ATOM     14  C   UNL     1      -7.780  13.597  19.494  0.00  0.00    +0.000 A 
ATOM     15  C   UNL     1      -7.598  13.785  20.867  0.00  0.00    +0.000 A 
ATOM     16  C   UNL     1      -6.408  13.379  21.458  0.00  0.00    +0.000 A 
ATOM     17  N   UNL     1      -6.241  13.420  22.845  0.00  0.00    +0.000 N 
ATOM     18  C   UNL     1      -5.149  12.890  23.482  0.00  0.00    +0.000 C 
ATOM     19  O   UNL     1      -5.188  12.670  24.686  0.00  0.00    +0.000 OA
ATOM     20  N   UNL     1      -4.035  12.651  22.682  0.00  0.00    +0.000 N 
ATOM     21  C   UNL     1      -2.856  12.026  23.260  0.00  0.00    +0.000 C 
ATOM     22  H   UNL     1      -7.020  13.662  23.443  0.00  0.00    +0.000 HD
ENDBRANCH   4   7
BRANCH   1  25
ATOM     23  C   UNL     1       1.823   8.180  19.048  0.00  0.00    +0.000 C 
ATOM     24  O   UNL     1       1.550   9.011  18.180  0.00  0.00    +0.000 OA
ATOM     25  N   UNL     1       1.709   8.362  20.419  0.00  0.00    +0.000 N 
ATOM     26  H   UNL     1       2.101   7.623  20.992  0.00  0.00    +0.000 HD
BRANCH  23  27
ATOM     27  C   UNL     1       2.404   6.835  18.627  0.00  0.00    +0.000 C 
BRANCH  27  32
ATOM     28  C   UNL     1       3.073   2.047  17.937  0.00  0.00    +0.000 C 
ATOM     29  N   UNL     1       3.139   3.155  18.884  0.00  0.00    +0.000 NA
ATOM     30  C   UNL     1       1.809   3.743  19.110  0.00  0.00    +0.000 C 
ATOM     31  C   UNL     1       1.870   4.931  20.100  0.00  0.00    +0.000 C 
ATOM     32  N   UNL     1       2.842   6.008  19.773  0.00  0.00    +0.000 NA
ATOM     33  C   UNL     1       4.144   5.369  19.449  0.00  0.00    +0.000 C 
ATOM     34  C   UNL     1       4.076   4.196  18.437  0.00  0.00    +0.000 C 
ENDBRANCH  27  32
ENDBRANCH  23  27
ENDBRANCH   1  25
TORSDOF 4
ENDMDL
