MODEL 1
REMARK VINA RESULT:      -7.6      0.000      0.000
REMARK  Name = 
REMARK  5 active torsions:
REMARK  status: ('A' for Active; 'I' for Inactive)
REMARK    1  A    between atoms: C_1  and  C_2
REMARK    2  A    between atoms: C_2  and  C_3
REMARK    3  A    between atoms: C_9  and  C_10
REMARK    4  A    between atoms: N_15  and  C_16
REMARK    5  A    between atoms: C_16  and  C_17
REMARK                            x       y       z     vdW  Elec       q    Type
REMARK                         _______ _______ _______ _____ _____    ______ ____
ROOT
ATOM      1  C   UNL     1       2.317   7.832  18.150  0.00  0.00    +0.000 C 
ATOM      2  O   UNL     1       2.513   8.526  17.157  0.00  0.00    +0.000 OA
ATOM      3  N   UNL     1       1.745   8.367  19.316  0.00  0.00    +0.000 N 
ATOM      4  C   UNL     1       1.154   9.708  19.301  0.00  0.00    +0.000 C 
ATOM      5  C   UNL     1      -0.197   9.732  20.067  0.00  0.00    +0.000 C 
ATOM      6  N   UNL     1      -0.255   9.062  21.398  0.00  0.00    +0.000 NA
ATOM      7  C   UNL     1       0.500   7.787  21.368  0.00  0.00    +0.000 C 
ATOM      8  C   UNL     1       1.880   7.845  20.676  0.00  0.00    +0.000 C 
ENDROOT
BRANCH   1  15
ATOM      9  C   UNL     1       3.907   5.817  17.792  0.00  0.00    +0.000 A 
ATOM     10  C   UNL     1       4.086   4.413  17.763  0.00  0.00    +0.000 A 
ATOM     11  C   UNL     1       3.015   3.547  17.953  0.00  0.00    +0.000 A 
ATOM     12  C   UNL     1       1.751   4.079  18.134  0.00  0.00    +0.000 A 
ATOM     13  F   UNL     1       0.702   3.258  18.262  0.00  0.00    +0.000 F 
ATOM     14  C   UNL     1       1.549   5.454  18.170  0.00  0.00    +0.000 A 
ATOM     15  C   UNL     1       2.623   6.350  18.075  0.00  0.00    +0.000 A 
BRANCH   9  17
ATOM     16  C   UNL     1       5.263   6.569  15.848  0.00  0.00    +0.000 C 
ATOM     17  C   UNL     1       5.095   6.649  17.364  0.00  0.00    +0.000 C 
ENDBRANCH   9  17
ENDBRANCH   1  15
BRANCH   6  18
ATOM     18  C   UNL     1       0.209   9.914  22.509  0.00  0.00    +0.000 C 
BRANCH  18  19
ATOM     19  C   UNL     1      -0.581  11.222  22.588  0.00  0.00    +0.000 C 
ATOM     20  O   UNL     1      -0.082  12.257  22.151  0.00  0.00    +0.000 OA
ATOM     21  N   UNL     1      -1.816  11.102  23.196  0.00  0.00    +0.000 N 
ATOM     22  C   UNL     1      -2.770  12.092  23.249  0.00  0.00    +0.000 A 
ATOM     23  N   UNL     1      -3.822  12.051  24.032  0.00  0.00    +0.000 NA
ATOM     24  N   UNL     1      -4.620  13.180  23.900  0.00  0.00    +0.000 NA
ATOM     25  C   UNL     1      -4.147  13.997  22.977  0.00  0.00    +0.000 A 
ATOM     26  S   UNL     1      -2.731  13.445  22.202  0.00  0.00    +0.000 S 
ATOM     27  H   UNL     1      -2.036  10.263  23.712  0.00  0.00    +0.000 HD
ENDBRANCH  18  19
ENDBRANCH   6  18
TORSDOF 4
ENDMDL
MODEL 2
REMARK VINA RESULT:      -7.3      2.816      4.319
REMARK  Name = 
REMARK  5 active torsions:
REMARK  status: ('A' for Active; 'I' for Inactive)
REMARK    1  A    between atoms: C_1  and  C_2
REMARK    2  A    between atoms: C_2  and  C_3
REMARK    3  A    between atoms: C_9  and  C_10
REMARK    4  A    between atoms: N_15  and  C_16
REMARK    5  A    between atoms: C_16  and  C_17
REMARK                            x       y       z     vdW  Elec       q    Type
REMARK                         _______ _______ _______ _____ _____    ______ ____
ROOT
ATOM      1  C   UNL     1       3.756   3.385  17.859  0.00  0.00    +0.000 C 
ATOM      2  O   UNL     1       3.566   2.178  17.971  0.00  0.00    +0.000 OA
ATOM      3  N   UNL     1       2.991   4.317  18.580  0.00  0.00    +0.000 N 
ATOM      4  C   UNL     1       2.105   3.869  19.658  0.00  0.00    +0.000 C 
ATOM      5  C   UNL     1       2.214   4.802  20.895  0.00  0.00    +0.000 C 
ATOM      6  N   UNL     1       2.183   6.274  20.661  0.00  0.00    +0.000 NA
ATOM      7  C   UNL     1       2.978   6.623  19.460  0.00  0.00    +0.000 C 
ATOM      8  C   UNL     1       2.758   5.717  18.228  0.00  0.00    +0.000 C 
ENDROOT
BRANCH   1  15
ATOM      9  C   UNL     1       6.097   4.433  17.490  0.00  0.00    +0.000 A 
ATOM     10  C   UNL     1       7.110   4.834  16.586  0.00  0.00    +0.000 A 
ATOM     11  C   UNL     1       6.927   4.733  15.211  0.00  0.00    +0.000 A 
ATOM     12  C   UNL     1       5.717   4.266  14.732  0.00  0.00    +0.000 A 
ATOM     13  F   UNL     1       5.507   4.216  13.411  0.00  0.00    +0.000 F 
ATOM     14  C   UNL     1       4.708   3.862  15.598  0.00  0.00    +0.000 A 
ATOM     15  C   UNL     1       4.898   3.865  16.987  0.00  0.00    +0.000 A 
BRANCH   9  17
ATOM     16  C   UNL     1       7.385   5.880  19.050  0.00  0.00    +0.000 C 
ATOM     17  C   UNL     1       6.324   4.787  18.944  0.00  0.00    +0.000 C 
ENDBRANCH   9  17
ENDBRANCH   1  15
BRANCH   6  18
ATOM     18  C   UNL     1       0.820   6.829  20.561  0.00  0.00    +0.000 C 
BRANCH  18  19
ATOM     19  C   UNL     1       0.818   8.353  20.700  0.00  0.00    +0.000 C 
ATOM     20  O   UNL     1       1.409   9.036  19.868  0.00  0.00    +0.000 OA
ATOM     21  N   UNL     1       0.147   8.818  21.814  0.00  0.00    +0.000 N 
ATOM     22  C   UNL     1      -0.127  10.142  22.076  0.00  0.00    +0.000 A 
ATOM     23  N   UNL     1      -0.538  10.585  23.239  0.00  0.00    +0.000 NA
ATOM     24  N   UNL     1      -0.729  11.961  23.241  0.00  0.00    +0.000 NA
ATOM     25  C   UNL     1      -0.496  12.478  22.049  0.00  0.00    +0.000 A 
ATOM     26  S   UNL     1      -0.056  11.340  20.857  0.00  0.00    +0.000 S 
ATOM     27  H   UNL     1      -0.112   8.172  22.545  0.00  0.00    +0.000 HD
ENDBRANCH  18  19
ENDBRANCH   6  18
TORSDOF 4
ENDMDL
MODEL 3
REMARK VINA RESULT:      -7.3      4.468      9.250
REMARK  Name = 
REMARK  5 active torsions:
REMARK  status: ('A' for Active; 'I' for Inactive)
REMARK    1  A    between atoms: C_1  and  C_2
REMARK    2  A    between atoms: C_2  and  C_3
REMARK    3  A    between atoms: C_9  and  C_10
REMARK    4  A    between atoms: N_15  and  C_16
REMARK    5  A    between atoms: C_16  and  C_17
REMARK                            x       y       z     vdW  Elec       q    Type
REMARK                         _______ _______ _______ _____ _____    ______ ____
ROOT
ATOM      1  C   UNL     1       0.363   9.500  20.551  0.00  0.00    +0.000 C 
ATOM      2  O   UNL     1      -0.003   9.566  21.720  0.00  0.00    +0.000 OA
ATOM      3  N   UNL     1       1.299   8.539  20.131  0.00  0.00    +0.000 N 
ATOM      4  C   UNL     1       1.687   7.446  21.025  0.00  0.00    +0.000 C 
ATOM      5  C   UNL     1       1.752   6.095  20.261  0.00  0.00    +0.000 C 
ATOM      6  N   UNL     1       2.450   6.074  18.943  0.00  0.00    +0.000 NA
ATOM      7  C   UNL     1       2.124   7.293  18.166  0.00  0.00    +0.000 C 
ATOM      8  C   UNL     1       2.167   8.620  18.956  0.00  0.00    +0.000 C 
ENDROOT
BRANCH   1  15
ATOM      9  C   UNL     1       0.050  11.793  19.384  0.00  0.00    +0.000 A 
ATOM     10  C   UNL     1      -0.599  12.558  18.386  0.00  0.00    +0.000 A 
ATOM     11  C   UNL     1      -1.592  12.004  17.586  0.00  0.00    +0.000 A 
ATOM     12  C   UNL     1      -1.969  10.691  17.804  0.00  0.00    +0.000 A 
ATOM     13  F   UNL     1      -2.961  10.161  17.079  0.00  0.00    +0.000 F 
ATOM     14  C   UNL     1      -1.344   9.916  18.774  0.00  0.00    +0.000 A 
ATOM     15  C   UNL     1      -0.278  10.419  19.532  0.00  0.00    +0.000 A 
BRANCH   9  17
ATOM     16  C   UNL     1       0.111  13.299  21.361  0.00  0.00    +0.000 C 
ATOM     17  C   UNL     1       0.953  12.555  20.327  0.00  0.00    +0.000 C 
ENDBRANCH   9  17
ENDBRANCH   1  15
BRANCH   6  18
ATOM     18  C   UNL     1       3.911   5.903  19.050  0.00  0.00    +0.000 C 
BRANCH  18  19
ATOM     19  C   UNL     1       4.494   5.224  17.809  0.00  0.00    +0.000 C 
ATOM     20  O   UNL     1       3.961   4.207  17.369  0.00  0.00    +0.000 OA
ATOM     21  N   UNL     1       5.627   5.836  17.308  0.00  0.00    +0.000 N 
ATOM     22  C   UNL     1       6.242   5.510  16.120  0.00  0.00    +0.000 A 
ATOM     23  N   UNL     1       7.439   5.922  15.782  0.00  0.00    +0.000 NA
ATOM     24  N   UNL     1       7.829   5.442  14.538  0.00  0.00    +0.000 NA
ATOM     25  C   UNL     1       6.872   4.726  13.979  0.00  0.00    +0.000 A 
ATOM     26  S   UNL     1       5.444   4.608  14.905  0.00  0.00    +0.000 S 
ATOM     27  H   UNL     1       6.106   6.527  17.866  0.00  0.00    +0.000 HD
ENDBRANCH  18  19
ENDBRANCH   6  18
TORSDOF 4
ENDMDL
MODEL 4
REMARK VINA RESULT:      -7.3      3.886      4.689
REMARK  Name = 
REMARK  5 active torsions:
REMARK  status: ('A' for Active; 'I' for Inactive)
REMARK    1  A    between atoms: C_1  and  C_2
REMARK    2  A    between atoms: C_2  and  C_3
REMARK    3  A    between atoms: C_9  and  C_10
REMARK    4  A    between atoms: N_15  and  C_16
REMARK    5  A    between atoms: C_16  and  C_17
REMARK                            x       y       z     vdW  Elec       q    Type
REMARK                         _______ _______ _______ _____ _____    ______ ____
ROOT
ATOM      1  C   UNL     1       3.191   5.405  19.600  0.00  0.00    +0.000 C 
ATOM      2  O   UNL     1       3.016   4.717  20.601  0.00  0.00    +0.000 OA
ATOM      3  N   UNL     1       2.415   6.551  19.355  0.00  0.00    +0.000 N 
ATOM      4  C   UNL     1       1.537   7.085  20.398  0.00  0.00    +0.000 C 
ATOM      5  C   UNL     1       1.635   8.634  20.472  0.00  0.00    +0.000 C 
ATOM      6  N   UNL     1       1.586   9.397  19.193  0.00  0.00    +0.000 NA
ATOM      7  C   UNL     1       2.376   8.704  18.147  0.00  0.00    +0.000 C 
ATOM      8  C   UNL     1       2.166   7.175  18.056  0.00  0.00    +0.000 C 
ENDROOT
BRANCH   1  15
ATOM      9  C   UNL     1       4.180   4.237  17.508  0.00  0.00    +0.000 A 
ATOM     10  C   UNL     1       5.306   3.984  16.689  0.00  0.00    +0.000 A 
ATOM     11  C   UNL     1       6.564   4.471  17.025  0.00  0.00    +0.000 A 
ATOM     12  C   UNL     1       6.712   5.182  18.202  0.00  0.00    +0.000 A 
ATOM     13  F   UNL     1       7.927   5.610  18.566  0.00  0.00    +0.000 F 
ATOM     14  C   UNL     1       5.622   5.449  19.022  0.00  0.00    +0.000 A 
ATOM     15  C   UNL     1       4.327   5.051  18.662  0.00  0.00    +0.000 A 
BRANCH   9  17
ATOM     16  C   UNL     1       2.902   2.137  17.878  0.00  0.00    +0.000 C 
ATOM     17  C   UNL     1       2.917   3.483  17.157  0.00  0.00    +0.000 C 
ENDBRANCH   9  17
ENDBRANCH   1  15
BRANCH   6  18
ATOM     18  C   UNL     1       0.216   9.665  18.716  0.00  0.00    +0.000 C 
BRANCH  18  19
ATOM     19  C   UNL     1      -0.066  11.166  18.623  0.00  0.00    +0.000 C 
ATOM     20  O   UNL     1      -1.229  11.561  18.580  0.00  0.00    +0.000 OA
ATOM     21  N   UNL     1       1.068  11.953  18.564  0.00  0.00    +0.000 N 
ATOM     22  C   UNL     1       1.080  13.328  18.633  0.00  0.00    +0.000 A 
ATOM     23  N   UNL     1       2.122  14.064  18.331  0.00  0.00    +0.000 NA
ATOM     24  N   UNL     1       1.866  15.422  18.473  0.00  0.00    +0.000 NA
ATOM     25  C   UNL     1       0.646  15.635  18.928  0.00  0.00    +0.000 A 
ATOM     26  S   UNL     1      -0.254  14.217  19.230  0.00  0.00    +0.000 S 
ATOM     27  H   UNL     1       1.963  11.523  18.386  0.00  0.00    +0.000 HD
ENDBRANCH  18  19
ENDBRANCH   6  18
TORSDOF 4
ENDMDL
MODEL 5
REMARK VINA RESULT:      -7.3      3.037      3.899
REMARK  Name = 
REMARK  5 active torsions:
REMARK  status: ('A' for Active; 'I' for Inactive)
REMARK    1  A    between atoms: C_1  and  C_2
REMARK    2  A    between atoms: C_2  and  C_3
REMARK    3  A    between atoms: C_9  and  C_10
REMARK    4  A    between atoms: N_15  and  C_16
REMARK    5  A    between atoms: C_16  and  C_17
REMARK                            x       y       z     vdW  Elec       q    Type
REMARK                         _______ _______ _______ _____ _____    ______ ____
ROOT
ATOM      1  C   UNL     1       3.210   5.414  19.489  0.00  0.00    +0.000 C 
ATOM      2  O   UNL     1       3.017   4.716  20.479  0.00  0.00    +0.000 OA
ATOM      3  N   UNL     1       2.475   6.591  19.269  0.00  0.00    +0.000 N 
ATOM      4  C   UNL     1       1.623   7.138  20.327  0.00  0.00    +0.000 C 
ATOM      5  C   UNL     1       1.778   8.681  20.428  0.00  0.00    +0.000 C 
ATOM      6  N   UNL     1       1.747   9.467  19.161  0.00  0.00    +0.000 NA
ATOM      7  C   UNL     1       2.503   8.764  18.098  0.00  0.00    +0.000 C 
ATOM      8  C   UNL     1       2.238   7.246  17.982  0.00  0.00    +0.000 C 
ENDROOT
BRANCH   1  15
ATOM      9  C   UNL     1       4.156   4.188  17.411  0.00  0.00    +0.000 A 
ATOM     10  C   UNL     1       5.264   3.913  16.574  0.00  0.00    +0.000 A 
ATOM     11  C   UNL     1       6.528   4.414  16.866  0.00  0.00    +0.000 A 
ATOM     12  C   UNL     1       6.699   5.161  18.018  0.00  0.00    +0.000 A 
ATOM     13  F   UNL     1       7.921   5.603  18.341  0.00  0.00    +0.000 F 
ATOM     14  C   UNL     1       5.627   5.449  18.854  0.00  0.00    +0.000 A 
ATOM     15  C   UNL     1       4.326   5.036  18.536  0.00  0.00    +0.000 A 
BRANCH   9  17
ATOM     16  C   UNL     1       2.930   2.062  17.809  0.00  0.00    +0.000 C 
ATOM     17  C   UNL     1       2.888   3.419  17.111  0.00  0.00    +0.000 C 
ENDBRANCH   9  17
ENDBRANCH   1  15
BRANCH   6  18
ATOM     18  C   UNL     1       0.384   9.793  18.700  0.00  0.00    +0.000 C 
BRANCH  18  19
ATOM     19  C   UNL     1      -0.270  10.862  19.577  0.00  0.00    +0.000 C 
ATOM     20  O   UNL     1      -1.495  10.916  19.652  0.00  0.00    +0.000 OA
ATOM     21  N   UNL     1       0.626  11.712  20.196  0.00  0.00    +0.000 N 
ATOM     22  C   UNL     1       0.297  12.650  21.149  0.00  0.00    +0.000 A 
ATOM     23  N   UNL     1       1.105  13.605  21.542  0.00  0.00    +0.000 NA
ATOM     24  N   UNL     1       0.525  14.422  22.504  0.00  0.00    +0.000 NA
ATOM     25  C   UNL     1      -0.685  14.002  22.823  0.00  0.00    +0.000 A 
ATOM     26  S   UNL     1      -1.185  12.592  22.003  0.00  0.00    +0.000 S 
ATOM     27  H   UNL     1       1.590  11.721  19.898  0.00  0.00    +0.000 HD
ENDBRANCH  18  19
ENDBRANCH   6  18
TORSDOF 4
ENDMDL
MODEL 6
REMARK VINA RESULT:      -7.2      1.226      1.319
REMARK  Name = 
REMARK  5 active torsions:
REMARK  status: ('A' for Active; 'I' for Inactive)
REMARK    1  A    between atoms: C_1  and  C_2
REMARK    2  A    between atoms: C_2  and  C_3
REMARK    3  A    between atoms: C_9  and  C_10
REMARK    4  A    between atoms: N_15  and  C_16
REMARK    5  A    between atoms: C_16  and  C_17
REMARK                            x       y       z     vdW  Elec       q    Type
REMARK                         _______ _______ _______ _____ _____    ______ ____
ROOT
ATOM      1  C   UNL     1       2.803   6.890  18.341  0.00  0.00    +0.000 C 
ATOM      2  O   UNL     1       3.303   7.200  17.264  0.00  0.00    +0.000 OA
ATOM      3  N   UNL     1       2.184   7.847  19.163  0.00  0.00    +0.000 N 
ATOM      4  C   UNL     1       1.912   9.193  18.654  0.00  0.00    +0.000 C 
ATOM      5  C   UNL     1       0.494   9.672  19.070  0.00  0.00    +0.000 C 
ATOM      6  N   UNL     1       0.079   9.468  20.487  0.00  0.00    +0.000 NA
ATOM      7  C   UNL     1       0.530   8.142  20.972  0.00  0.00    +0.000 C 
ATOM      8  C   UNL     1       1.982   7.758  20.609  0.00  0.00    +0.000 C 
ENDROOT
BRANCH   1  15
ATOM      9  C   UNL     1       3.902   4.737  19.277  0.00  0.00    +0.000 A 
ATOM     10  C   UNL     1       3.769   3.374  19.635  0.00  0.00    +0.000 A 
ATOM     11  C   UNL     1       2.580   2.687  19.422  0.00  0.00    +0.000 A 
ATOM     12  C   UNL     1       1.528   3.347  18.812  0.00  0.00    +0.000 A 
ATOM     13  F   UNL     1       0.396   2.683  18.550  0.00  0.00    +0.000 F 
ATOM     14  C   UNL     1       1.631   4.686  18.455  0.00  0.00    +0.000 A 
ATOM     15  C   UNL     1       2.784   5.429  18.742  0.00  0.00    +0.000 A 
BRANCH   9  17
ATOM     16  C   UNL     1       6.147   4.780  18.209  0.00  0.00    +0.000 C 
ATOM     17  C   UNL     1       5.297   5.315  19.359  0.00  0.00    +0.000 C 
ENDBRANCH   9  17
ENDBRANCH   1  15
BRANCH   6  18
ATOM     18  C   UNL     1       0.535  10.536  21.397  0.00  0.00    +0.000 C 
BRANCH  18  19
ATOM     19  C   UNL     1      -0.540  11.608  21.595  0.00  0.00    +0.000 C 
ATOM     20  O   UNL     1      -0.482  12.649  20.945  0.00  0.00    +0.000 OA
ATOM     21  N   UNL     1      -1.487  11.290  22.550  0.00  0.00    +0.000 N 
ATOM     22  C   UNL     1      -2.631  12.014  22.799  0.00  0.00    +0.000 A 
ATOM     23  N   UNL     1      -3.385  11.845  23.858  0.00  0.00    +0.000 NA
ATOM     24  N   UNL     1      -4.472  12.709  23.874  0.00  0.00    +0.000 NA
ATOM     25  C   UNL     1      -4.506  13.456  22.787  0.00  0.00    +0.000 A 
ATOM     26  S   UNL     1      -3.247  13.149  21.677  0.00  0.00    +0.000 S 
ATOM     27  H   UNL     1      -1.321  10.517  23.177  0.00  0.00    +0.000 HD
ENDBRANCH  18  19
ENDBRANCH   6  18
TORSDOF 4
ENDMDL
MODEL 7
REMARK VINA RESULT:      -7.1      1.549      1.726
REMARK  Name = 
REMARK  5 active torsions:
REMARK  status: ('A' for Active; 'I' for Inactive)
REMARK    1  A    between atoms: C_1  and  C_2
REMARK    2  A    between atoms: C_2  and  C_3
REMARK    3  A    between atoms: C_9  and  C_10
REMARK    4  A    between atoms: N_15  and  C_16
REMARK    5  A    between atoms: C_16  and  C_17
REMARK                            x       y       z     vdW  Elec       q    Type
REMARK                         _______ _______ _______ _____ _____    ______ ____
ROOT
ATOM      1  C   UNL     1       3.025   6.741  18.164  0.00  0.00    +0.000 C 
ATOM      2  O   UNL     1       3.588   6.960  17.096  0.00  0.00    +0.000 OA
ATOM      3  N   UNL     1       2.405   7.772  18.890  0.00  0.00    +0.000 N 
ATOM      4  C   UNL     1       2.212   9.091  18.281  0.00  0.00    +0.000 C 
ATOM      5  C   UNL     1       0.796   9.648  18.593  0.00  0.00    +0.000 C 
ATOM      6  N   UNL     1       0.305   9.554  19.998  0.00  0.00    +0.000 NA
ATOM      7  C   UNL     1       0.679   8.248  20.590  0.00  0.00    +0.000 C 
ATOM      8  C   UNL     1       2.131   7.787  20.327  0.00  0.00    +0.000 C 
ENDROOT
BRANCH   1  15
ATOM      9  C   UNL     1       3.999   4.608  19.269  0.00  0.00    +0.000 A 
ATOM     10  C   UNL     1       3.795   3.279  19.710  0.00  0.00    +0.000 A 
ATOM     11  C   UNL     1       2.582   2.632  19.506  0.00  0.00    +0.000 A 
ATOM     12  C   UNL     1       1.578   3.296  18.824  0.00  0.00    +0.000 A 
ATOM     13  F   UNL     1       0.425   2.665  18.571  0.00  0.00    +0.000 F 
ATOM     14  C   UNL     1       1.751   4.603  18.384  0.00  0.00    +0.000 A 
ATOM     15  C   UNL     1       2.929   5.312  18.658  0.00  0.00    +0.000 A 
BRANCH   9  17
ATOM     16  C   UNL     1       6.192   4.729  18.102  0.00  0.00    +0.000 C 
ATOM     17  C   UNL     1       5.417   5.129  19.356  0.00  0.00    +0.000 C 
ENDBRANCH   9  17
ENDBRANCH   1  15
BRANCH   6  18
ATOM     18  C   UNL     1       0.758  10.663  20.859  0.00  0.00    +0.000 C 
BRANCH  18  19
ATOM     19  C   UNL     1      -0.366  11.172  21.764  0.00  0.00    +0.000 C 
ATOM     20  O   UNL     1      -0.301  10.979  22.976  0.00  0.00    +0.000 OA
ATOM     21  N   UNL     1      -1.397  11.797  21.089  0.00  0.00    +0.000 N 
ATOM     22  C   UNL     1      -2.438  12.470  21.686  0.00  0.00    +0.000 A 
ATOM     23  N   UNL     1      -3.526  12.840  21.054  0.00  0.00    +0.000 NA
ATOM     24  N   UNL     1      -4.424  13.492  21.888  0.00  0.00    +0.000 NA
ATOM     25  C   UNL     1      -3.936  13.625  23.107  0.00  0.00    +0.000 A 
ATOM     26  S   UNL     1      -2.365  12.993  23.314  0.00  0.00    +0.000 S 
ATOM     27  H   UNL     1      -1.459  11.709  20.086  0.00  0.00    +0.000 HD
ENDBRANCH  18  19
ENDBRANCH   6  18
TORSDOF 4
ENDMDL
MODEL 8
REMARK VINA RESULT:      -7.1      3.179      4.173
REMARK  Name = 
REMARK  5 active torsions:
REMARK  status: ('A' for Active; 'I' for Inactive)
REMARK    1  A    between atoms: C_1  and  C_2
REMARK    2  A    between atoms: C_2  and  C_3
REMARK    3  A    between atoms: C_9  and  C_10
REMARK    4  A    between atoms: N_15  and  C_16
REMARK    5  A    between atoms: C_16  and  C_17
REMARK                            x       y       z     vdW  Elec       q    Type
REMARK                         _______ _______ _______ _____ _____    ______ ____
ROOT
ATOM      1  C   UNL     1       3.720   4.673  18.592  0.00  0.00    +0.000 C 
ATOM      2  O   UNL     1       3.539   3.744  19.373  0.00  0.00    +0.000 OA
ATOM      3  N   UNL     1       2.916   5.826  18.625  0.00  0.00    +0.000 N 
ATOM      4  C   UNL     1       1.992   6.049  19.740  0.00  0.00    +0.000 C 
ATOM      5  C   UNL     1       2.041   7.526  20.218  0.00  0.00    +0.000 C 
ATOM      6  N   UNL     1       2.003   8.596  19.180  0.00  0.00    +0.000 NA
ATOM      7  C   UNL     1       2.843   8.217  18.018  0.00  0.00    +0.000 C 
ATOM      8  C   UNL     1       2.683   6.762  17.525  0.00  0.00    +0.000 C 
ENDROOT
BRANCH   1  15
ATOM      9  C   UNL     1       6.227   4.931  17.986  0.00  0.00    +0.000 A 
ATOM     10  C   UNL     1       7.251   4.813  17.015  0.00  0.00    +0.000 A 
ATOM     11  C   UNL     1       6.963   4.436  15.709  0.00  0.00    +0.000 A 
ATOM     12  C   UNL     1       5.645   4.211  15.354  0.00  0.00    +0.000 A 
ATOM     13  F   UNL     1       5.347   3.902  14.086  0.00  0.00    +0.000 F 
ATOM     14  C   UNL     1       4.622   4.316  16.289  0.00  0.00    +0.000 A 
ATOM     15  C   UNL     1       4.892   4.603  17.634  0.00  0.00    +0.000 A 
BRANCH   9  17
ATOM     16  C   UNL     1       8.095   5.975  19.253  0.00  0.00    +0.000 C 
ATOM     17  C   UNL     1       6.629   5.550  19.306  0.00  0.00    +0.000 C 
ENDBRANCH   9  17
ENDBRANCH   1  15
BRANCH   6  18
ATOM     18  C   UNL     1       0.640   8.948  18.742  0.00  0.00    +0.000 C 
BRANCH  18  19
ATOM     19  C   UNL     1       0.184  10.285  19.330  0.00  0.00    +0.000 C 
ATOM     20  O   UNL     1      -0.976  10.655  19.162  0.00  0.00    +0.000 OA
ATOM     21  N   UNL     1       1.178  10.980  19.991  0.00  0.00    +0.000 N 
ATOM     22  C   UNL     1       0.983  12.124  20.732  0.00  0.00    +0.000 A 
ATOM     23  N   UNL     1       1.955  12.901  21.143  0.00  0.00    +0.000 NA
ATOM     24  N   UNL     1       1.487  13.995  21.861  0.00  0.00    +0.000 NA
ATOM     25  C   UNL     1       0.175  13.953  21.996  0.00  0.00    +0.000 A 
ATOM     26  S   UNL     1      -0.567  12.590  21.288  0.00  0.00    +0.000 S 
ATOM     27  H   UNL     1       2.140  10.695  19.884  0.00  0.00    +0.000 HD
ENDBRANCH  18  19
ENDBRANCH   6  18
TORSDOF 4
ENDMDL
MODEL 9
REMARK VINA RESULT:      -7.0      1.764      1.952
REMARK  Name = 
REMARK  5 active torsions:
REMARK  status: ('A' for Active; 'I' for Inactive)
REMARK    1  A    between atoms: C_1  and  C_2
REMARK    2  A    between atoms: C_2  and  C_3
REMARK    3  A    between atoms: C_9  and  C_10
REMARK    4  A    between atoms: N_15  and  C_16
REMARK    5  A    between atoms: C_16  and  C_17
REMARK                            x       y       z     vdW  Elec       q    Type
REMARK                         _______ _______ _______ _____ _____    ______ ____
ROOT
ATOM      1  C   UNL     1       3.114   6.720  18.022  0.00  0.00    +0.000 C 
ATOM      2  O   UNL     1       3.733   6.898  16.978  0.00  0.00    +0.000 OA
ATOM      3  N   UNL     1       2.465   7.780  18.678  0.00  0.00    +0.000 N 
ATOM      4  C   UNL     1       2.314   9.077  18.014  0.00  0.00    +0.000 C 
ATOM      5  C   UNL     1       0.888   9.654  18.232  0.00  0.00    +0.000 C 
ATOM      6  N   UNL     1       0.324   9.612  19.611  0.00  0.00    +0.000 NA
ATOM      7  C   UNL     1       0.657   8.325  20.268  0.00  0.00    +0.000 C 
ATOM      8  C   UNL     1       2.116   7.847  20.097  0.00  0.00    +0.000 C 
ENDROOT
BRANCH   1  15
ATOM      9  C   UNL     1       4.018   4.615  19.233  0.00  0.00    +0.000 A 
ATOM     10  C   UNL     1       3.781   3.304  19.711  0.00  0.00    +0.000 A 
ATOM     11  C   UNL     1       2.567   2.664  19.484  0.00  0.00    +0.000 A 
ATOM     12  C   UNL     1       1.598   3.317  18.744  0.00  0.00    +0.000 A 
ATOM     13  F   UNL     1       0.446   2.692  18.469  0.00  0.00    +0.000 F 
ATOM     14  C   UNL     1       1.804   4.606  18.267  0.00  0.00    +0.000 A 
ATOM     15  C   UNL     1       2.980   5.310  18.560  0.00  0.00    +0.000 A 
BRANCH   9  17
ATOM     16  C   UNL     1       6.257   4.656  18.153  0.00  0.00    +0.000 C 
ATOM     17  C   UNL     1       5.438   5.121  19.355  0.00  0.00    +0.000 C 
ENDBRANCH   9  17
ENDBRANCH   1  15
BRANCH   6  18
ATOM     18  C   UNL     1       0.740  10.748  20.456  0.00  0.00    +0.000 C 
BRANCH  18  19
ATOM     19  C   UNL     1      -0.461  11.557  20.949  0.00  0.00    +0.000 C 
ATOM     20  O   UNL     1      -1.517  11.514  20.322  0.00  0.00    +0.000 OA
ATOM     21  N   UNL     1      -0.211  12.309  22.081  0.00  0.00    +0.000 N 
ATOM     22  C   UNL     1      -1.164  12.994  22.800  0.00  0.00    +0.000 A 
ATOM     23  N   UNL     1      -0.883  13.892  23.713  0.00  0.00    +0.000 NA
ATOM     24  N   UNL     1      -2.025  14.441  24.281  0.00  0.00    +0.000 NA
ATOM     25  C   UNL     1      -3.118  13.884  23.794  0.00  0.00    +0.000 A 
ATOM     26  S   UNL     1      -2.834  12.656  22.644  0.00  0.00    +0.000 S 
ATOM     27  H   UNL     1       0.740  12.445  22.387  0.00  0.00    +0.000 HD
ENDBRANCH  18  19
ENDBRANCH   6  18
TORSDOF 4
ENDMDL
