MODEL 1
REMARK VINA RESULT:      -7.4      0.000      0.000
REMARK  Name = 
REMARK  4 active torsions:
REMARK  status: ('A' for Active; 'I' for Inactive)
REMARK    1  A    between atoms: C_2  and  O_3
REMARK    2  A    between atoms: C_2  and  C_4
REMARK    3  A    between atoms: C_6  and  C_7
REMARK    4  A    between atoms: C_6  and  C_13
REMARK                            x       y       z     vdW  Elec       q    Type
REMARK                         _______ _______ _______ _____ _____    ______ ____
ROOT
ATOM      1  C   UNL     1       4.196   5.883  18.406  0.00  0.00    +0.000 C 
ATOM      2  F   UNL     1       4.764   6.988  17.854  0.00  0.00    +0.000 F 
ATOM      3  C   UNL     1       2.997   5.978  19.014  0.00  0.00    +0.000 C 
ENDROOT
BRANCH   3   4
ATOM      4  C   UNL     1       2.352   4.820  19.669  0.00  0.00    +0.000 A 
ATOM      5  C   UNL     1       1.465   4.012  18.943  0.00  0.00    +0.000 A 
ATOM      6  C   UNL     1       0.867   2.902  19.544  0.00  0.00    +0.000 A 
ATOM      7  C   UNL     1       1.151   2.588  20.871  0.00  0.00    +0.000 A 
ATOM      8  C   UNL     1       2.030   3.387  21.601  0.00  0.00    +0.000 A 
ATOM      9  C   UNL     1       2.630   4.500  21.004  0.00  0.00    +0.000 A 
ENDBRANCH   3   4
BRANCH   3  10
ATOM     10  C   UNL     1       2.363   7.319  18.997  0.00  0.00    +0.000 A 
ATOM     11  C   UNL     1       1.819   7.853  20.174  0.00  0.00    +0.000 A 
ATOM     12  C   UNL     1       1.181   9.094  20.157  0.00  0.00    +0.000 A 
ATOM     13  C   UNL     1       1.084   9.814  18.967  0.00  0.00    +0.000 A 
ATOM     14  C   UNL     1       1.634   9.297  17.795  0.00  0.00    +0.000 A 
ATOM     15  C   UNL     1       2.272   8.054  17.808  0.00  0.00    +0.000 A 
ENDBRANCH   3  10
BRANCH   1  17
ATOM     16  O   UNL     1       5.884   4.261  19.021  0.00  0.00    +0.000 OA
ATOM     17  C   UNL     1       5.044   4.674  18.242  0.00  0.00    +0.000 C 
BRANCH  17  18
ATOM     18  O   UNL     1       4.761   4.039  17.077  0.00  0.00    +0.000 OA
ATOM     19  H   UNL     1       3.948   4.383  16.653  0.00  0.00    +0.000 HD
ENDBRANCH  17  18
ENDBRANCH   1  17
TORSDOF 4
ENDMDL
MODEL 2
REMARK VINA RESULT:      -7.3      2.260      3.851
REMARK  Name = 
REMARK  4 active torsions:
REMARK  status: ('A' for Active; 'I' for Inactive)
REMARK    1  A    between atoms: C_2  and  O_3
REMARK    2  A    between atoms: C_2  and  C_4
REMARK    3  A    between atoms: C_6  and  C_7
REMARK    4  A    between atoms: C_6  and  C_13
REMARK                            x       y       z     vdW  Elec       q    Type
REMARK                         _______ _______ _______ _____ _____    ______ ____
ROOT
ATOM      1  C   UNL     1       2.682   4.923  17.716  0.00  0.00    +0.000 C 
ATOM      2  F   UNL     1       1.324   4.970  17.664  0.00  0.00    +0.000 F 
ATOM      3  C   UNL     1       3.372   5.986  18.176  0.00  0.00    +0.000 C 
ENDROOT
BRANCH   3   4
ATOM      4  C   UNL     1       4.850   6.008  18.214  0.00  0.00    +0.000 A 
ATOM      5  C   UNL     1       5.566   6.629  17.180  0.00  0.00    +0.000 A 
ATOM      6  C   UNL     1       6.961   6.675  17.215  0.00  0.00    +0.000 A 
ATOM      7  C   UNL     1       7.653   6.106  18.283  0.00  0.00    +0.000 A 
ATOM      8  C   UNL     1       6.949   5.484  19.314  0.00  0.00    +0.000 A 
ATOM      9  C   UNL     1       5.552   5.434  19.281  0.00  0.00    +0.000 A 
ENDBRANCH   3   4
BRANCH   3  10
ATOM     10  C   UNL     1       2.561   7.140  18.634  0.00  0.00    +0.000 A 
ATOM     11  C   UNL     1       2.241   8.172  17.740  0.00  0.00    +0.000 A 
ATOM     12  C   UNL     1       1.516   9.283  18.176  0.00  0.00    +0.000 A 
ATOM     13  C   UNL     1       1.103   9.372  19.504  0.00  0.00    +0.000 A 
ATOM     14  C   UNL     1       1.406   8.344  20.397  0.00  0.00    +0.000 A 
ATOM     15  C   UNL     1       2.133   7.231  19.964  0.00  0.00    +0.000 A 
ENDBRANCH   3  10
BRANCH   1  17
ATOM     16  O   UNL     1       4.348   3.413  16.821  0.00  0.00    +0.000 OA
ATOM     17  C   UNL     1       3.219   3.629  17.223  0.00  0.00    +0.000 C 
BRANCH  17  18
ATOM     18  O   UNL     1       2.272   2.659  17.282  0.00  0.00    +0.000 OA
ATOM     19  H   UNL     1       1.787   2.663  18.132  0.00  0.00    +0.000 HD
ENDBRANCH  17  18
ENDBRANCH   1  17
TORSDOF 4
ENDMDL
MODEL 3
REMARK VINA RESULT:      -7.3      0.121      1.366
REMARK  Name = 
REMARK  4 active torsions:
REMARK  status: ('A' for Active; 'I' for Inactive)
REMARK    1  A    between atoms: C_2  and  O_3
REMARK    2  A    between atoms: C_2  and  C_4
REMARK    3  A    between atoms: C_6  and  C_7
REMARK    4  A    between atoms: C_6  and  C_13
REMARK                            x       y       z     vdW  Elec       q    Type
REMARK                         _______ _______ _______ _____ _____    ______ ____
ROOT
ATOM      1  C   UNL     1       4.195   5.906  18.331  0.00  0.00    +0.000 C 
ATOM      2  F   UNL     1       4.756   7.027  17.805  0.00  0.00    +0.000 F 
ATOM      3  C   UNL     1       2.999   5.982  18.949  0.00  0.00    +0.000 C 
ENDROOT
BRANCH   3   4
ATOM      4  C   UNL     1       2.362   4.804  19.576  0.00  0.00    +0.000 A 
ATOM      5  C   UNL     1       2.621   4.505  20.922  0.00  0.00    +0.000 A 
ATOM      6  C   UNL     1       2.008   3.408  21.532  0.00  0.00    +0.000 A 
ATOM      7  C   UNL     1       1.130   2.605  20.807  0.00  0.00    +0.000 A 
ATOM      8  C   UNL     1       0.868   2.894  19.468  0.00  0.00    +0.000 A 
ATOM      9  C   UNL     1       1.481   3.990  18.853  0.00  0.00    +0.000 A 
ENDBRANCH   3   4
BRANCH   3  10
ATOM     10  C   UNL     1       2.361   7.320  18.971  0.00  0.00    +0.000 A 
ATOM     11  C   UNL     1       1.834   7.827  20.168  0.00  0.00    +0.000 A 
ATOM     12  C   UNL     1       1.193   9.067  20.188  0.00  0.00    +0.000 A 
ATOM     13  C   UNL     1       1.075   9.812  19.016  0.00  0.00    +0.000 A 
ATOM     14  C   UNL     1       1.608   9.323  17.824  0.00  0.00    +0.000 A 
ATOM     15  C   UNL     1       2.249   8.081  17.800  0.00  0.00    +0.000 A 
ENDBRANCH   3  10
BRANCH   1  17
ATOM     16  O   UNL     1       5.031   3.954  17.170  0.00  0.00    +0.000 OA
ATOM     17  C   UNL     1       5.045   4.704  18.130  0.00  0.00    +0.000 C 
BRANCH  17  18
ATOM     18  O   UNL     1       5.889   4.528  19.177  0.00  0.00    +0.000 OA
ATOM     19  H   UNL     1       6.279   5.371  19.487  0.00  0.00    +0.000 HD
ENDBRANCH  17  18
ENDBRANCH   1  17
TORSDOF 4
ENDMDL
MODEL 4
REMARK VINA RESULT:      -7.3      2.270      4.280
REMARK  Name = 
REMARK  4 active torsions:
REMARK  status: ('A' for Active; 'I' for Inactive)
REMARK    1  A    between atoms: C_2  and  O_3
REMARK    2  A    between atoms: C_2  and  C_4
REMARK    3  A    between atoms: C_6  and  C_7
REMARK    4  A    between atoms: C_6  and  C_13
REMARK                            x       y       z     vdW  Elec       q    Type
REMARK                         _______ _______ _______ _____ _____    ______ ____
ROOT
ATOM      1  C   UNL     1       3.388   7.032  18.140  0.00  0.00    +0.000 C 
ATOM      2  F   UNL     1       4.248   7.807  17.427  0.00  0.00    +0.000 F 
ATOM      3  C   UNL     1       3.635   5.716  18.286  0.00  0.00    +0.000 C 
ENDROOT
BRANCH   3   4
ATOM      4  C   UNL     1       2.712   4.818  19.013  0.00  0.00    +0.000 A 
ATOM      5  C   UNL     1       1.753   4.079  18.305  0.00  0.00    +0.000 A 
ATOM      6  C   UNL     1       0.890   3.211  18.978  0.00  0.00    +0.000 A 
ATOM      7  C   UNL     1       0.980   3.071  20.362  0.00  0.00    +0.000 A 
ATOM      8  C   UNL     1       1.928   3.803  21.074  0.00  0.00    +0.000 A 
ATOM      9  C   UNL     1       2.792   4.674  20.405  0.00  0.00    +0.000 A 
ENDBRANCH   3   4
BRANCH   3  10
ATOM     10  C   UNL     1       4.884   5.214  17.665  0.00  0.00    +0.000 A 
ATOM     11  C   UNL     1       6.088   5.249  18.383  0.00  0.00    +0.000 A 
ATOM     12  C   UNL     1       7.277   4.819  17.790  0.00  0.00    +0.000 A 
ATOM     13  C   UNL     1       7.274   4.350  16.477  0.00  0.00    +0.000 A 
ATOM     14  C   UNL     1       6.079   4.300  15.759  0.00  0.00    +0.000 A 
ATOM     15  C   UNL     1       4.887   4.730  16.350  0.00  0.00    +0.000 A 
ENDBRANCH   3  10
BRANCH   1  17
ATOM     16  O   UNL     1       1.911   7.917  19.842  0.00  0.00    +0.000 OA
ATOM     17  C   UNL     1       2.241   7.812  18.674  0.00  0.00    +0.000 C 
BRANCH  17  18
ATOM     18  O   UNL     1       1.571   8.435  17.672  0.00  0.00    +0.000 OA
ATOM     19  H   UNL     1       1.099   9.235  17.980  0.00  0.00    +0.000 HD
ENDBRANCH  17  18
ENDBRANCH   1  17
TORSDOF 4
ENDMDL
MODEL 5
REMARK VINA RESULT:      -7.3      0.052      1.140
REMARK  Name = 
REMARK  4 active torsions:
REMARK  status: ('A' for Active; 'I' for Inactive)
REMARK    1  A    between atoms: C_2  and  O_3
REMARK    2  A    between atoms: C_2  and  C_4
REMARK    3  A    between atoms: C_6  and  C_7
REMARK    4  A    between atoms: C_6  and  C_13
REMARK                            x       y       z     vdW  Elec       q    Type
REMARK                         _______ _______ _______ _____ _____    ______ ____
ROOT
ATOM      1  C   UNL     1       4.157   5.918  18.405  0.00  0.00    +0.000 C 
ATOM      2  F   UNL     1       4.706   7.035  17.859  0.00  0.00    +0.000 F 
ATOM      3  C   UNL     1       2.957   5.989  19.013  0.00  0.00    +0.000 C 
ENDROOT
BRANCH   3   4
ATOM      4  C   UNL     1       2.332   4.816  19.662  0.00  0.00    +0.000 A 
ATOM      5  C   UNL     1       1.474   3.986  18.926  0.00  0.00    +0.000 A 
ATOM      6  C   UNL     1       0.895   2.863  19.522  0.00  0.00    +0.000 A 
ATOM      7  C   UNL     1       1.170   2.558  20.854  0.00  0.00    +0.000 A 
ATOM      8  C   UNL     1       2.020   3.379  21.593  0.00  0.00    +0.000 A 
ATOM      9  C   UNL     1       2.599   4.505  21.001  0.00  0.00    +0.000 A 
ENDBRANCH   3   4
BRANCH   3  10
ATOM     10  C   UNL     1       2.299   7.318  19.003  0.00  0.00    +0.000 A 
ATOM     11  C   UNL     1       2.217   8.052  17.810  0.00  0.00    +0.000 A 
ATOM     12  C   UNL     1       1.639   9.323  17.802  0.00  0.00    +0.000 A 
ATOM     13  C   UNL     1       1.136   9.870  18.981  0.00  0.00    +0.000 A 
ATOM     14  C   UNL     1       1.201   9.143  20.169  0.00  0.00    +0.000 A 
ATOM     15  C   UNL     1       1.780   7.871  20.181  0.00  0.00    +0.000 A 
ENDBRANCH   3  10
BRANCH   1  17
ATOM     16  O   UNL     1       5.852   4.305  19.027  0.00  0.00    +0.000 OA
ATOM     17  C   UNL     1       5.026   4.724  18.236  0.00  0.00    +0.000 C 
BRANCH  17  18
ATOM     18  O   UNL     1       4.781   4.113  17.050  0.00  0.00    +0.000 OA
ATOM     19  H   UNL     1       5.552   3.601  16.728  0.00  0.00    +0.000 HD
ENDBRANCH  17  18
ENDBRANCH   1  17
TORSDOF 4
ENDMDL
MODEL 6
REMARK VINA RESULT:      -7.3      2.272      4.436
REMARK  Name = 
REMARK  4 active torsions:
REMARK  status: ('A' for Active; 'I' for Inactive)
REMARK    1  A    between atoms: C_2  and  O_3
REMARK    2  A    between atoms: C_2  and  C_4
REMARK    3  A    between atoms: C_6  and  C_7
REMARK    4  A    between atoms: C_6  and  C_13
REMARK                            x       y       z     vdW  Elec       q    Type
REMARK                         _______ _______ _______ _____ _____    ______ ____
ROOT
ATOM      1  C   UNL     1       3.400   7.001  18.129  0.00  0.00    +0.000 C 
ATOM      2  F   UNL     1       4.245   7.783  17.406  0.00  0.00    +0.000 F 
ATOM      3  C   UNL     1       3.651   5.683  18.257  0.00  0.00    +0.000 C 
ENDROOT
BRANCH   3   4
ATOM      4  C   UNL     1       2.744   4.777  18.995  0.00  0.00    +0.000 A 
ATOM      5  C   UNL     1       2.876   4.637  20.384  0.00  0.00    +0.000 A 
ATOM      6  C   UNL     1       2.011   3.801  21.095  0.00  0.00    +0.000 A 
ATOM      7  C   UNL     1       1.008   3.102  20.426  0.00  0.00    +0.000 A 
ATOM      8  C   UNL     1       0.871   3.234  19.044  0.00  0.00    +0.000 A 
ATOM      9  C   UNL     1       1.736   4.068  18.329  0.00  0.00    +0.000 A 
ENDBRANCH   3   4
BRANCH   3  10
ATOM     10  C   UNL     1       4.889   5.190  17.607  0.00  0.00    +0.000 A 
ATOM     11  C   UNL     1       6.110   5.235  18.295  0.00  0.00    +0.000 A 
ATOM     12  C   UNL     1       7.286   4.813  17.673  0.00  0.00    +0.000 A 
ATOM     13  C   UNL     1       7.254   4.340  16.362  0.00  0.00    +0.000 A 
ATOM     14  C   UNL     1       6.042   4.279  15.675  0.00  0.00    +0.000 A 
ATOM     15  C   UNL     1       4.863   4.702  16.294  0.00  0.00    +0.000 A 
ENDBRANCH   3  10
BRANCH   1  17
ATOM     16  O   UNL     1       1.951   7.861  19.867  0.00  0.00    +0.000 OA
ATOM     17  C   UNL     1       2.262   7.774  18.692  0.00  0.00    +0.000 C 
BRANCH  17  18
ATOM     18  O   UNL     1       1.579   8.414  17.711  0.00  0.00    +0.000 OA
ATOM     19  H   UNL     1       2.087   8.466  16.876  0.00  0.00    +0.000 HD
ENDBRANCH  17  18
ENDBRANCH   1  17
TORSDOF 4
ENDMDL
MODEL 7
REMARK VINA RESULT:      -7.3      0.071      1.612
REMARK  Name = 
REMARK  4 active torsions:
REMARK  status: ('A' for Active; 'I' for Inactive)
REMARK    1  A    between atoms: C_2  and  O_3
REMARK    2  A    between atoms: C_2  and  C_4
REMARK    3  A    between atoms: C_6  and  C_7
REMARK    4  A    between atoms: C_6  and  C_13
REMARK                            x       y       z     vdW  Elec       q    Type
REMARK                         _______ _______ _______ _____ _____    ______ ____
ROOT
ATOM      1  C   UNL     1       4.164   5.936  18.382  0.00  0.00    +0.000 C 
ATOM      2  F   UNL     1       4.705   7.058  17.838  0.00  0.00    +0.000 F 
ATOM      3  C   UNL     1       2.966   5.999  18.995  0.00  0.00    +0.000 C 
ENDROOT
BRANCH   3   4
ATOM      4  C   UNL     1       2.349   4.820  19.641  0.00  0.00    +0.000 A 
ATOM      5  C   UNL     1       2.633   4.532  20.984  0.00  0.00    +0.000 A 
ATOM      6  C   UNL     1       2.040   3.434  21.612  0.00  0.00    +0.000 A 
ATOM      7  C   UNL     1       1.158   2.618  20.907  0.00  0.00    +0.000 A 
ATOM      8  C   UNL     1       0.872   2.896  19.571  0.00  0.00    +0.000 A 
ATOM      9  C   UNL     1       1.465   3.992  18.938  0.00  0.00    +0.000 A 
ENDBRANCH   3   4
BRANCH   3  10
ATOM     10  C   UNL     1       2.302   7.325  18.993  0.00  0.00    +0.000 A 
ATOM     11  C   UNL     1       2.209   8.062  17.804  0.00  0.00    +0.000 A 
ATOM     12  C   UNL     1       1.625   9.330  17.803  0.00  0.00    +0.000 A 
ATOM     13  C   UNL     1       1.126   9.871  18.987  0.00  0.00    +0.000 A 
ATOM     14  C   UNL     1       1.202   9.139  20.173  0.00  0.00    +0.000 A 
ATOM     15  C   UNL     1       1.787   7.870  20.177  0.00  0.00    +0.000 A 
ENDBRANCH   3  10
BRANCH   1  17
ATOM     16  O   UNL     1       5.826   4.293  19.014  0.00  0.00    +0.000 OA
ATOM     17  C   UNL     1       5.038   4.747  18.203  0.00  0.00    +0.000 C 
BRANCH  17  18
ATOM     18  O   UNL     1       4.847   4.186  16.983  0.00  0.00    +0.000 OA
ATOM     19  H   UNL     1       5.478   4.523  16.315  0.00  0.00    +0.000 HD
ENDBRANCH  17  18
ENDBRANCH   1  17
TORSDOF 4
ENDMDL
MODEL 8
REMARK VINA RESULT:      -7.3      2.312      4.402
REMARK  Name = 
REMARK  4 active torsions:
REMARK  status: ('A' for Active; 'I' for Inactive)
REMARK    1  A    between atoms: C_2  and  O_3
REMARK    2  A    between atoms: C_2  and  C_4
REMARK    3  A    between atoms: C_6  and  C_7
REMARK    4  A    between atoms: C_6  and  C_13
REMARK                            x       y       z     vdW  Elec       q    Type
REMARK                         _______ _______ _______ _____ _____    ______ ____
ROOT
ATOM      1  C   UNL     1       3.388   7.151  18.104  0.00  0.00    +0.000 C 
ATOM      2  F   UNL     1       4.268   7.952  17.448  0.00  0.00    +0.000 F 
ATOM      3  C   UNL     1       3.643   5.833  18.225  0.00  0.00    +0.000 C 
ENDROOT
BRANCH   3   4
ATOM      4  C   UNL     1       2.701   4.907  18.891  0.00  0.00    +0.000 A 
ATOM      5  C   UNL     1       1.783   4.175  18.124  0.00  0.00    +0.000 A 
ATOM      6  C   UNL     1       0.903   3.281  18.738  0.00  0.00    +0.000 A 
ATOM      7  C   UNL     1       0.934   3.108  20.120  0.00  0.00    +0.000 A 
ATOM      8  C   UNL     1       1.842   3.833  20.891  0.00  0.00    +0.000 A 
ATOM      9  C   UNL     1       2.723   4.731  20.280  0.00  0.00    +0.000 A 
ENDBRANCH   3   4
BRANCH   3  10
ATOM     10  C   UNL     1       4.922   5.360  17.643  0.00  0.00    +0.000 A 
ATOM     11  C   UNL     1       4.959   4.876  16.328  0.00  0.00    +0.000 A 
ATOM     12  C   UNL     1       6.150   4.389  15.788  0.00  0.00    +0.000 A 
ATOM     13  C   UNL     1       7.315   4.383  16.554  0.00  0.00    +0.000 A 
ATOM     14  C   UNL     1       7.291   4.875  17.859  0.00  0.00    +0.000 A 
ATOM     15  C   UNL     1       6.100   5.363  18.402  0.00  0.00    +0.000 A 
ENDBRANCH   3  10
BRANCH   1  17
ATOM     16  O   UNL     1       1.859   8.011  19.772  0.00  0.00    +0.000 OA
ATOM     17  C   UNL     1       2.212   7.904  18.611  0.00  0.00    +0.000 C 
BRANCH  17  18
ATOM     18  O   UNL     1       1.545   8.502  17.592  0.00  0.00    +0.000 OA
ATOM     19  H   UNL     1       1.796   9.442  17.483  0.00  0.00    +0.000 HD
ENDBRANCH  17  18
ENDBRANCH   1  17
TORSDOF 4
ENDMDL
MODEL 9
REMARK VINA RESULT:      -7.3      2.523      5.110
REMARK  Name = 
REMARK  4 active torsions:
REMARK  status: ('A' for Active; 'I' for Inactive)
REMARK    1  A    between atoms: C_2  and  O_3
REMARK    2  A    between atoms: C_2  and  C_4
REMARK    3  A    between atoms: C_6  and  C_7
REMARK    4  A    between atoms: C_6  and  C_13
REMARK                            x       y       z     vdW  Elec       q    Type
REMARK                         _______ _______ _______ _____ _____    ______ ____
ROOT
ATOM      1  C   UNL     1       4.439   4.153  16.735  0.00  0.00    +0.000 C 
ATOM      2  F   UNL     1       3.313   3.402  16.616  0.00  0.00    +0.000 F 
ATOM      3  C   UNL     1       4.664   4.848  17.867  0.00  0.00    +0.000 C 
ENDROOT
BRANCH   3   4
ATOM      4  C   UNL     1       5.850   5.716  18.036  0.00  0.00    +0.000 A 
ATOM      5  C   UNL     1       6.847   5.364  18.957  0.00  0.00    +0.000 A 
ATOM      6  C   UNL     1       7.982   6.164  19.109  0.00  0.00    +0.000 A 
ATOM      7  C   UNL     1       8.132   7.318  18.343  0.00  0.00    +0.000 A 
ATOM      8  C   UNL     1       7.144   7.677  17.427  0.00  0.00    +0.000 A 
ATOM      9  C   UNL     1       6.006   6.881  17.273  0.00  0.00    +0.000 A 
ENDBRANCH   3   4
BRANCH   3  10
ATOM     10  C   UNL     1       3.646   4.701  18.935  0.00  0.00    +0.000 A 
ATOM     11  C   UNL     1       2.762   5.754  19.213  0.00  0.00    +0.000 A 
ATOM     12  C   UNL     1       1.830   5.640  20.246  0.00  0.00    +0.000 A 
ATOM     13  C   UNL     1       1.770   4.474  21.008  0.00  0.00    +0.000 A 
ATOM     14  C   UNL     1       2.636   3.416  20.730  0.00  0.00    +0.000 A 
ATOM     15  C   UNL     1       3.571   3.528  19.698  0.00  0.00    +0.000 A 
ENDBRANCH   3  10
BRANCH   1  17
ATOM     16  O   UNL     1       5.227   4.806  14.541  0.00  0.00    +0.000 OA
ATOM     17  C   UNL     1       5.293   4.084  15.521  0.00  0.00    +0.000 C 
BRANCH  17  18
ATOM     18  O   UNL     1       6.207   3.087  15.628  0.00  0.00    +0.000 OA
ATOM     19  H   UNL     1       6.024   2.347  15.014  0.00  0.00    +0.000 HD
ENDBRANCH  17  18
ENDBRANCH   1  17
TORSDOF 4
ENDMDL
