MODEL 1
REMARK VINA RESULT:      -7.2      0.000      0.000
REMARK  Name = 
REMARK  5 active torsions:
REMARK  status: ('A' for Active; 'I' for Inactive)
REMARK    1  A    between atoms: C_1  and  C_2
REMARK    2  A    between atoms: C_2  and  C_3
REMARK    3  A    between atoms: C_2  and  C_4
REMARK    4  A    between atoms: C_4  and  C_5
REMARK    5  A    between atoms: C_4  and  C_14
REMARK                            x       y       z     vdW  Elec       q    Type
REMARK                         _______ _______ _______ _____ _____    ______ ____
ROOT
ATOM      1  C   UNL     1       5.909   6.164  17.242  0.00  0.00    +0.000 C 
ENDROOT
BRANCH   1   2
ATOM      2  C   UNL     1       4.525   5.936  17.867  0.00  0.00    +0.000 C 
ATOM      3  O   UNL     1       3.555   6.612  17.539  0.00  0.00    +0.000 OA
ATOM      4  N   UNL     1       4.479   4.930  18.822  0.00  0.00    +0.000 N 
ATOM      5  C   UNL     1       3.369   4.397  19.423  0.00  0.00    +0.000 C 
ATOM      6  N   UNL     1       3.495   3.725  20.511  0.00  0.00    +0.000 NA
ATOM      7  C   UNL     1       2.269   3.325  21.007  0.00  0.00    +0.000 C 
ATOM      8  O   UNL     1       2.141   2.677  22.040  0.00  0.00    +0.000 OA
ATOM      9  C   UNL     1       1.074   3.795  20.206  0.00  0.00    +0.000 C 
ATOM     10  S   UNL     1       1.788   4.559  18.741  0.00  0.00    +0.000 S 
ATOM     11  H   UNL     1       5.345   4.642  19.256  0.00  0.00    +0.000 HD
ENDBRANCH   1   2
BRANCH   1  12
ATOM     12  C   UNL     1       6.042   5.374  15.940  0.00  0.00    +0.000 A 
ATOM     13  C   UNL     1       5.124   4.358  15.629  0.00  0.00    +0.000 A 
ATOM     14  C   UNL     1       5.232   3.640  14.433  0.00  0.00    +0.000 A 
ATOM     15  C   UNL     1       6.261   3.926  13.536  0.00  0.00    +0.000 A 
ATOM     16 CL   UNL     1       6.392   3.039  12.070  0.00  0.00    +0.000 Cl
ATOM     17  C   UNL     1       7.185   4.928  13.826  0.00  0.00    +0.000 A 
ATOM     18  C   UNL     1       7.069   5.649  15.017  0.00  0.00    +0.000 A 
ENDBRANCH   1  12
BRANCH   1  20
ATOM     19  C   UNL     1       7.970   6.946  18.526  0.00  0.00    +0.000 C 
ATOM     20  C   UNL     1       6.983   5.788  18.306  0.00  0.00    +0.000 C 
ATOM     21  C   UNL     1       7.777   4.534  17.932  0.00  0.00    +0.000 C 
ENDBRANCH   1  20
TORSDOF 3
ENDMDL
MODEL 2
REMARK VINA RESULT:      -7.2      0.041      1.081
REMARK  Name = 
REMARK  5 active torsions:
REMARK  status: ('A' for Active; 'I' for Inactive)
REMARK    1  A    between atoms: C_1  and  C_2
REMARK    2  A    between atoms: C_2  and  C_3
REMARK    3  A    between atoms: C_2  and  C_4
REMARK    4  A    between atoms: C_4  and  C_5
REMARK    5  A    between atoms: C_4  and  C_14
REMARK                            x       y       z     vdW  Elec       q    Type
REMARK                         _______ _______ _______ _____ _____    ______ ____
ROOT
ATOM      1  C   UNL     1       5.905   6.134  17.263  0.00  0.00    +0.000 C 
ENDROOT
BRANCH   1   2
ATOM      2  C   UNL     1       4.518   5.915  17.886  0.00  0.00    +0.000 C 
ATOM      3  O   UNL     1       3.555   6.602  17.559  0.00  0.00    +0.000 OA
ATOM      4  N   UNL     1       4.462   4.906  18.836  0.00  0.00    +0.000 N 
ATOM      5  C   UNL     1       3.347   4.380  19.434  0.00  0.00    +0.000 C 
ATOM      6  N   UNL     1       3.466   3.703  20.520  0.00  0.00    +0.000 NA
ATOM      7  C   UNL     1       2.235   3.313  21.013  0.00  0.00    +0.000 C 
ATOM      8  O   UNL     1       2.101   2.662  22.043  0.00  0.00    +0.000 OA
ATOM      9  C   UNL     1       1.045   3.796  20.212  0.00  0.00    +0.000 C 
ATOM     10  S   UNL     1       1.768   4.559  18.751  0.00  0.00    +0.000 S 
ATOM     11  H   UNL     1       5.325   4.609  19.270  0.00  0.00    +0.000 HD
ENDBRANCH   1   2
BRANCH   1  12
ATOM     12  C   UNL     1       6.026   5.363  15.947  0.00  0.00    +0.000 A 
ATOM     13  C   UNL     1       7.066   5.652  15.050  0.00  0.00    +0.000 A 
ATOM     14  C   UNL     1       7.191   4.941  13.851  0.00  0.00    +0.000 A 
ATOM     15  C   UNL     1       6.275   3.938  13.534  0.00  0.00    +0.000 A 
ATOM     16 CL   UNL     1       6.430   3.071  12.058  0.00  0.00    +0.000 Cl
ATOM     17  C   UNL     1       5.233   3.638  14.409  0.00  0.00    +0.000 A 
ATOM     18  C   UNL     1       5.117   4.343  15.609  0.00  0.00    +0.000 A 
ENDBRANCH   1  12
BRANCH   1  20
ATOM     19  C   UNL     1       7.950   6.879  18.594  0.00  0.00    +0.000 C 
ATOM     20  C   UNL     1       6.974   5.724  18.319  0.00  0.00    +0.000 C 
ATOM     21  C   UNL     1       7.782   4.492  17.902  0.00  0.00    +0.000 C 
ENDBRANCH   1  20
TORSDOF 3
ENDMDL
MODEL 3
REMARK VINA RESULT:      -7.1      2.432      3.930
REMARK  Name = 
REMARK  5 active torsions:
REMARK  status: ('A' for Active; 'I' for Inactive)
REMARK    1  A    between atoms: C_1  and  C_2
REMARK    2  A    between atoms: C_2  and  C_3
REMARK    3  A    between atoms: C_2  and  C_4
REMARK    4  A    between atoms: C_4  and  C_5
REMARK    5  A    between atoms: C_4  and  C_14
REMARK                            x       y       z     vdW  Elec       q    Type
REMARK                         _______ _______ _______ _____ _____    ______ ____
ROOT
ATOM      1  C   UNL     1       5.995   4.899  17.168  0.00  0.00    +0.000 C 
ENDROOT
BRANCH   1   2
ATOM      2  C   UNL     1       4.597   4.937  17.802  0.00  0.00    +0.000 C 
ATOM      3  O   UNL     1       3.754   5.753  17.442  0.00  0.00    +0.000 OA
ATOM      4  N   UNL     1       4.388   3.997  18.801  0.00  0.00    +0.000 N 
ATOM      5  C   UNL     1       3.208   3.687  19.425  0.00  0.00    +0.000 C 
ATOM      6  N   UNL     1       3.226   3.054  20.543  0.00  0.00    +0.000 NA
ATOM      7  C   UNL     1       1.953   2.890  21.055  0.00  0.00    +0.000 C 
ATOM      8  O   UNL     1       1.724   2.321  22.116  0.00  0.00    +0.000 OA
ATOM      9  C   UNL     1       0.849   3.520  20.232  0.00  0.00    +0.000 C 
ATOM     10  S   UNL     1       1.672   4.085  18.735  0.00  0.00    +0.000 S 
ATOM     11  H   UNL     1       5.195   3.587  19.249  0.00  0.00    +0.000 HD
ENDBRANCH   1   2
BRANCH   1  12
ATOM     12  C   UNL     1       6.828   6.090  17.643  0.00  0.00    +0.000 A 
ATOM     13  C   UNL     1       6.707   7.337  17.010  0.00  0.00    +0.000 A 
ATOM     14  C   UNL     1       7.456   8.435  17.449  0.00  0.00    +0.000 A 
ATOM     15  C   UNL     1       8.337   8.298  18.522  0.00  0.00    +0.000 A 
ATOM     16 CL   UNL     1       9.257   9.647  19.054  0.00  0.00    +0.000 Cl
ATOM     17  C   UNL     1       8.475   7.067  19.162  0.00  0.00    +0.000 A 
ATOM     18  C   UNL     1       7.719   5.976  18.727  0.00  0.00    +0.000 A 
ENDBRANCH   1  12
BRANCH   1  20
ATOM     19  C   UNL     1       5.020   3.603  15.198  0.00  0.00    +0.000 C 
ATOM     20  C   UNL     1       5.819   4.846  15.621  0.00  0.00    +0.000 C 
ATOM     21  C   UNL     1       7.152   4.848  14.869  0.00  0.00    +0.000 C 
ENDBRANCH   1  20
TORSDOF 3
ENDMDL
MODEL 4
REMARK VINA RESULT:      -7.1      2.426      3.896
REMARK  Name = 
REMARK  5 active torsions:
REMARK  status: ('A' for Active; 'I' for Inactive)
REMARK    1  A    between atoms: C_1  and  C_2
REMARK    2  A    between atoms: C_2  and  C_3
REMARK    3  A    between atoms: C_2  and  C_4
REMARK    4  A    between atoms: C_4  and  C_5
REMARK    5  A    between atoms: C_4  and  C_14
REMARK                            x       y       z     vdW  Elec       q    Type
REMARK                         _______ _______ _______ _____ _____    ______ ____
ROOT
ATOM      1  C   UNL     1       5.976   4.833  17.174  0.00  0.00    +0.000 C 
ENDROOT
BRANCH   1   2
ATOM      2  C   UNL     1       4.568   4.863  17.786  0.00  0.00    +0.000 C 
ATOM      3  O   UNL     1       3.712   5.646  17.385  0.00  0.00    +0.000 OA
ATOM      4  N   UNL     1       4.364   3.955  18.816  0.00  0.00    +0.000 N 
ATOM      5  C   UNL     1       3.182   3.642  19.434  0.00  0.00    +0.000 C 
ATOM      6  N   UNL     1       3.197   3.050  20.574  0.00  0.00    +0.000 NA
ATOM      7  C   UNL     1       1.920   2.876  21.075  0.00  0.00    +0.000 C 
ATOM      8  O   UNL     1       1.689   2.340  22.152  0.00  0.00    +0.000 OA
ATOM      9  C   UNL     1       0.816   3.450  20.213  0.00  0.00    +0.000 C 
ATOM     10  S   UNL     1       1.648   3.980  18.709  0.00  0.00    +0.000 S 
ATOM     11  H   UNL     1       5.174   3.580  19.290  0.00  0.00    +0.000 HD
ENDBRANCH   1   2
BRANCH   1  12
ATOM     12  C   UNL     1       6.787   6.042  17.644  0.00  0.00    +0.000 A 
ATOM     13  C   UNL     1       7.711   5.910  18.693  0.00  0.00    +0.000 A 
ATOM     14  C   UNL     1       8.467   7.009  19.119  0.00  0.00    +0.000 A 
ATOM     15  C   UNL     1       8.304   8.250  18.504  0.00  0.00    +0.000 A 
ATOM     16 CL   UNL     1       9.231   9.597  19.034  0.00  0.00    +0.000 Cl
ATOM     17  C   UNL     1       7.389   8.403  17.465  0.00  0.00    +0.000 A 
ATOM     18  C   UNL     1       6.643   7.302  17.036  0.00  0.00    +0.000 A 
ENDBRANCH   1  12
BRANCH   1  20
ATOM     19  C   UNL     1       5.130   3.451  15.203  0.00  0.00    +0.000 C 
ATOM     20  C   UNL     1       5.823   4.756  15.626  0.00  0.00    +0.000 C 
ATOM     21  C   UNL     1       7.162   4.858  14.890  0.00  0.00    +0.000 C 
ENDBRANCH   1  20
TORSDOF 3
ENDMDL
MODEL 5
REMARK VINA RESULT:      -7.0      3.993      5.236
REMARK  Name = 
REMARK  5 active torsions:
REMARK  status: ('A' for Active; 'I' for Inactive)
REMARK    1  A    between atoms: C_1  and  C_2
REMARK    2  A    between atoms: C_2  and  C_3
REMARK    3  A    between atoms: C_2  and  C_4
REMARK    4  A    between atoms: C_4  and  C_5
REMARK    5  A    between atoms: C_4  and  C_14
REMARK                            x       y       z     vdW  Elec       q    Type
REMARK                         _______ _______ _______ _____ _____    ______ ____
ROOT
ATOM      1  C   UNL     1       2.791   5.542  19.761  0.00  0.00    +0.000 C 
ENDROOT
BRANCH   1   2
ATOM      2  C   UNL     1       2.332   7.008  19.762  0.00  0.00    +0.000 C 
ATOM      3  O   UNL     1       2.587   7.758  18.824  0.00  0.00    +0.000 OA
ATOM      4  N   UNL     1       1.635   7.397  20.897  0.00  0.00    +0.000 N 
ATOM      5  C   UNL     1       0.970   8.576  21.107  0.00  0.00    +0.000 C 
ATOM      6  N   UNL     1       0.665   8.930  22.304  0.00  0.00    +0.000 NA
ATOM      7  C   UNL     1       0.062  10.173  22.330  0.00  0.00    +0.000 C 
ATOM      8  O   UNL     1      -0.310  10.719  23.362  0.00  0.00    +0.000 OA
ATOM      9  C   UNL     1      -0.060  10.849  20.980  0.00  0.00    +0.000 C 
ATOM     10  S   UNL     1       0.481   9.601  19.802  0.00  0.00    +0.000 S 
ATOM     11  H   UNL     1       1.735   6.840  21.734  0.00  0.00    +0.000 HD
ENDBRANCH   1   2
BRANCH   1  12
ATOM     12  C   UNL     1       3.928   5.340  18.760  0.00  0.00    +0.000 A 
ATOM     13  C   UNL     1       3.767   5.720  17.418  0.00  0.00    +0.000 A 
ATOM     14  C   UNL     1       4.809   5.551  16.499  0.00  0.00    +0.000 A 
ATOM     15  C   UNL     1       6.021   4.997  16.910  0.00  0.00    +0.000 A 
ATOM     16 CL   UNL     1       7.296   4.787  15.777  0.00  0.00    +0.000 Cl
ATOM     17  C   UNL     1       6.201   4.609  18.236  0.00  0.00    +0.000 A 
ATOM     18  C   UNL     1       5.162   4.788  19.153  0.00  0.00    +0.000 A 
ENDBRANCH   1  12
BRANCH   1  20
ATOM     19  C   UNL     1       1.204   3.768  20.681  0.00  0.00    +0.000 C 
ATOM     20  C   UNL     1       1.546   4.651  19.471  0.00  0.00    +0.000 C 
ATOM     21  C   UNL     1       1.731   3.751  18.246  0.00  0.00    +0.000 C 
ENDBRANCH   1  20
TORSDOF 3
ENDMDL
MODEL 6
REMARK VINA RESULT:      -7.0      4.066      5.315
REMARK  Name = 
REMARK  5 active torsions:
REMARK  status: ('A' for Active; 'I' for Inactive)
REMARK    1  A    between atoms: C_1  and  C_2
REMARK    2  A    between atoms: C_2  and  C_3
REMARK    3  A    between atoms: C_2  and  C_4
REMARK    4  A    between atoms: C_4  and  C_5
REMARK    5  A    between atoms: C_4  and  C_14
REMARK                            x       y       z     vdW  Elec       q    Type
REMARK                         _______ _______ _______ _____ _____    ______ ____
ROOT
ATOM      1  C   UNL     1       2.763   5.666  19.836  0.00  0.00    +0.000 C 
ENDROOT
BRANCH   1   2
ATOM      2  C   UNL     1       2.265   7.118  19.809  0.00  0.00    +0.000 C 
ATOM      3  O   UNL     1       2.481   7.850  18.848  0.00  0.00    +0.000 OA
ATOM      4  N   UNL     1       1.580   7.518  20.947  0.00  0.00    +0.000 N 
ATOM      5  C   UNL     1       0.888   8.684  21.142  0.00  0.00    +0.000 C 
ATOM      6  N   UNL     1       0.598   9.060  22.335  0.00  0.00    +0.000 NA
ATOM      7  C   UNL     1      -0.038  10.288  22.341  0.00  0.00    +0.000 C 
ATOM      8  O   UNL     1      -0.403  10.850  23.368  0.00  0.00    +0.000 OA
ATOM      9  C   UNL     1      -0.205  10.925  20.978  0.00  0.00    +0.000 C 
ATOM     10  S   UNL     1       0.346   9.662  19.822  0.00  0.00    +0.000 S 
ATOM     11  H   UNL     1       1.712   6.986  21.796  0.00  0.00    +0.000 HD
ENDBRANCH   1   2
BRANCH   1  12
ATOM     12  C   UNL     1       3.885   5.468  18.816  0.00  0.00    +0.000 A 
ATOM     13  C   UNL     1       5.056   4.781  19.176  0.00  0.00    +0.000 A 
ATOM     14  C   UNL     1       6.082   4.584  18.244  0.00  0.00    +0.000 A 
ATOM     15  C   UNL     1       5.950   5.074  16.945  0.00  0.00    +0.000 A 
ATOM     16 CL   UNL     1       7.214   4.834  15.806  0.00  0.00    +0.000 Cl
ATOM     17  C   UNL     1       4.798   5.762  16.568  0.00  0.00    +0.000 A 
ATOM     18  C   UNL     1       3.772   5.949  17.498  0.00  0.00    +0.000 A 
ENDBRANCH   1  12
BRANCH   1  20
ATOM     19  C   UNL     1       1.361   3.740  20.751  0.00  0.00    +0.000 C 
ATOM     20  C   UNL     1       1.537   4.735  19.593  0.00  0.00    +0.000 C 
ATOM     21  C   UNL     1       1.637   3.948  18.284  0.00  0.00    +0.000 C 
ENDBRANCH   1  20
TORSDOF 3
ENDMDL
MODEL 7
REMARK VINA RESULT:      -6.8      1.669      1.837
REMARK  Name = 
REMARK  5 active torsions:
REMARK  status: ('A' for Active; 'I' for Inactive)
REMARK    1  A    between atoms: C_1  and  C_2
REMARK    2  A    between atoms: C_2  and  C_3
REMARK    3  A    between atoms: C_2  and  C_4
REMARK    4  A    between atoms: C_4  and  C_5
REMARK    5  A    between atoms: C_4  and  C_14
REMARK                            x       y       z     vdW  Elec       q    Type
REMARK                         _______ _______ _______ _____ _____    ______ ____
ROOT
ATOM      1  C   UNL     1       5.605   6.236  17.702  0.00  0.00    +0.000 C 
ENDROOT
BRANCH   1   2
ATOM      2  C   UNL     1       4.745   5.437  18.692  0.00  0.00    +0.000 C 
ATOM      3  O   UNL     1       5.041   5.363  19.881  0.00  0.00    +0.000 OA
ATOM      4  N   UNL     1       3.641   4.813  18.130  0.00  0.00    +0.000 N 
ATOM      5  C   UNL     1       2.617   4.177  18.781  0.00  0.00    +0.000 C 
ATOM      6  N   UNL     1       1.857   3.368  18.134  0.00  0.00    +0.000 NA
ATOM      7  C   UNL     1       0.927   2.769  18.964  0.00  0.00    +0.000 C 
ATOM      8  O   UNL     1       0.100   1.956  18.569  0.00  0.00    +0.000 OA
ATOM      9  C   UNL     1       1.038   3.153  20.424  0.00  0.00    +0.000 C 
ATOM     10  S   UNL     1       2.278   4.457  20.454  0.00  0.00    +0.000 S 
ATOM     11  H   UNL     1       3.637   4.658  17.131  0.00  0.00    +0.000 HD
ENDBRANCH   1   2
BRANCH   1  12
ATOM     12  C   UNL     1       5.728   5.484  16.376  0.00  0.00    +0.000 A 
ATOM     13  C   UNL     1       5.377   6.112  15.170  0.00  0.00    +0.000 A 
ATOM     14  C   UNL     1       5.501   5.434  13.952  0.00  0.00    +0.000 A 
ATOM     15  C   UNL     1       5.973   4.122  13.926  0.00  0.00    +0.000 A 
ATOM     16 CL   UNL     1       6.118   3.293  12.428  0.00  0.00    +0.000 Cl
ATOM     17  C   UNL     1       6.323   3.479  15.111  0.00  0.00    +0.000 A 
ATOM     18  C   UNL     1       6.207   4.162  16.325  0.00  0.00    +0.000 A 
ENDBRANCH   1  12
BRANCH   1  20
ATOM     19  C   UNL     1       7.749   7.617  17.629  0.00  0.00    +0.000 C 
ATOM     20  C   UNL     1       6.978   6.521  18.381  0.00  0.00    +0.000 C 
ATOM     21  C   UNL     1       7.865   5.276  18.475  0.00  0.00    +0.000 C 
ENDBRANCH   1  20
TORSDOF 3
ENDMDL
MODEL 8
REMARK VINA RESULT:      -6.8      1.670      1.748
REMARK  Name = 
REMARK  5 active torsions:
REMARK  status: ('A' for Active; 'I' for Inactive)
REMARK    1  A    between atoms: C_1  and  C_2
REMARK    2  A    between atoms: C_2  and  C_3
REMARK    3  A    between atoms: C_2  and  C_4
REMARK    4  A    between atoms: C_4  and  C_5
REMARK    5  A    between atoms: C_4  and  C_14
REMARK                            x       y       z     vdW  Elec       q    Type
REMARK                         _______ _______ _______ _____ _____    ______ ____
ROOT
ATOM      1  C   UNL     1       5.623   6.238  17.701  0.00  0.00    +0.000 C 
ENDROOT
BRANCH   1   2
ATOM      2  C   UNL     1       4.765   5.434  18.688  0.00  0.00    +0.000 C 
ATOM      3  O   UNL     1       5.063   5.350  19.876  0.00  0.00    +0.000 OA
ATOM      4  N   UNL     1       3.658   4.815  18.123  0.00  0.00    +0.000 N 
ATOM      5  C   UNL     1       2.635   4.176  18.772  0.00  0.00    +0.000 C 
ATOM      6  N   UNL     1       1.871   3.374  18.121  0.00  0.00    +0.000 NA
ATOM      7  C   UNL     1       0.943   2.771  18.949  0.00  0.00    +0.000 C 
ATOM      8  O   UNL     1       0.113   1.961  18.550  0.00  0.00    +0.000 OA
ATOM      9  C   UNL     1       1.057   3.143  20.412  0.00  0.00    +0.000 C 
ATOM     10  S   UNL     1       2.300   4.444  20.448  0.00  0.00    +0.000 S 
ATOM     11  H   UNL     1       3.651   4.668  17.124  0.00  0.00    +0.000 HD
ENDBRANCH   1   2
BRANCH   1  12
ATOM     12  C   UNL     1       5.746   5.494  16.371  0.00  0.00    +0.000 A 
ATOM     13  C   UNL     1       6.208   4.168  16.341  0.00  0.00    +0.000 A 
ATOM     14  C   UNL     1       6.310   3.476  15.129  0.00  0.00    +0.000 A 
ATOM     15  C   UNL     1       5.955   4.102  13.934  0.00  0.00    +0.000 A 
ATOM     16 CL   UNL     1       6.086   3.250  12.448  0.00  0.00    +0.000 Cl
ATOM     17  C   UNL     1       5.498   5.418  13.941  0.00  0.00    +0.000 A 
ATOM     18  C   UNL     1       5.389   6.103  15.154  0.00  0.00    +0.000 A 
ENDBRANCH   1  12
BRANCH   1  20
ATOM     19  C   UNL     1       7.757   7.636  17.647  0.00  0.00    +0.000 C 
ATOM     20  C   UNL     1       6.996   6.520  18.381  0.00  0.00    +0.000 C 
ATOM     21  C   UNL     1       7.893   5.281  18.449  0.00  0.00    +0.000 C 
ENDBRANCH   1  20
TORSDOF 3
ENDMDL
MODEL 9
REMARK VINA RESULT:      -6.7      4.605      6.082
REMARK  Name = 
REMARK  5 active torsions:
REMARK  status: ('A' for Active; 'I' for Inactive)
REMARK    1  A    between atoms: C_1  and  C_2
REMARK    2  A    between atoms: C_2  and  C_3
REMARK    3  A    between atoms: C_2  and  C_4
REMARK    4  A    between atoms: C_4  and  C_5
REMARK    5  A    between atoms: C_4  and  C_14
REMARK                            x       y       z     vdW  Elec       q    Type
REMARK                         _______ _______ _______ _____ _____    ______ ____
ROOT
ATOM      1  C   UNL     1       2.908   6.544  17.748  0.00  0.00    +0.000 C 
ENDROOT
BRANCH   1   2
ATOM      2  C   UNL     1       2.365   7.931  18.122  0.00  0.00    +0.000 C 
ATOM      3  O   UNL     1       2.393   8.865  17.325  0.00  0.00    +0.000 OA
ATOM      4  N   UNL     1       1.867   8.031  19.413  0.00  0.00    +0.000 N 
ATOM      5  C   UNL     1       1.178   9.078  19.966  0.00  0.00    +0.000 C 
ATOM      6  N   UNL     1       1.078   9.171  21.244  0.00  0.00    +0.000 NA
ATOM      7  C   UNL     1       0.412  10.322  21.620  0.00  0.00    +0.000 C 
ATOM      8  O   UNL     1       0.204  10.625  22.789  0.00  0.00    +0.000 OA
ATOM      9  C   UNL     1      -0.001  11.222  20.475  0.00  0.00    +0.000 C 
ATOM     10  S   UNL     1       0.391  10.275  18.996  0.00  0.00    +0.000 S 
ATOM     11  H   UNL     1       2.156   7.340  20.091  0.00  0.00    +0.000 HD
ENDBRANCH   1   2
BRANCH   1  12
ATOM     12  C   UNL     1       2.457   5.502  18.773  0.00  0.00    +0.000 A 
ATOM     13  C   UNL     1       1.718   4.381  18.364  0.00  0.00    +0.000 A 
ATOM     14  C   UNL     1       1.314   3.416  19.294  0.00  0.00    +0.000 A 
ATOM     15  C   UNL     1       1.642   3.563  20.642  0.00  0.00    +0.000 A 
ATOM     16 CL   UNL     1       1.140   2.378  21.780  0.00  0.00    +0.000 Cl
ATOM     17  C   UNL     1       2.372   4.670  21.069  0.00  0.00    +0.000 A 
ATOM     18  C   UNL     1       2.782   5.627  20.137  0.00  0.00    +0.000 A 
ENDBRANCH   1  12
BRANCH   1  20
ATOM     19  C   UNL     1       4.886   6.726  16.146  0.00  0.00    +0.000 C 
ATOM     20  C   UNL     1       4.457   6.655  17.620  0.00  0.00    +0.000 C 
ATOM     21  C   UNL     1       5.195   5.491  18.288  0.00  0.00    +0.000 C 
ENDBRANCH   1  20
TORSDOF 3
ENDMDL
