MODEL 1
REMARK VINA RESULT:      -7.4      0.000      0.000
REMARK  Name = 
REMARK  12 active torsions:
REMARK  status: ('A' for Active; 'I' for Inactive)
REMARK    1  A    between atoms: C_1  and  C_2
REMARK    2  A    between atoms: C_2  and  C_3
REMARK    3  A    between atoms: C_3  and  C_4
REMARK    4  A    between atoms: C_3  and  N_13
REMARK    5  A    between atoms: N_6  and  C_7
REMARK    6  A    between atoms: C_7  and  C_8
REMARK    7  A    between atoms: N_13  and  C_27
REMARK    8  A    between atoms: C_14  and  C_16
REMARK    9  A    between atoms: C_16  and  N_17
REMARK   10  A    between atoms: N_17  and  S_18
REMARK   11  A    between atoms: S_18  and  C_21
REMARK   12  A    between atoms: C_32  and  C_33
REMARK                            x       y       z     vdW  Elec       q    Type
REMARK                         _______ _______ _______ _____ _____    ______ ____
ROOT
ATOM      1  N   UNL     1       0.163  11.227  18.771  0.00  0.00    +0.000 N 
ATOM      2  C   UNL     1       0.706  12.509  18.531  0.00  0.00    +0.000 C 
ATOM      3  O   UNL     1       0.070  13.431  18.013  0.00  0.00    +0.000 OA
ENDROOT
BRANCH   1   4
ATOM      4  C   UNL     1      -1.218  10.990  18.413  0.00  0.00    +0.000 A 
ATOM      5  C   UNL     1      -1.497  10.154  17.320  0.00  0.00    +0.000 A 
ATOM      6  C   UNL     1      -2.793   9.979  16.833  0.00  0.00    +0.000 A 
ATOM      7  C   UNL     1      -3.852  10.622  17.451  0.00  0.00    +0.000 A 
ATOM      8  C   UNL     1      -3.611  11.414  18.571  0.00  0.00    +0.000 A 
ATOM      9  C   UNL     1      -2.304  11.606  19.076  0.00  0.00    +0.000 A 
ATOM     10  C   UNL     1      -2.164  12.505  20.273  0.00  0.00    +0.000 C 
ENDBRANCH   1   4
BRANCH   1  11
ATOM     11  C   UNL     1       0.857  10.169  19.593  0.00  0.00    +0.000 C 
BRANCH  11  12
ATOM     12  C   UNL     1       1.658   9.160  18.734  0.00  0.00    +0.000 C 
ATOM     13  O   UNL     1       1.965   9.377  17.565  0.00  0.00    +0.000 OA
ATOM     14  N   UNL     1       2.006   7.989  19.376  0.00  0.00    +0.000 N 
ATOM     15  H   UNL     1       1.631   7.774  20.286  0.00  0.00    +0.000 HD
BRANCH  14  16
ATOM     16  C   UNL     1       2.625   6.906  18.639  0.00  0.00    +0.000 C 
BRANCH  16  17
ATOM     17  C   UNL     1       2.092   5.607  19.121  0.00  0.00    +0.000 A 
ATOM     18  C   UNL     1       1.751   4.427  18.486  0.00  0.00    +0.000 A 
ATOM     19  C   UNL     1       1.328   3.532  19.497  0.00  0.00    +0.000 A 
ATOM     20  C   UNL     1       1.429   4.221  20.684  0.00  0.00    +0.000 A 
ATOM     21  O   UNL     1       1.881   5.483  20.467  0.00  0.00    +0.000 OA
ENDBRANCH  16  17
ENDBRANCH  14  16
ENDBRANCH  11  12
BRANCH  11  23
ATOM     22  C   UNL     1      -0.045   9.944  21.998  0.00  0.00    +0.000 C 
ATOM     23  C   UNL     1      -0.080   9.406  20.567  0.00  0.00    +0.000 C 
ENDBRANCH  11  23
ENDBRANCH   1  11
BRANCH   2  24
ATOM     24  C   UNL     1       2.164  12.738  18.949  0.00  0.00    +0.000 C 
BRANCH  24  25
ATOM     25  N   UNL     1       2.969  13.462  17.951  0.00  0.00    +0.000 NA
ATOM     26  H   UNL     1       2.589  13.533  17.005  0.00  0.00    +0.000 HD
BRANCH  25  27
ATOM     27  S   UNL     1       3.760  14.852  18.463  0.00  0.00    +0.000 S 
ATOM     28  O   UNL     1       3.889  14.757  19.898  0.00  0.00    +0.000 OA
ATOM     29  O   UNL     1       4.911  15.044  17.606  0.00  0.00    +0.000 OA
BRANCH  27  30
ATOM     30  C   UNL     1       2.578  16.132  18.117  0.00  0.00    +0.000 A 
ATOM     31  C   UNL     1       1.565  16.394  19.045  0.00  0.00    +0.000 A 
ATOM     32  C   UNL     1       0.665  17.434  18.804  0.00  0.00    +0.000 A 
ATOM     33  C   UNL     1       0.782  18.207  17.648  0.00  0.00    +0.000 A 
ATOM     34  C   UNL     1       1.801  17.948  16.731  0.00  0.00    +0.000 A 
ATOM     35  C   UNL     1       2.706  16.912  16.963  0.00  0.00    +0.000 A 
ENDBRANCH  27  30
ENDBRANCH  25  27
ENDBRANCH  24  25
ENDBRANCH   2  24
TORSDOF 10
ENDMDL
MODEL 2
REMARK VINA RESULT:      -7.3      4.626      9.365
REMARK  Name = 
REMARK  12 active torsions:
REMARK  status: ('A' for Active; 'I' for Inactive)
REMARK    1  A    between atoms: C_1  and  C_2
REMARK    2  A    between atoms: C_2  and  C_3
REMARK    3  A    between atoms: C_3  and  C_4
REMARK    4  A    between atoms: C_3  and  N_13
REMARK    5  A    between atoms: N_6  and  C_7
REMARK    6  A    between atoms: C_7  and  C_8
REMARK    7  A    between atoms: N_13  and  C_27
REMARK    8  A    between atoms: C_14  and  C_16
REMARK    9  A    between atoms: C_16  and  N_17
REMARK   10  A    between atoms: N_17  and  S_18
REMARK   11  A    between atoms: S_18  and  C_21
REMARK   12  A    between atoms: C_32  and  C_33
REMARK                            x       y       z     vdW  Elec       q    Type
REMARK                         _______ _______ _______ _____ _____    ______ ____
ROOT
ATOM      1  N   UNL     1       3.258   5.673  19.306  0.00  0.00    +0.000 N 
ATOM      2  C   UNL     1       4.383   5.271  18.553  0.00  0.00    +0.000 C 
ATOM      3  O   UNL     1       4.735   4.094  18.431  0.00  0.00    +0.000 OA
ENDROOT
BRANCH   1   4
ATOM      4  C   UNL     1       2.462   4.651  19.949  0.00  0.00    +0.000 A 
ATOM      5  C   UNL     1       2.678   4.385  21.310  0.00  0.00    +0.000 A 
ATOM      6  C   UNL     1       2.044   3.330  21.968  0.00  0.00    +0.000 A 
ATOM      7  C   UNL     1       1.153   2.525  21.279  0.00  0.00    +0.000 A 
ATOM      8  C   UNL     1       0.880   2.800  19.941  0.00  0.00    +0.000 A 
ATOM      9  C   UNL     1       1.514   3.862  19.258  0.00  0.00    +0.000 A 
ATOM     10  C   UNL     1       1.161   4.044  17.807  0.00  0.00    +0.000 C 
ENDBRANCH   1   4
BRANCH   1  11
ATOM     11  C   UNL     1       2.699   7.074  19.285  0.00  0.00    +0.000 C 
BRANCH  11  12
ATOM     12  C   UNL     1       1.719   7.357  20.450  0.00  0.00    +0.000 C 
ATOM     13  O   UNL     1       0.684   6.718  20.619  0.00  0.00    +0.000 OA
ATOM     14  N   UNL     1       2.091   8.382  21.295  0.00  0.00    +0.000 N 
ATOM     15  H   UNL     1       2.870   8.977  21.063  0.00  0.00    +0.000 HD
BRANCH  14  16
ATOM     16  C   UNL     1       1.190   8.839  22.333  0.00  0.00    +0.000 C 
BRANCH  16  17
ATOM     17  C   UNL     1       0.591  10.139  21.936  0.00  0.00    +0.000 A 
ATOM     18  C   UNL     1       0.628  10.883  20.771  0.00  0.00    +0.000 A 
ATOM     19  C   UNL     1      -0.172  12.028  20.999  0.00  0.00    +0.000 A 
ATOM     20  C   UNL     1      -0.642  11.916  22.286  0.00  0.00    +0.000 A 
ATOM     21  O   UNL     1      -0.177  10.780  22.868  0.00  0.00    +0.000 OA
ENDBRANCH  16  17
ENDBRANCH  14  16
ENDBRANCH  11  12
BRANCH  11  23
ATOM     22  C   UNL     1       1.640   8.949  17.866  0.00  0.00    +0.000 C 
ATOM     23  C   UNL     1       2.042   7.475  17.936  0.00  0.00    +0.000 C 
ENDBRANCH  11  23
ENDBRANCH   1  11
BRANCH   2  24
ATOM     24  C   UNL     1       5.189   6.376  17.860  0.00  0.00    +0.000 C 
BRANCH  24  25
ATOM     25  N   UNL     1       5.507   6.096  16.450  0.00  0.00    +0.000 NA
ATOM     26  H   UNL     1       5.166   6.761  15.752  0.00  0.00    +0.000 HD
BRANCH  25  27
ATOM     27  S   UNL     1       7.038   5.494  16.111  0.00  0.00    +0.000 S 
ATOM     28  O   UNL     1       7.933   6.627  16.065  0.00  0.00    +0.000 OA
ATOM     29  O   UNL     1       7.275   4.372  16.995  0.00  0.00    +0.000 OA
BRANCH  27  30
ATOM     30  C   UNL     1       6.867   4.883  14.452  0.00  0.00    +0.000 A 
ATOM     31  C   UNL     1       7.730   5.356  13.459  0.00  0.00    +0.000 A 
ATOM     32  C   UNL     1       7.636   4.841  12.164  0.00  0.00    +0.000 A 
ATOM     33  C   UNL     1       6.691   3.856  11.870  0.00  0.00    +0.000 A 
ATOM     34  C   UNL     1       5.840   3.379  12.868  0.00  0.00    +0.000 A 
ATOM     35  C   UNL     1       5.927   3.889  14.165  0.00  0.00    +0.000 A 
ENDBRANCH  27  30
ENDBRANCH  25  27
ENDBRANCH  24  25
ENDBRANCH   2  24
TORSDOF 10
ENDMDL
MODEL 3
REMARK VINA RESULT:      -7.2      1.973      2.754
REMARK  Name = 
REMARK  12 active torsions:
REMARK  status: ('A' for Active; 'I' for Inactive)
REMARK    1  A    between atoms: C_1  and  C_2
REMARK    2  A    between atoms: C_2  and  C_3
REMARK    3  A    between atoms: C_3  and  C_4
REMARK    4  A    between atoms: C_3  and  N_13
REMARK    5  A    between atoms: N_6  and  C_7
REMARK    6  A    between atoms: C_7  and  C_8
REMARK    7  A    between atoms: N_13  and  C_27
REMARK    8  A    between atoms: C_14  and  C_16
REMARK    9  A    between atoms: C_16  and  N_17
REMARK   10  A    between atoms: N_17  and  S_18
REMARK   11  A    between atoms: S_18  and  C_21
REMARK   12  A    between atoms: C_32  and  C_33
REMARK                            x       y       z     vdW  Elec       q    Type
REMARK                         _______ _______ _______ _____ _____    ______ ____
ROOT
ATOM      1  N   UNL     1       0.140  11.254  18.775  0.00  0.00    +0.000 N 
ATOM      2  C   UNL     1       0.686  12.528  18.506  0.00  0.00    +0.000 C 
ATOM      3  O   UNL     1       0.050  13.442  17.974  0.00  0.00    +0.000 OA
ENDROOT
BRANCH   1   4
ATOM      4  C   UNL     1      -1.244  11.014  18.432  0.00  0.00    +0.000 A 
ATOM      5  C   UNL     1      -1.534  10.182  17.340  0.00  0.00    +0.000 A 
ATOM      6  C   UNL     1      -2.835  10.005  16.867  0.00  0.00    +0.000 A 
ATOM      7  C   UNL     1      -3.888  10.645  17.499  0.00  0.00    +0.000 A 
ATOM      8  C   UNL     1      -3.636  11.434  18.618  0.00  0.00    +0.000 A 
ATOM      9  C   UNL     1      -2.325  11.626  19.109  0.00  0.00    +0.000 A 
ATOM     10  C   UNL     1      -2.172  12.523  20.307  0.00  0.00    +0.000 C 
ENDBRANCH   1   4
BRANCH   1  11
ATOM     11  C   UNL     1       0.836  10.209  19.614  0.00  0.00    +0.000 C 
BRANCH  11  12
ATOM     12  C   UNL     1       1.608   9.167  18.768  0.00  0.00    +0.000 C 
ATOM     13  O   UNL     1       1.839   9.319  17.571  0.00  0.00    +0.000 OA
ATOM     14  N   UNL     1       2.024   8.045  19.455  0.00  0.00    +0.000 N 
ATOM     15  H   UNL     1       1.710   7.878  20.397  0.00  0.00    +0.000 HD
BRANCH  14  16
ATOM     16  C   UNL     1       2.624   6.933  18.747  0.00  0.00    +0.000 C 
BRANCH  16  17
ATOM     17  C   UNL     1       2.084   5.655  19.277  0.00  0.00    +0.000 A 
ATOM     18  C   UNL     1       1.732   5.228  20.544  0.00  0.00    +0.000 A 
ATOM     19  C   UNL     1       1.248   3.906  20.404  0.00  0.00    +0.000 A 
ATOM     20  C   UNL     1       1.341   3.605  19.065  0.00  0.00    +0.000 A 
ATOM     21  O   UNL     1       1.857   4.653  18.374  0.00  0.00    +0.000 OA
ENDBRANCH  16  17
ENDBRANCH  14  16
ENDBRANCH  11  12
BRANCH  11  23
ATOM     22  C   UNL     1       0.109   9.935  22.072  0.00  0.00    +0.000 C 
ATOM     23  C   UNL     1      -0.092   9.484  20.624  0.00  0.00    +0.000 C 
ENDBRANCH  11  23
ENDBRANCH   1  11
BRANCH   2  24
ATOM     24  C   UNL     1       2.148  12.759  18.908  0.00  0.00    +0.000 C 
BRANCH  24  25
ATOM     25  N   UNL     1       2.951  13.453  17.888  0.00  0.00    +0.000 NA
ATOM     26  H   UNL     1       2.714  13.281  16.909  0.00  0.00    +0.000 HD
BRANCH  25  27
ATOM     27  S   UNL     1       3.384  15.045  18.201  0.00  0.00    +0.000 S 
ATOM     28  O   UNL     1       3.377  15.739  16.935  0.00  0.00    +0.000 OA
ATOM     29  O   UNL     1       2.593  15.503  19.324  0.00  0.00    +0.000 OA
BRANCH  27  30
ATOM     30  C   UNL     1       5.076  14.903  18.722  0.00  0.00    +0.000 A 
ATOM     31  C   UNL     1       6.060  14.612  17.772  0.00  0.00    +0.000 A 
ATOM     32  C   UNL     1       7.398  14.550  18.166  0.00  0.00    +0.000 A 
ATOM     33  C   UNL     1       7.748  14.784  19.496  0.00  0.00    +0.000 A 
ATOM     34  C   UNL     1       6.763  15.084  20.439  0.00  0.00    +0.000 A 
ATOM     35  C   UNL     1       5.423  15.148  20.054  0.00  0.00    +0.000 A 
ENDBRANCH  27  30
ENDBRANCH  25  27
ENDBRANCH  24  25
ENDBRANCH   2  24
TORSDOF 10
ENDMDL
MODEL 4
REMARK VINA RESULT:      -7.2      4.454      9.346
REMARK  Name = 
REMARK  12 active torsions:
REMARK  status: ('A' for Active; 'I' for Inactive)
REMARK    1  A    between atoms: C_1  and  C_2
REMARK    2  A    between atoms: C_2  and  C_3
REMARK    3  A    between atoms: C_3  and  C_4
REMARK    4  A    between atoms: C_3  and  N_13
REMARK    5  A    between atoms: N_6  and  C_7
REMARK    6  A    between atoms: C_7  and  C_8
REMARK    7  A    between atoms: N_13  and  C_27
REMARK    8  A    between atoms: C_14  and  C_16
REMARK    9  A    between atoms: C_16  and  N_17
REMARK   10  A    between atoms: N_17  and  S_18
REMARK   11  A    between atoms: S_18  and  C_21
REMARK   12  A    between atoms: C_32  and  C_33
REMARK                            x       y       z     vdW  Elec       q    Type
REMARK                         _______ _______ _______ _____ _____    ______ ____
ROOT
ATOM      1  N   UNL     1       3.403   5.427  19.528  0.00  0.00    +0.000 N 
ATOM      2  C   UNL     1       4.611   4.999  18.936  0.00  0.00    +0.000 C 
ATOM      3  O   UNL     1       4.973   3.819  18.903  0.00  0.00    +0.000 OA
ENDROOT
BRANCH   1   4
ATOM      4  C   UNL     1       2.531   4.428  20.106  0.00  0.00    +0.000 A 
ATOM      5  C   UNL     1       2.651   4.139  21.475  0.00  0.00    +0.000 A 
ATOM      6  C   UNL     1       1.939   3.102  22.078  0.00  0.00    +0.000 A 
ATOM      7  C   UNL     1       1.064   2.339  21.323  0.00  0.00    +0.000 A 
ATOM      8  C   UNL     1       0.886   2.638  19.974  0.00  0.00    +0.000 A 
ATOM      9  C   UNL     1       1.600   3.682  19.346  0.00  0.00    +0.000 A 
ATOM     10  C   UNL     1       1.346   3.894  17.879  0.00  0.00    +0.000 C 
ENDBRANCH   1   4
BRANCH   1  11
ATOM     11  C   UNL     1       2.853   6.825  19.384  0.00  0.00    +0.000 C 
BRANCH  11  12
ATOM     12  C   UNL     1       1.777   7.168  20.443  0.00  0.00    +0.000 C 
ATOM     13  O   UNL     1       0.782   6.472  20.629  0.00  0.00    +0.000 OA
ATOM     14  N   UNL     1       2.011   8.317  21.169  0.00  0.00    +0.000 N 
ATOM     15  H   UNL     1       2.759   8.941  20.910  0.00  0.00    +0.000 HD
BRANCH  14  16
ATOM     16  C   UNL     1       1.008   8.824  22.083  0.00  0.00    +0.000 C 
BRANCH  16  17
ATOM     17  C   UNL     1       0.253   9.925  21.433  0.00  0.00    +0.000 A 
ATOM     18  C   UNL     1      -0.052  11.219  21.814  0.00  0.00    +0.000 A 
ATOM     19  C   UNL     1      -0.779  11.793  20.745  0.00  0.00    +0.000 A 
ATOM     20  C   UNL     1      -0.879  10.816  19.782  0.00  0.00    +0.000 A 
ATOM     21  O   UNL     1      -0.266   9.675  20.193  0.00  0.00    +0.000 OA
ENDBRANCH  16  17
ENDBRANCH  14  16
ENDBRANCH  11  12
BRANCH  11  23
ATOM     22  C   UNL     1       2.139   8.651  17.710  0.00  0.00    +0.000 C 
ATOM     23  C   UNL     1       2.319   7.154  17.964  0.00  0.00    +0.000 C 
ENDBRANCH  11  23
ENDBRANCH   1  11
BRANCH   2  24
ATOM     24  C   UNL     1       5.499   6.079  18.306  0.00  0.00    +0.000 C 
BRANCH  24  25
ATOM     25  N   UNL     1       5.705   5.919  16.857  0.00  0.00    +0.000 NA
ATOM     26  H   UNL     1       5.220   6.574  16.240  0.00  0.00    +0.000 HD
BRANCH  25  27
ATOM     27  S   UNL     1       7.256   5.534  16.338  0.00  0.00    +0.000 S 
ATOM     28  O   UNL     1       7.968   6.781  16.181  0.00  0.00    +0.000 OA
ATOM     29  O   UNL     1       7.754   4.475  17.191  0.00  0.00    +0.000 OA
BRANCH  27  30
ATOM     30  C   UNL     1       6.979   4.869  14.715  0.00  0.00    +0.000 A 
ATOM     31  C   UNL     1       5.907   3.995  14.509  0.00  0.00    +0.000 A 
ATOM     32  C   UNL     1       5.653   3.510  13.225  0.00  0.00    +0.000 A 
ATOM     33  C   UNL     1       6.460   3.903  12.156  0.00  0.00    +0.000 A 
ATOM     34  C   UNL     1       7.522   4.784  12.365  0.00  0.00    +0.000 A 
ATOM     35  C   UNL     1       7.783   5.274  13.645  0.00  0.00    +0.000 A 
ENDBRANCH  27  30
ENDBRANCH  25  27
ENDBRANCH  24  25
ENDBRANCH   2  24
TORSDOF 10
ENDMDL
MODEL 5
REMARK VINA RESULT:      -7.0      1.506      1.928
REMARK  Name = 
REMARK  12 active torsions:
REMARK  status: ('A' for Active; 'I' for Inactive)
REMARK    1  A    between atoms: C_1  and  C_2
REMARK    2  A    between atoms: C_2  and  C_3
REMARK    3  A    between atoms: C_3  and  C_4
REMARK    4  A    between atoms: C_3  and  N_13
REMARK    5  A    between atoms: N_6  and  C_7
REMARK    6  A    between atoms: C_7  and  C_8
REMARK    7  A    between atoms: N_13  and  C_27
REMARK    8  A    between atoms: C_14  and  C_16
REMARK    9  A    between atoms: C_16  and  N_17
REMARK   10  A    between atoms: N_17  and  S_18
REMARK   11  A    between atoms: S_18  and  C_21
REMARK   12  A    between atoms: C_32  and  C_33
REMARK                            x       y       z     vdW  Elec       q    Type
REMARK                         _______ _______ _______ _____ _____    ______ ____
ROOT
ATOM      1  N   UNL     1       0.059  11.151  18.981  0.00  0.00    +0.000 N 
ATOM      2  C   UNL     1       0.615  12.438  18.812  0.00  0.00    +0.000 C 
ATOM      3  O   UNL     1       0.028  13.363  18.243  0.00  0.00    +0.000 OA
ENDROOT
BRANCH   1   4
ATOM      4  C   UNL     1      -1.275  10.909  18.481  0.00  0.00    +0.000 A 
ATOM      5  C   UNL     1      -1.434  10.092  17.350  0.00  0.00    +0.000 A 
ATOM      6  C   UNL     1      -2.673   9.916  16.732  0.00  0.00    +0.000 A 
ATOM      7  C   UNL     1      -3.795  10.539  17.251  0.00  0.00    +0.000 A 
ATOM      8  C   UNL     1      -3.676  11.311  18.404  0.00  0.00    +0.000 A 
ATOM      9  C   UNL     1      -2.430  11.503  19.041  0.00  0.00    +0.000 A 
ATOM     10  C   UNL     1      -2.419  12.381  20.263  0.00  0.00    +0.000 C 
ENDBRANCH   1   4
BRANCH   1  11
ATOM     11  C   UNL     1       0.674  10.087  19.858  0.00  0.00    +0.000 C 
BRANCH  11  12
ATOM     12  C   UNL     1       1.554   9.084  19.071  0.00  0.00    +0.000 C 
ATOM     13  O   UNL     1       1.905   9.275  17.910  0.00  0.00    +0.000 OA
ATOM     14  N   UNL     1       1.920   7.952  19.768  0.00  0.00    +0.000 N 
ATOM     15  H   UNL     1       1.513   7.752  20.668  0.00  0.00    +0.000 HD
BRANCH  14  16
ATOM     16  C   UNL     1       2.617   6.872  19.098  0.00  0.00    +0.000 C 
BRANCH  16  17
ATOM     17  C   UNL     1       2.033   5.570  19.512  0.00  0.00    +0.000 A 
ATOM     18  C   UNL     1       1.602   5.068  20.726  0.00  0.00    +0.000 A 
ATOM     19  C   UNL     1       1.113   3.764  20.471  0.00  0.00    +0.000 A 
ATOM     20  C   UNL     1       1.282   3.549  19.123  0.00  0.00    +0.000 A 
ATOM     21  O   UNL     1       1.849   4.633  18.533  0.00  0.00    +0.000 OA
ENDBRANCH  16  17
ENDBRANCH  14  16
ENDBRANCH  11  12
BRANCH  11  23
ATOM     22  C   UNL     1      -0.241   9.631  22.224  0.00  0.00    +0.000 C 
ATOM     23  C   UNL     1      -0.350   9.315  20.732  0.00  0.00    +0.000 C 
ENDBRANCH  11  23
ENDBRANCH   1  11
BRANCH   2  24
ATOM     24  C   UNL     1       2.021  12.671  19.380  0.00  0.00    +0.000 C 
BRANCH  24  25
ATOM     25  N   UNL     1       2.049  12.935  20.828  0.00  0.00    +0.000 NA
ATOM     26  H   UNL     1       2.706  12.391  21.391  0.00  0.00    +0.000 HD
BRANCH  25  27
ATOM     27  S   UNL     1       1.912  14.535  21.320  0.00  0.00    +0.000 S 
ATOM     28  O   UNL     1       0.501  14.815  21.450  0.00  0.00    +0.000 OA
ATOM     29  O   UNL     1       2.832  14.737  22.420  0.00  0.00    +0.000 OA
BRANCH  27  30
ATOM     30  C   UNL     1       2.507  15.438  19.912  0.00  0.00    +0.000 A 
ATOM     31  C   UNL     1       3.848  15.310  19.537  0.00  0.00    +0.000 A 
ATOM     32  C   UNL     1       4.310  15.977  18.400  0.00  0.00    +0.000 A 
ATOM     33  C   UNL     1       3.435  16.757  17.642  0.00  0.00    +0.000 A 
ATOM     34  C   UNL     1       2.095  16.872  18.015  0.00  0.00    +0.000 A 
ATOM     35  C   UNL     1       1.625  16.210  19.150  0.00  0.00    +0.000 A 
ENDBRANCH  27  30
ENDBRANCH  25  27
ENDBRANCH  24  25
ENDBRANCH   2  24
TORSDOF 10
ENDMDL
MODEL 6
REMARK VINA RESULT:      -7.0      2.807      6.580
REMARK  Name = 
REMARK  12 active torsions:
REMARK  status: ('A' for Active; 'I' for Inactive)
REMARK    1  A    between atoms: C_1  and  C_2
REMARK    2  A    between atoms: C_2  and  C_3
REMARK    3  A    between atoms: C_3  and  C_4
REMARK    4  A    between atoms: C_3  and  N_13
REMARK    5  A    between atoms: N_6  and  C_7
REMARK    6  A    between atoms: C_7  and  C_8
REMARK    7  A    between atoms: N_13  and  C_27
REMARK    8  A    between atoms: C_14  and  C_16
REMARK    9  A    between atoms: C_16  and  N_17
REMARK   10  A    between atoms: N_17  and  S_18
REMARK   11  A    between atoms: S_18  and  C_21
REMARK   12  A    between atoms: C_32  and  C_33
REMARK                            x       y       z     vdW  Elec       q    Type
REMARK                         _______ _______ _______ _____ _____    ______ ____
ROOT
ATOM      1  N   UNL     1      -0.443  11.585  19.364  0.00  0.00    +0.000 N 
ATOM      2  C   UNL     1       0.414  12.705  19.297  0.00  0.00    +0.000 C 
ATOM      3  O   UNL     1       1.566  12.708  19.740  0.00  0.00    +0.000 OA
ENDROOT
BRANCH   1   4
ATOM      4  C   UNL     1       0.062  10.370  19.962  0.00  0.00    +0.000 A 
ATOM      5  C   UNL     1      -0.323  10.053  21.275  0.00  0.00    +0.000 A 
ATOM      6  C   UNL     1       0.221   8.970  21.965  0.00  0.00    +0.000 A 
ATOM      7  C   UNL     1       1.154   8.157  21.344  0.00  0.00    +0.000 A 
ATOM      8  C   UNL     1       1.514   8.415  20.024  0.00  0.00    +0.000 A 
ATOM      9  C   UNL     1       0.975   9.509  19.310  0.00  0.00    +0.000 A 
ATOM     10  C   UNL     1       1.461   9.706  17.900  0.00  0.00    +0.000 C 
ENDBRANCH   1   4
BRANCH   1  11
ATOM     11  C   UNL     1      -1.765  11.503  18.639  0.00  0.00    +0.000 C 
BRANCH  11  12
ATOM     12  C   UNL     1      -2.944  12.086  19.456  0.00  0.00    +0.000 C 
ATOM     13  O   UNL     1      -2.829  12.450  20.623  0.00  0.00    +0.000 OA
ATOM     14  N   UNL     1      -4.143  12.170  18.779  0.00  0.00    +0.000 N 
ATOM     15  H   UNL     1      -4.248  11.744  17.872  0.00  0.00    +0.000 HD
BRANCH  14  16
ATOM     16  C   UNL     1      -5.352  12.559  19.475  0.00  0.00    +0.000 C 
BRANCH  16  17
ATOM     17  C   UNL     1      -6.228  13.332  18.558  0.00  0.00    +0.000 A 
ATOM     18  C   UNL     1      -7.150  14.343  18.756  0.00  0.00    +0.000 A 
ATOM     19  C   UNL     1      -7.643  14.695  17.477  0.00  0.00    +0.000 A 
ATOM     20  C   UNL     1      -6.999  13.875  16.580  0.00  0.00    +0.000 A 
ATOM     21  O   UNL     1      -6.147  13.036  17.225  0.00  0.00    +0.000 OA
ENDBRANCH  16  17
ENDBRANCH  14  16
ENDBRANCH  11  12
BRANCH  11  23
ATOM     22  C   UNL     1      -2.204   9.970  16.613  0.00  0.00    +0.000 C 
ATOM     23  C   UNL     1      -2.126  10.079  18.137  0.00  0.00    +0.000 C 
ENDBRANCH  11  23
ENDBRANCH   1  11
BRANCH   2  24
ATOM     24  C   UNL     1      -0.142  13.970  18.630  0.00  0.00    +0.000 C 
BRANCH  24  25
ATOM     25  N   UNL     1      -0.931  14.827  19.530  0.00  0.00    +0.000 NA
ATOM     26  H   UNL     1      -1.515  14.362  20.227  0.00  0.00    +0.000 HD
BRANCH  25  27
ATOM     27  S   UNL     1      -0.197  16.227  20.098  0.00  0.00    +0.000 S 
ATOM     28  O   UNL     1      -1.205  16.966  20.821  0.00  0.00    +0.000 OA
ATOM     29  O   UNL     1       1.057  15.847  20.714  0.00  0.00    +0.000 OA
BRANCH  27  30
ATOM     30  C   UNL     1       0.155  17.126  18.607  0.00  0.00    +0.000 A 
ATOM     31  C   UNL     1      -0.869  17.852  17.990  0.00  0.00    +0.000 A 
ATOM     32  C   UNL     1      -0.587  18.602  16.847  0.00  0.00    +0.000 A 
ATOM     33  C   UNL     1       0.710  18.631  16.331  0.00  0.00    +0.000 A 
ATOM     34  C   UNL     1       1.730  17.913  16.957  0.00  0.00    +0.000 A 
ATOM     35  C   UNL     1       1.458  17.160  18.099  0.00  0.00    +0.000 A 
ENDBRANCH  27  30
ENDBRANCH  25  27
ENDBRANCH  24  25
ENDBRANCH   2  24
TORSDOF 10
ENDMDL
MODEL 7
REMARK VINA RESULT:      -6.9      1.762      2.324
REMARK  Name = 
REMARK  12 active torsions:
REMARK  status: ('A' for Active; 'I' for Inactive)
REMARK    1  A    between atoms: C_1  and  C_2
REMARK    2  A    between atoms: C_2  and  C_3
REMARK    3  A    between atoms: C_3  and  C_4
REMARK    4  A    between atoms: C_3  and  N_13
REMARK    5  A    between atoms: N_6  and  C_7
REMARK    6  A    between atoms: C_7  and  C_8
REMARK    7  A    between atoms: N_13  and  C_27
REMARK    8  A    between atoms: C_14  and  C_16
REMARK    9  A    between atoms: C_16  and  N_17
REMARK   10  A    between atoms: N_17  and  S_18
REMARK   11  A    between atoms: S_18  and  C_21
REMARK   12  A    between atoms: C_32  and  C_33
REMARK                            x       y       z     vdW  Elec       q    Type
REMARK                         _______ _______ _______ _____ _____    ______ ____
ROOT
ATOM      1  N   UNL     1      -0.543  11.845  19.860  0.00  0.00    +0.000 N 
ATOM      2  C   UNL     1       0.183  12.888  19.245  0.00  0.00    +0.000 C 
ATOM      3  O   UNL     1      -0.143  13.403  18.171  0.00  0.00    +0.000 OA
ENDROOT
BRANCH   1   4
ATOM      4  C   UNL     1      -1.744  11.370  19.210  0.00  0.00    +0.000 A 
ATOM      5  C   UNL     1      -1.666  10.228  18.399  0.00  0.00    +0.000 A 
ATOM      6  C   UNL     1      -2.748   9.784  17.638  0.00  0.00    +0.000 A 
ATOM      7  C   UNL     1      -3.952  10.465  17.692  0.00  0.00    +0.000 A 
ATOM      8  C   UNL     1      -4.075  11.570  18.531  0.00  0.00    +0.000 A 
ATOM      9  C   UNL     1      -2.988  12.036  19.306  0.00  0.00    +0.000 A 
ATOM     10  C   UNL     1      -3.231  13.256  20.152  0.00  0.00    +0.000 C 
ENDBRANCH   1   4
BRANCH   1  11
ATOM     11  C   UNL     1      -0.277  11.361  21.264  0.00  0.00    +0.000 C 
BRANCH  11  12
ATOM     12  C   UNL     1      -0.015   9.836  21.343  0.00  0.00    +0.000 C 
ATOM     13  O   UNL     1      -0.677   9.083  22.052  0.00  0.00    +0.000 OA
ATOM     14  N   UNL     1       1.020   9.377  20.556  0.00  0.00    +0.000 N 
ATOM     15  H   UNL     1       1.632  10.026  20.088  0.00  0.00    +0.000 HD
BRANCH  14  16
ATOM     16  C   UNL     1       1.458   8.000  20.653  0.00  0.00    +0.000 C 
BRANCH  16  17
ATOM     17  C   UNL     1       2.229   7.635  19.436  0.00  0.00    +0.000 A 
ATOM     18  C   UNL     1       2.447   8.269  18.227  0.00  0.00    +0.000 A 
ATOM     19  C   UNL     1       3.301   7.426  17.478  0.00  0.00    +0.000 A 
ATOM     20  C   UNL     1       3.546   6.329  18.271  0.00  0.00    +0.000 A 
ATOM     21  O   UNL     1       2.893   6.439  19.456  0.00  0.00    +0.000 OA
ENDBRANCH  16  17
ENDBRANCH  14  16
ENDBRANCH  11  12
BRANCH  11  23
ATOM     22  C   UNL     1      -1.071  13.068  23.025  0.00  0.00    +0.000 C 
ATOM     23  C   UNL     1      -1.371  11.761  22.291  0.00  0.00    +0.000 C 
ENDBRANCH  11  23
ENDBRANCH   1  11
BRANCH   2  24
ATOM     24  C   UNL     1       1.436  13.389  19.973  0.00  0.00    +0.000 C 
BRANCH  24  25
ATOM     25  N   UNL     1       1.472  14.847  20.177  0.00  0.00    +0.000 NA
ATOM     26  H   UNL     1       1.443  15.186  21.140  0.00  0.00    +0.000 HD
BRANCH  25  27
ATOM     27  S   UNL     1       2.494  15.737  19.184  0.00  0.00    +0.000 S 
ATOM     28  O   UNL     1       3.282  16.587  20.047  0.00  0.00    +0.000 OA
ATOM     29  O   UNL     1       3.111  14.818  18.252  0.00  0.00    +0.000 OA
BRANCH  27  30
ATOM     30  C   UNL     1       1.370  16.782  18.290  0.00  0.00    +0.000 A 
ATOM     31  C   UNL     1       0.022  16.810  18.662  0.00  0.00    +0.000 A 
ATOM     32  C   UNL     1      -0.856  17.667  17.997  0.00  0.00    +0.000 A 
ATOM     33  C   UNL     1      -0.388  18.494  16.974  0.00  0.00    +0.000 A 
ATOM     34  C   UNL     1       0.961  18.470  16.614  0.00  0.00    +0.000 A 
ATOM     35  C   UNL     1       1.846  17.615  17.273  0.00  0.00    +0.000 A 
ENDBRANCH  27  30
ENDBRANCH  25  27
ENDBRANCH  24  25
ENDBRANCH   2  24
TORSDOF 10
ENDMDL
MODEL 8
REMARK VINA RESULT:      -6.8      4.381      7.947
REMARK  Name = 
REMARK  12 active torsions:
REMARK  status: ('A' for Active; 'I' for Inactive)
REMARK    1  A    between atoms: C_1  and  C_2
REMARK    2  A    between atoms: C_2  and  C_3
REMARK    3  A    between atoms: C_3  and  C_4
REMARK    4  A    between atoms: C_3  and  N_13
REMARK    5  A    between atoms: N_6  and  C_7
REMARK    6  A    between atoms: C_7  and  C_8
REMARK    7  A    between atoms: N_13  and  C_27
REMARK    8  A    between atoms: C_14  and  C_16
REMARK    9  A    between atoms: C_16  and  N_17
REMARK   10  A    between atoms: N_17  and  S_18
REMARK   11  A    between atoms: S_18  and  C_21
REMARK   12  A    between atoms: C_32  and  C_33
REMARK                            x       y       z     vdW  Elec       q    Type
REMARK                         _______ _______ _______ _____ _____    ______ ____
ROOT
ATOM      1  N   UNL     1       3.795   5.801  17.469  0.00  0.00    +0.000 N 
ATOM      2  C   UNL     1       2.809   6.661  17.998  0.00  0.00    +0.000 C 
ATOM      3  O   UNL     1       1.897   6.279  18.737  0.00  0.00    +0.000 OA
ENDROOT
BRANCH   1   4
ATOM      4  C   UNL     1       3.750   4.402  17.831  0.00  0.00    +0.000 A 
ATOM      5  C   UNL     1       2.964   3.531  17.059  0.00  0.00    +0.000 A 
ATOM      6  C   UNL     1       2.766   2.197  17.419  0.00  0.00    +0.000 A 
ATOM      7  C   UNL     1       3.375   1.694  18.555  0.00  0.00    +0.000 A 
ATOM      8  C   UNL     1       4.204   2.521  19.310  0.00  0.00    +0.000 A 
ATOM      9  C   UNL     1       4.413   3.875  18.963  0.00  0.00    +0.000 A 
ATOM     10  C   UNL     1       5.306   4.678  19.869  0.00  0.00    +0.000 C 
ENDBRANCH   1   4
BRANCH   1  11
ATOM     11  C   UNL     1       5.027   6.290  16.747  0.00  0.00    +0.000 C 
BRANCH  11  12
ATOM     12  C   UNL     1       5.841   5.148  16.090  0.00  0.00    +0.000 C 
ATOM     13  O   UNL     1       6.533   4.367  16.737  0.00  0.00    +0.000 OA
ATOM     14  N   UNL     1       5.735   5.065  14.718  0.00  0.00    +0.000 N 
ATOM     15  H   UNL     1       5.273   5.793  14.196  0.00  0.00    +0.000 HD
BRANCH  14  16
ATOM     16  C   UNL     1       6.561   4.137  13.973  0.00  0.00    +0.000 C 
BRANCH  16  17
ATOM     17  C   UNL     1       5.770   3.545  12.864  0.00  0.00    +0.000 A 
ATOM     18  C   UNL     1       4.551   3.863  12.295  0.00  0.00    +0.000 A 
ATOM     19  C   UNL     1       4.344   2.938  11.243  0.00  0.00    +0.000 A 
ATOM     20  C   UNL     1       5.443   2.111  11.240  0.00  0.00    +0.000 A 
ATOM     21  O   UNL     1       6.309   2.462  12.225  0.00  0.00    +0.000 OA
ENDBRANCH  16  17
ENDBRANCH  14  16
ENDBRANCH  11  12
BRANCH  11  23
ATOM     22  C   UNL     1       7.417   7.172  17.140  0.00  0.00    +0.000 C 
ATOM     23  C   UNL     1       5.964   7.171  17.616  0.00  0.00    +0.000 C 
ENDBRANCH  11  23
ENDBRANCH   1  11
BRANCH   2  24
ATOM     24  C   UNL     1       2.902   8.145  17.619  0.00  0.00    +0.000 C 
BRANCH  24  25
ATOM     25  N   UNL     1       1.598   8.822  17.510  0.00  0.00    +0.000 NA
ATOM     26  H   UNL     1       0.792   8.247  17.255  0.00  0.00    +0.000 HD
BRANCH  25  27
ATOM     27  S   UNL     1       1.246  10.000  18.653  0.00  0.00    +0.000 S 
ATOM     28  O   UNL     1       1.291   9.358  19.946  0.00  0.00    +0.000 OA
ATOM     29  O   UNL     1       2.057  11.161  18.351  0.00  0.00    +0.000 OA
BRANCH  27  30
ATOM     30  C   UNL     1      -0.452  10.392  18.311  0.00  0.00    +0.000 A 
ATOM     31  C   UNL     1      -1.136   9.664  17.333  0.00  0.00    +0.000 A 
ATOM     32  C   UNL     1      -2.486   9.931  17.095  0.00  0.00    +0.000 A 
ATOM     33  C   UNL     1      -3.146  10.914  17.836  0.00  0.00    +0.000 A 
ATOM     34  C   UNL     1      -2.461  11.630  18.819  0.00  0.00    +0.000 A 
ATOM     35  C   UNL     1      -1.112  11.370  19.063  0.00  0.00    +0.000 A 
ENDBRANCH  27  30
ENDBRANCH  25  27
ENDBRANCH  24  25
ENDBRANCH   2  24
TORSDOF 10
ENDMDL
MODEL 9
REMARK VINA RESULT:      -6.7      6.780     10.431
REMARK  Name = 
REMARK  12 active torsions:
REMARK  status: ('A' for Active; 'I' for Inactive)
REMARK    1  A    between atoms: C_1  and  C_2
REMARK    2  A    between atoms: C_2  and  C_3
REMARK    3  A    between atoms: C_3  and  C_4
REMARK    4  A    between atoms: C_3  and  N_13
REMARK    5  A    between atoms: N_6  and  C_7
REMARK    6  A    between atoms: C_7  and  C_8
REMARK    7  A    between atoms: N_13  and  C_27
REMARK    8  A    between atoms: C_14  and  C_16
REMARK    9  A    between atoms: C_16  and  N_17
REMARK   10  A    between atoms: N_17  and  S_18
REMARK   11  A    between atoms: S_18  and  C_21
REMARK   12  A    between atoms: C_32  and  C_33
REMARK                            x       y       z     vdW  Elec       q    Type
REMARK                         _______ _______ _______ _____ _____    ______ ____
ROOT
ATOM      1  N   UNL     1       3.965   3.846  18.568  0.00  0.00    +0.000 N 
ATOM      2  C   UNL     1       4.266   2.843  17.620  0.00  0.00    +0.000 C 
ATOM      3  O   UNL     1       3.720   1.736  17.604  0.00  0.00    +0.000 OA
ENDROOT
BRANCH   1   4
ATOM      4  C   UNL     1       2.948   3.571  19.557  0.00  0.00    +0.000 A 
ATOM      5  C   UNL     1       3.347   3.190  20.848  0.00  0.00    +0.000 A 
ATOM      6  C   UNL     1       2.429   2.785  21.818  0.00  0.00    +0.000 A 
ATOM      7  C   UNL     1       1.077   2.774  21.523  0.00  0.00    +0.000 A 
ATOM      8  C   UNL     1       0.648   3.198  20.267  0.00  0.00    +0.000 A 
ATOM      9  C   UNL     1       1.563   3.609  19.272  0.00  0.00    +0.000 A 
ATOM     10  C   UNL     1       0.985   4.019  17.945  0.00  0.00    +0.000 C 
ENDBRANCH   1   4
BRANCH   1  11
ATOM     11  C   UNL     1       4.466   5.266  18.465  0.00  0.00    +0.000 C 
BRANCH  11  12
ATOM     12  C   UNL     1       5.933   5.429  18.934  0.00  0.00    +0.000 C 
ATOM     13  O   UNL     1       6.402   4.806  19.883  0.00  0.00    +0.000 OA
ATOM     14  N   UNL     1       6.685   6.330  18.208  0.00  0.00    +0.000 N 
ATOM     15  H   UNL     1       6.247   6.926  17.524  0.00  0.00    +0.000 HD
BRANCH  14  16
ATOM     16  C   UNL     1       8.023   6.680  18.637  0.00  0.00    +0.000 C 
BRANCH  16  17
ATOM     17  C   UNL     1       8.248   8.134  18.429  0.00  0.00    +0.000 A 
ATOM     18  C   UNL     1       9.028   9.074  19.076  0.00  0.00    +0.000 A 
ATOM     19  C   UNL     1       8.842  10.296  18.386  0.00  0.00    +0.000 A 
ATOM     20  C   UNL     1       7.957  10.028  17.367  0.00  0.00    +0.000 A 
ATOM     21  O   UNL     1       7.582   8.723  17.390  0.00  0.00    +0.000 OA
ENDBRANCH  16  17
ENDBRANCH  14  16
ENDBRANCH  11  12
BRANCH  11  23
ATOM     22  C   UNL     1       2.777   7.198  18.217  0.00  0.00    +0.000 C 
ATOM     23  C   UNL     1       3.566   6.310  19.180  0.00  0.00    +0.000 C 
ENDBRANCH  11  23
ENDBRANCH   1  11
BRANCH   2  24
ATOM     24  C   UNL     1       5.330   3.177  16.566  0.00  0.00    +0.000 C 
BRANCH  24  25
ATOM     25  N   UNL     1       4.969   4.297  15.680  0.00  0.00    +0.000 NA
ATOM     26  H   UNL     1       4.323   4.996  16.050  0.00  0.00    +0.000 HD
BRANCH  25  27
ATOM     27  S   UNL     1       6.190   4.949  14.729  0.00  0.00    +0.000 S 
ATOM     28  O   UNL     1       5.756   6.270  14.337  0.00  0.00    +0.000 OA
ATOM     29  O   UNL     1       7.446   4.734  15.417  0.00  0.00    +0.000 OA
BRANCH  27  30
ATOM     30  C   UNL     1       6.156   3.924  13.279  0.00  0.00    +0.000 A 
ATOM     31  C   UNL     1       4.927   3.454  12.805  0.00  0.00    +0.000 A 
ATOM     32  C   UNL     1       4.888   2.691  11.636  0.00  0.00    +0.000 A 
ATOM     33  C   UNL     1       6.068   2.409  10.945  0.00  0.00    +0.000 A 
ATOM     34  C   UNL     1       7.290   2.890  11.417  0.00  0.00    +0.000 A 
ATOM     35  C   UNL     1       7.339   3.653  12.584  0.00  0.00    +0.000 A 
ENDBRANCH  27  30
ENDBRANCH  25  27
ENDBRANCH  24  25
ENDBRANCH   2  24
TORSDOF 10
ENDMDL
