MODEL 1
REMARK VINA RESULT:      -8.1      0.000      0.000
REMARK  Name = 
REMARK  6 active torsions:
REMARK  status: ('A' for Active; 'I' for Inactive)
REMARK    1  A    between atoms: C_1  and  N_2
REMARK    2  A    between atoms: C_4  and  C_5
REMARK    3  A    between atoms: C_5  and  N_6
REMARK    4  A    between atoms: N_6  and  C_7
REMARK    5  A    between atoms: C_7  and  C_8
REMARK    6  A    between atoms: N_15  and  C_16
REMARK                            x       y       z     vdW  Elec       q    Type
REMARK                         _______ _______ _______ _____ _____    ______ ____
ROOT
ATOM      1  N   UNL     1       2.574   6.876  18.819  0.00  0.00    +0.000 N 
ATOM      2  C   UNL     1       2.094   8.134  18.454  0.00  0.00    +0.000 C 
ATOM      3  O   UNL     1       2.070   8.483  17.279  0.00  0.00    +0.000 OA
ATOM      4  N   UNL     1       1.646   8.917  19.499  0.00  0.00    +0.000 N 
ATOM      5  H   UNL     1       2.096   8.749  20.394  0.00  0.00    +0.000 HD
ENDROOT
BRANCH   4   6
ATOM      6  C   UNL     1       0.952  10.154  19.432  0.00  0.00    +0.000 A 
ATOM      7  C   UNL     1       1.382  11.310  18.779  0.00  0.00    +0.000 A 
ATOM      8  F   UNL     1       2.489  11.340  18.027  0.00  0.00    +0.000 F 
ATOM      9  C   UNL     1       0.628  12.494  18.827  0.00  0.00    +0.000 A 
ATOM     10  C   UNL     1      -0.590  12.532  19.503  0.00  0.00    +0.000 A 
ATOM     11  C   UNL     1      -1.065  11.375  20.111  0.00  0.00    +0.000 A 
ATOM     12  C   UNL     1      -0.296  10.208  20.065  0.00  0.00    +0.000 A 
ATOM     13  F   UNL     1      -0.790   9.104  20.651  0.00  0.00    +0.000 F 
ENDBRANCH   4   6
BRANCH   1  14
ATOM     14  C   UNL     1       2.934   5.930  17.750  0.00  0.00    +0.000 C 
BRANCH  14  18
ATOM     15  C   UNL     1       7.570   7.526  17.450  0.00  0.00    +0.000 C 
ATOM     16  N   UNL     1       6.420   6.683  17.245  0.00  0.00    +0.000 N 
ATOM     17  N   UNL     1       5.218   6.954  17.827  0.00  0.00    +0.000 NA
ATOM     18  C   UNL     1       4.375   6.011  17.329  0.00  0.00    +0.000 A 
ATOM     19  C   UNL     1       5.075   5.140  16.482  0.00  0.00    +0.000 A 
ATOM     20  C   UNL     1       6.355   5.603  16.446  0.00  0.00    +0.000 A 
ATOM     21  C   UNL     1       7.268   4.882  15.551  0.00  0.00    +0.000 C 
ATOM     22  C   UNL     1       6.235   3.990  14.780  0.00  0.00    +0.000 C 
ATOM     23  C   UNL     1       4.911   3.952  15.630  0.00  0.00    +0.000 C 
ENDBRANCH  14  18
ENDBRANCH   1  14
BRANCH   1  24
ATOM     24  C   UNL     1       2.653   6.375  20.192  0.00  0.00    +0.000 C 
BRANCH  24  25
ATOM     25  C   UNL     1       2.197   4.962  20.245  0.00  0.00    +0.000 A 
ATOM     26  C   UNL     1       0.952   4.374  20.290  0.00  0.00    +0.000 A 
ATOM     27  C   UNL     1       1.165   2.977  20.247  0.00  0.00    +0.000 A 
ATOM     28  C   UNL     1       2.528   2.799  20.220  0.00  0.00    +0.000 A 
ATOM     29  O   UNL     1       3.166   3.999  20.232  0.00  0.00    +0.000 OA
ENDBRANCH  24  25
ENDBRANCH   1  24
TORSDOF 5
ENDMDL
MODEL 2
REMARK VINA RESULT:      -7.9      3.093      7.960
REMARK  Name = 
REMARK  6 active torsions:
REMARK  status: ('A' for Active; 'I' for Inactive)
REMARK    1  A    between atoms: C_1  and  N_2
REMARK    2  A    between atoms: C_4  and  C_5
REMARK    3  A    between atoms: C_5  and  N_6
REMARK    4  A    between atoms: N_6  and  C_7
REMARK    5  A    between atoms: C_7  and  C_8
REMARK    6  A    between atoms: N_15  and  C_16
REMARK                            x       y       z     vdW  Elec       q    Type
REMARK                         _______ _______ _______ _____ _____    ______ ____
ROOT
ATOM      1  N   UNL     1       0.583  11.126  19.275  0.00  0.00    +0.000 N 
ATOM      2  C   UNL     1       0.780   9.837  18.779  0.00  0.00    +0.000 C 
ATOM      3  O   UNL     1       0.289   9.491  17.710  0.00  0.00    +0.000 OA
ATOM      4  N   UNL     1       1.568   9.019  19.565  0.00  0.00    +0.000 N 
ATOM      5  H   UNL     1       1.543   9.217  20.561  0.00  0.00    +0.000 HD
ENDROOT
BRANCH   4   6
ATOM      6  C   UNL     1       2.083   7.734  19.250  0.00  0.00    +0.000 A 
ATOM      7  C   UNL     1       2.772   7.380  18.088  0.00  0.00    +0.000 A 
ATOM      8  F   UNL     1       3.125   8.280  17.162  0.00  0.00    +0.000 F 
ATOM      9  C   UNL     1       3.189   6.058  17.865  0.00  0.00    +0.000 A 
ATOM     10  C   UNL     1       2.954   5.071  18.820  0.00  0.00    +0.000 A 
ATOM     11  C   UNL     1       2.321   5.413  20.010  0.00  0.00    +0.000 A 
ATOM     12  C   UNL     1       1.900   6.732  20.210  0.00  0.00    +0.000 A 
ATOM     13  F   UNL     1       1.305   7.033  21.376  0.00  0.00    +0.000 F 
ENDBRANCH   4   6
BRANCH   1  14
ATOM     14  C   UNL     1      -0.122  12.099  18.427  0.00  0.00    +0.000 C 
BRANCH  14  18
ATOM     15  C   UNL     1      -4.673  12.491  20.232  0.00  0.00    +0.000 C 
ATOM     16  N   UNL     1      -3.617  12.230  19.288  0.00  0.00    +0.000 N 
ATOM     17  N   UNL     1      -2.308  12.452  19.597  0.00  0.00    +0.000 NA
ATOM     18  C   UNL     1      -1.620  12.005  18.512  0.00  0.00    +0.000 A 
ATOM     19  C   UNL     1      -2.512  11.557  17.528  0.00  0.00    +0.000 A 
ATOM     20  C   UNL     1      -3.758  11.704  18.059  0.00  0.00    +0.000 A 
ATOM     21  C   UNL     1      -4.867  11.225  17.225  0.00  0.00    +0.000 C 
ATOM     22  C   UNL     1      -4.057  10.465  16.118  0.00  0.00    +0.000 C 
ATOM     23  C   UNL     1      -2.571  10.982  16.175  0.00  0.00    +0.000 C 
ENDBRANCH  14  18
ENDBRANCH   1  14
BRANCH   1  24
ATOM     24  C   UNL     1       1.117  11.626  20.543  0.00  0.00    +0.000 C 
BRANCH  24  25
ATOM     25  C   UNL     1       0.379  11.019  21.681  0.00  0.00    +0.000 A 
ATOM     26  C   UNL     1      -0.835  11.296  22.271  0.00  0.00    +0.000 A 
ATOM     27  C   UNL     1      -1.031  10.313  23.268  0.00  0.00    +0.000 A 
ATOM     28  C   UNL     1       0.095   9.524  23.252  0.00  0.00    +0.000 A 
ATOM     29  O   UNL     1       0.965   9.952  22.300  0.00  0.00    +0.000 OA
ENDBRANCH  24  25
ENDBRANCH   1  24
TORSDOF 5
ENDMDL
MODEL 3
REMARK VINA RESULT:      -7.9      1.250      1.370
REMARK  Name = 
REMARK  6 active torsions:
REMARK  status: ('A' for Active; 'I' for Inactive)
REMARK    1  A    between atoms: C_1  and  N_2
REMARK    2  A    between atoms: C_4  and  C_5
REMARK    3  A    between atoms: C_5  and  N_6
REMARK    4  A    between atoms: N_6  and  C_7
REMARK    5  A    between atoms: C_7  and  C_8
REMARK    6  A    between atoms: N_15  and  C_16
REMARK                            x       y       z     vdW  Elec       q    Type
REMARK                         _______ _______ _______ _____ _____    ______ ____
ROOT
ATOM      1  N   UNL     1       2.403   6.944  19.318  0.00  0.00    +0.000 N 
ATOM      2  C   UNL     1       1.812   8.200  19.451  0.00  0.00    +0.000 C 
ATOM      3  O   UNL     1       1.567   8.890  18.467  0.00  0.00    +0.000 OA
ATOM      4  N   UNL     1       1.521   8.578  20.747  0.00  0.00    +0.000 N 
ATOM      5  H   UNL     1       2.128   8.187  21.462  0.00  0.00    +0.000 HD
ENDROOT
BRANCH   4   6
ATOM      6  C   UNL     1       0.773   9.702  21.185  0.00  0.00    +0.000 A 
ATOM      7  C   UNL     1       0.932  11.021  20.754  0.00  0.00    +0.000 A 
ATOM      8  F   UNL     1       1.767  11.357  19.764  0.00  0.00    +0.000 F 
ATOM      9  C   UNL     1       0.164  12.061  21.302  0.00  0.00    +0.000 A 
ATOM     10  C   UNL     1      -0.804  11.794  22.269  0.00  0.00    +0.000 A 
ATOM     11  C   UNL     1      -1.019  10.480  22.670  0.00  0.00    +0.000 A 
ATOM     12  C   UNL     1      -0.236   9.458  22.125  0.00  0.00    +0.000 A 
ATOM     13  F   UNL     1      -0.478   8.197  22.523  0.00  0.00    +0.000 F 
ENDBRANCH   4   6
BRANCH   1  14
ATOM     14  C   UNL     1       2.610   6.412  17.961  0.00  0.00    +0.000 C 
BRANCH  14  18
ATOM     15  C   UNL     1       7.315   7.684  17.353  0.00  0.00    +0.000 C 
ATOM     16  N   UNL     1       6.130   6.866  17.345  0.00  0.00    +0.000 N 
ATOM     17  N   UNL     1       4.938   7.325  17.820  0.00  0.00    +0.000 NA
ATOM     18  C   UNL     1       4.056   6.323  17.559  0.00  0.00    +0.000 A 
ATOM     19  C   UNL     1       4.721   5.240  16.969  0.00  0.00    +0.000 A 
ATOM     20  C   UNL     1       6.021   5.625  16.840  0.00  0.00    +0.000 A 
ATOM     21  C   UNL     1       6.906   4.665  16.170  0.00  0.00    +0.000 C 
ATOM     22  C   UNL     1       5.839   3.652  15.628  0.00  0.00    +0.000 C 
ATOM     23  C   UNL     1       4.509   3.884  16.437  0.00  0.00    +0.000 C 
ENDBRANCH  14  18
ENDBRANCH   1  14
BRANCH   1  24
ATOM     24  C   UNL     1       2.743   6.055  20.430  0.00  0.00    +0.000 C 
BRANCH  24  25
ATOM     25  C   UNL     1       2.183   4.700  20.190  0.00  0.00    +0.000 A 
ATOM     26  C   UNL     1       0.906   4.186  20.241  0.00  0.00    +0.000 A 
ATOM     27  C   UNL     1       1.000   2.837  19.829  0.00  0.00    +0.000 A 
ATOM     28  C   UNL     1       2.333   2.601  19.592  0.00  0.00    +0.000 A 
ATOM     29  O   UNL     1       3.065   3.724  19.821  0.00  0.00    +0.000 OA
ENDBRANCH  24  25
ENDBRANCH   1  24
TORSDOF 5
ENDMDL
MODEL 4
REMARK VINA RESULT:      -7.7      1.370      1.413
REMARK  Name = 
REMARK  6 active torsions:
REMARK  status: ('A' for Active; 'I' for Inactive)
REMARK    1  A    between atoms: C_1  and  N_2
REMARK    2  A    between atoms: C_4  and  C_5
REMARK    3  A    between atoms: C_5  and  N_6
REMARK    4  A    between atoms: N_6  and  C_7
REMARK    5  A    between atoms: C_7  and  C_8
REMARK    6  A    between atoms: N_15  and  C_16
REMARK                            x       y       z     vdW  Elec       q    Type
REMARK                         _______ _______ _______ _____ _____    ______ ____
ROOT
ATOM      1  N   UNL     1       2.406   6.357  18.976  0.00  0.00    +0.000 N 
ATOM      2  C   UNL     1       2.092   7.699  18.767  0.00  0.00    +0.000 C 
ATOM      3  O   UNL     1       2.357   8.251  17.704  0.00  0.00    +0.000 OA
ATOM      4  N   UNL     1       1.461   8.326  19.823  0.00  0.00    +0.000 N 
ATOM      5  H   UNL     1       1.685   7.961  20.744  0.00  0.00    +0.000 HD
ENDROOT
BRANCH   4   6
ATOM      6  C   UNL     1       0.870   9.617  19.849  0.00  0.00    +0.000 A 
ATOM      7  C   UNL     1       0.171  10.229  18.807  0.00  0.00    +0.000 A 
ATOM      8  F   UNL     1      -0.118   9.592  17.666  0.00  0.00    +0.000 F 
ATOM      9  C   UNL     1      -0.325  11.537  18.934  0.00  0.00    +0.000 A 
ATOM     10  C   UNL     1      -0.159  12.245  20.123  0.00  0.00    +0.000 A 
ATOM     11  C   UNL     1       0.483  11.633  21.194  0.00  0.00    +0.000 A 
ATOM     12  C   UNL     1       0.982  10.335  21.046  0.00  0.00    +0.000 A 
ATOM     13  F   UNL     1       1.586   9.767  22.104  0.00  0.00    +0.000 F 
ENDBRANCH   4   6
BRANCH   1  14
ATOM     14  C   UNL     1       2.948   5.584  17.847  0.00  0.00    +0.000 C 
BRANCH  14  18
ATOM     15  C   UNL     1       7.566   5.697  19.517  0.00  0.00    +0.000 C 
ATOM     16  N   UNL     1       6.462   5.444  18.628  0.00  0.00    +0.000 N 
ATOM     17  N   UNL     1       5.176   5.721  18.983  0.00  0.00    +0.000 NA
ATOM     18  C   UNL     1       4.445   5.444  17.871  0.00  0.00    +0.000 A 
ATOM     19  C   UNL     1       5.280   4.954  16.857  0.00  0.00    +0.000 A 
ATOM     20  C   UNL     1       6.542   4.981  17.368  0.00  0.00    +0.000 A 
ATOM     21  C   UNL     1       7.611   4.575  16.447  0.00  0.00    +0.000 C 
ATOM     22  C   UNL     1       6.803   4.532  15.105  0.00  0.00    +0.000 C 
ATOM     23  C   UNL     1       5.274   4.458  15.472  0.00  0.00    +0.000 C 
ENDBRANCH  14  18
ENDBRANCH   1  14
BRANCH   1  24
ATOM     24  C   UNL     1       2.142   5.617  20.211  0.00  0.00    +0.000 C 
BRANCH  24  25
ATOM     25  C   UNL     1       1.846   4.194  19.899  0.00  0.00    +0.000 A 
ATOM     26  C   UNL     1       0.716   3.542  19.457  0.00  0.00    +0.000 A 
ATOM     27  C   UNL     1       1.081   2.190  19.268  0.00  0.00    +0.000 A 
ATOM     28  C   UNL     1       2.399   2.093  19.646  0.00  0.00    +0.000 A 
ATOM     29  O   UNL     1       2.871   3.304  20.045  0.00  0.00    +0.000 OA
ENDBRANCH  24  25
ENDBRANCH   1  24
TORSDOF 5
ENDMDL
MODEL 5
REMARK VINA RESULT:      -7.5      0.371      1.599
REMARK  Name = 
REMARK  6 active torsions:
REMARK  status: ('A' for Active; 'I' for Inactive)
REMARK    1  A    between atoms: C_1  and  N_2
REMARK    2  A    between atoms: C_4  and  C_5
REMARK    3  A    between atoms: C_5  and  N_6
REMARK    4  A    between atoms: N_6  and  C_7
REMARK    5  A    between atoms: C_7  and  C_8
REMARK    6  A    between atoms: N_15  and  C_16
REMARK                            x       y       z     vdW  Elec       q    Type
REMARK                         _______ _______ _______ _____ _____    ______ ____
ROOT
ATOM      1  N   UNL     1       2.728   6.614  18.832  0.00  0.00    +0.000 N 
ATOM      2  C   UNL     1       2.099   7.826  18.549  0.00  0.00    +0.000 C 
ATOM      3  O   UNL     1       1.927   8.193  17.391  0.00  0.00    +0.000 OA
ATOM      4  N   UNL     1       1.682   8.543  19.653  0.00  0.00    +0.000 N 
ATOM      5  H   UNL     1       2.231   8.403  20.496  0.00  0.00    +0.000 HD
ENDROOT
BRANCH   4   6
ATOM      6  C   UNL     1       0.871   9.708  19.686  0.00  0.00    +0.000 A 
ATOM      7  C   UNL     1      -0.313   9.874  20.407  0.00  0.00    +0.000 A 
ATOM      8  F   UNL     1      -0.767   8.949  21.262  0.00  0.00    +0.000 F 
ATOM      9  C   UNL     1      -1.058  11.060  20.317  0.00  0.00    +0.000 A 
ATOM     10  C   UNL     1      -0.612  12.119  19.528  0.00  0.00    +0.000 A 
ATOM     11  C   UNL     1       0.594  11.998  18.848  0.00  0.00    +0.000 A 
ATOM     12  C   UNL     1       1.318  10.804  18.937  0.00  0.00    +0.000 A 
ATOM     13  F   UNL     1       2.486  10.724  18.278  0.00  0.00    +0.000 F 
ENDBRANCH   4   6
BRANCH   1  14
ATOM     14  C   UNL     1       3.070   5.727  17.708  0.00  0.00    +0.000 C 
BRANCH  14  18
ATOM     15  C   UNL     1       7.646   7.465  17.303  0.00  0.00    +0.000 C 
ATOM     16  N   UNL     1       6.510   6.604  17.098  0.00  0.00    +0.000 N 
ATOM     17  N   UNL     1       5.329   6.808  17.747  0.00  0.00    +0.000 NA
ATOM     18  C   UNL     1       4.488   5.872  17.231  0.00  0.00    +0.000 A 
ATOM     19  C   UNL     1       5.171   5.072  16.304  0.00  0.00    +0.000 A 
ATOM     20  C   UNL     1       6.436   5.571  16.240  0.00  0.00    +0.000 A 
ATOM     21  C   UNL     1       7.326   4.929  15.266  0.00  0.00    +0.000 C 
ATOM     22  C   UNL     1       6.282   4.055  14.488  0.00  0.00    +0.000 C 
ATOM     23  C   UNL     1       4.999   3.931  15.391  0.00  0.00    +0.000 C 
ENDBRANCH  14  18
ENDBRANCH   1  14
BRANCH   1  24
ATOM     24  C   UNL     1       2.987   6.098  20.177  0.00  0.00    +0.000 C 
BRANCH  24  25
ATOM     25  C   UNL     1       2.342   4.771  20.346  0.00  0.00    +0.000 A 
ATOM     26  C   UNL     1       1.028   4.367  20.440  0.00  0.00    +0.000 A 
ATOM     27  C   UNL     1       1.045   2.955  20.511  0.00  0.00    +0.000 A 
ATOM     28  C   UNL     1       2.370   2.588  20.498  0.00  0.00    +0.000 A 
ATOM     29  O   UNL     1       3.168   3.685  20.412  0.00  0.00    +0.000 OA
ENDBRANCH  24  25
ENDBRANCH   1  24
TORSDOF 5
ENDMDL
MODEL 6
REMARK VINA RESULT:      -7.5      1.568      1.643
REMARK  Name = 
REMARK  6 active torsions:
REMARK  status: ('A' for Active; 'I' for Inactive)
REMARK    1  A    between atoms: C_1  and  N_2
REMARK    2  A    between atoms: C_4  and  C_5
REMARK    3  A    between atoms: C_5  and  N_6
REMARK    4  A    between atoms: N_6  and  C_7
REMARK    5  A    between atoms: C_7  and  C_8
REMARK    6  A    between atoms: N_15  and  C_16
REMARK                            x       y       z     vdW  Elec       q    Type
REMARK                         _______ _______ _______ _____ _____    ______ ____
ROOT
ATOM      1  N   UNL     1       2.752   7.561  18.226  0.00  0.00    +0.000 N 
ATOM      2  C   UNL     1       2.028   8.748  18.335  0.00  0.00    +0.000 C 
ATOM      3  O   UNL     1       2.022   9.569  17.424  0.00  0.00    +0.000 OA
ATOM      4  N   UNL     1       1.327   8.903  19.514  0.00  0.00    +0.000 N 
ATOM      5  H   UNL     1       1.728   8.438  20.324  0.00  0.00    +0.000 HD
ENDROOT
BRANCH   4   6
ATOM      6  C   UNL     1       0.375   9.904  19.843  0.00  0.00    +0.000 A 
ATOM      7  C   UNL     1      -0.674  10.347  19.035  0.00  0.00    +0.000 A 
ATOM      8  F   UNL     1      -0.967   9.773  17.862  0.00  0.00    +0.000 F 
ATOM      9  C   UNL     1      -1.522  11.386  19.451  0.00  0.00    +0.000 A 
ATOM     10  C   UNL     1      -1.356  11.978  20.701  0.00  0.00    +0.000 A 
ATOM     11  C   UNL     1      -0.354  11.513  21.546  0.00  0.00    +0.000 A 
ATOM     12  C   UNL     1       0.490  10.487  21.111  0.00  0.00    +0.000 A 
ATOM     13  F   UNL     1       1.440  10.051  21.956  0.00  0.00    +0.000 F 
ENDBRANCH   4   6
BRANCH   1  14
ATOM     14  C   UNL     1       3.407   7.259  16.943  0.00  0.00    +0.000 C 
BRANCH  14  18
ATOM     15  C   UNL     1       8.087   7.064  18.421  0.00  0.00    +0.000 C 
ATOM     16  N   UNL     1       6.860   6.667  17.779  0.00  0.00    +0.000 N 
ATOM     17  N   UNL     1       5.721   7.408  17.888  0.00  0.00    +0.000 NA
ATOM     18  C   UNL     1       4.824   6.778  17.084  0.00  0.00    +0.000 A 
ATOM     19  C   UNL     1       5.404   5.631  16.525  0.00  0.00    +0.000 A 
ATOM     20  C   UNL     1       6.688   5.603  16.977  0.00  0.00    +0.000 A 
ATOM     21  C   UNL     1       7.523   4.513  16.457  0.00  0.00    +0.000 C 
ATOM     22  C   UNL     1       6.578   3.969  15.330  0.00  0.00    +0.000 C 
ATOM     23  C   UNL     1       5.125   4.494  15.633  0.00  0.00    +0.000 C 
ENDBRANCH  14  18
ENDBRANCH   1  14
BRANCH   1  24
ATOM     24  C   UNL     1       2.830   6.530  19.262  0.00  0.00    +0.000 C 
BRANCH  24  25
ATOM     25  C   UNL     1       2.564   5.193  18.670  0.00  0.00    +0.000 A 
ATOM     26  C   UNL     1       1.589   4.716  17.822  0.00  0.00    +0.000 A 
ATOM     27  C   UNL     1       1.915   3.367  17.552  0.00  0.00    +0.000 A 
ATOM     28  C   UNL     1       3.046   3.094  18.285  0.00  0.00    +0.000 A 
ATOM     29  O   UNL     1       3.442   4.194  18.979  0.00  0.00    +0.000 OA
ENDBRANCH  24  25
ENDBRANCH   1  24
TORSDOF 5
ENDMDL
MODEL 7
REMARK VINA RESULT:      -7.4      2.107      4.947
REMARK  Name = 
REMARK  6 active torsions:
REMARK  status: ('A' for Active; 'I' for Inactive)
REMARK    1  A    between atoms: C_1  and  N_2
REMARK    2  A    between atoms: C_4  and  C_5
REMARK    3  A    between atoms: C_5  and  N_6
REMARK    4  A    between atoms: N_6  and  C_7
REMARK    5  A    between atoms: C_7  and  C_8
REMARK    6  A    between atoms: N_15  and  C_16
REMARK                            x       y       z     vdW  Elec       q    Type
REMARK                         _______ _______ _______ _____ _____    ______ ____
ROOT
ATOM      1  N   UNL     1       3.695   5.857  17.816  0.00  0.00    +0.000 N 
ATOM      2  C   UNL     1       2.539   6.563  18.146  0.00  0.00    +0.000 C 
ATOM      3  O   UNL     1       1.438   6.024  18.110  0.00  0.00    +0.000 OA
ATOM      4  N   UNL     1       2.740   7.876  18.525  0.00  0.00    +0.000 N 
ATOM      5  H   UNL     1       3.551   8.329  18.112  0.00  0.00    +0.000 HD
ENDROOT
BRANCH   4   6
ATOM      6  C   UNL     1       1.797   8.784  19.076  0.00  0.00    +0.000 A 
ATOM      7  C   UNL     1       1.143   8.655  20.303  0.00  0.00    +0.000 A 
ATOM      8  F   UNL     1       1.431   7.677  21.170  0.00  0.00    +0.000 F 
ATOM      9  C   UNL     1       0.187   9.596  20.718  0.00  0.00    +0.000 A 
ATOM     10  C   UNL     1      -0.107  10.704  19.926  0.00  0.00    +0.000 A 
ATOM     11  C   UNL     1       0.575  10.883  18.727  0.00  0.00    +0.000 A 
ATOM     12  C   UNL     1       1.514   9.929  18.322  0.00  0.00    +0.000 A 
ATOM     13  F   UNL     1       2.165  10.138  17.165  0.00  0.00    +0.000 F 
ENDBRANCH   4   6
BRANCH   1  14
ATOM     14  C   UNL     1       3.577   4.416  17.543  0.00  0.00    +0.000 C 
BRANCH  14  18
ATOM     15  C   UNL     1       5.336   1.287  20.896  0.00  0.00    +0.000 C 
ATOM     16  N   UNL     1       4.443   2.228  20.270  0.00  0.00    +0.000 N 
ATOM     17  N   UNL     1       4.749   2.830  19.087  0.00  0.00    +0.000 NA
ATOM     18  C   UNL     1       3.644   3.558  18.776  0.00  0.00    +0.000 A 
ATOM     19  C   UNL     1       2.687   3.436  19.792  0.00  0.00    +0.000 A 
ATOM     20  C   UNL     1       3.222   2.582  20.708  0.00  0.00    +0.000 A 
ATOM     21  C   UNL     1       2.356   2.241  21.844  0.00  0.00    +0.000 C 
ATOM     22  C   UNL     1       1.003   2.850  21.339  0.00  0.00    +0.000 C 
ATOM     23  C   UNL     1       1.341   3.876  20.193  0.00  0.00    +0.000 C 
ENDBRANCH  14  18
ENDBRANCH   1  14
BRANCH   1  24
ATOM     24  C   UNL     1       5.048   6.416  17.818  0.00  0.00    +0.000 C 
BRANCH  24  25
ATOM     25  C   UNL     1       5.874   5.755  16.775  0.00  0.00    +0.000 A 
ATOM     26  C   UNL     1       6.927   4.868  16.828  0.00  0.00    +0.000 A 
ATOM     27  C   UNL     1       7.243   4.538  15.491  0.00  0.00    +0.000 A 
ATOM     28  C   UNL     1       6.390   5.275  14.704  0.00  0.00    +0.000 A 
ATOM     29  O   UNL     1       5.562   6.030  15.473  0.00  0.00    +0.000 OA
ENDBRANCH  24  25
ENDBRANCH   1  24
TORSDOF 5
ENDMDL
MODEL 8
REMARK VINA RESULT:      -7.4      4.135      6.215
REMARK  Name = 
REMARK  6 active torsions:
REMARK  status: ('A' for Active; 'I' for Inactive)
REMARK    1  A    between atoms: C_1  and  N_2
REMARK    2  A    between atoms: C_4  and  C_5
REMARK    3  A    between atoms: C_5  and  N_6
REMARK    4  A    between atoms: N_6  and  C_7
REMARK    5  A    between atoms: C_7  and  C_8
REMARK    6  A    between atoms: N_15  and  C_16
REMARK                            x       y       z     vdW  Elec       q    Type
REMARK                         _______ _______ _______ _____ _____    ______ ____
ROOT
ATOM      1  N   UNL     1       5.663   5.015  16.667  0.00  0.00    +0.000 N 
ATOM      2  C   UNL     1       4.726   4.151  17.233  0.00  0.00    +0.000 C 
ATOM      3  O   UNL     1       4.887   2.936  17.199  0.00  0.00    +0.000 OA
ATOM      4  N   UNL     1       3.645   4.767  17.831  0.00  0.00    +0.000 N 
ATOM      5  H   UNL     1       3.382   5.666  17.437  0.00  0.00    +0.000 HD
ENDROOT
BRANCH   4   6
ATOM      6  C   UNL     1       2.631   4.176  18.630  0.00  0.00    +0.000 A 
ATOM      7  C   UNL     1       1.864   3.057  18.301  0.00  0.00    +0.000 A 
ATOM      8  F   UNL     1       2.089   2.332  17.199  0.00  0.00    +0.000 F 
ATOM      9  C   UNL     1       0.850   2.595  19.155  0.00  0.00    +0.000 A 
ATOM     10  C   UNL     1       0.608   3.226  20.374  0.00  0.00    +0.000 A 
ATOM     11  C   UNL     1       1.399   4.306  20.748  0.00  0.00    +0.000 A 
ATOM     12  C   UNL     1       2.396   4.762  19.880  0.00  0.00    +0.000 A 
ATOM     13  F   UNL     1       3.151   5.800  20.277  0.00  0.00    +0.000 F 
ENDBRANCH   4   6
BRANCH   1  14
ATOM     14  C   UNL     1       6.911   4.441  16.139  0.00  0.00    +0.000 C 
BRANCH  14  18
ATOM     15  C   UNL     1       8.677   6.275  11.938  0.00  0.00    +0.000 C 
ATOM     16  N   UNL     1       7.921   5.428  12.826  0.00  0.00    +0.000 N 
ATOM     17  N   UNL     1       8.019   5.539  14.181  0.00  0.00    +0.000 NA
ATOM     18  C   UNL     1       7.103   4.659  14.664  0.00  0.00    +0.000 A 
ATOM     19  C   UNL     1       6.483   3.981  13.606  0.00  0.00    +0.000 A 
ATOM     20  C   UNL     1       7.016   4.501  12.466  0.00  0.00    +0.000 A 
ATOM     21  C   UNL     1       6.458   3.988  11.209  0.00  0.00    +0.000 C 
ATOM     22  C   UNL     1       5.226   3.196  11.769  0.00  0.00    +0.000 C 
ATOM     23  C   UNL     1       5.476   2.952  13.304  0.00  0.00    +0.000 C 
ENDBRANCH  14  18
ENDBRANCH   1  14
BRANCH   1  24
ATOM     24  C   UNL     1       5.552   6.475  16.647  0.00  0.00    +0.000 C 
BRANCH  24  25
ATOM     25  C   UNL     1       6.673   7.081  17.410  0.00  0.00    +0.000 A 
ATOM     26  C   UNL     1       7.479   6.619  18.427  0.00  0.00    +0.000 A 
ATOM     27  C   UNL     1       8.425   7.637  18.685  0.00  0.00    +0.000 A 
ATOM     28  C   UNL     1       8.111   8.673  17.838  0.00  0.00    +0.000 A 
ATOM     29  O   UNL     1       7.039   8.352  17.067  0.00  0.00    +0.000 OA
ENDBRANCH  24  25
ENDBRANCH   1  24
TORSDOF 5
ENDMDL
MODEL 9
REMARK VINA RESULT:      -7.3      3.126      8.530
REMARK  Name = 
REMARK  6 active torsions:
REMARK  status: ('A' for Active; 'I' for Inactive)
REMARK    1  A    between atoms: C_1  and  N_2
REMARK    2  A    between atoms: C_4  and  C_5
REMARK    3  A    between atoms: C_5  and  N_6
REMARK    4  A    between atoms: N_6  and  C_7
REMARK    5  A    between atoms: C_7  and  C_8
REMARK    6  A    between atoms: N_15  and  C_16
REMARK                            x       y       z     vdW  Elec       q    Type
REMARK                         _______ _______ _______ _____ _____    ______ ____
ROOT
ATOM      1  N   UNL     1       0.291  11.234  19.305  0.00  0.00    +0.000 N 
ATOM      2  C   UNL     1       0.552   9.957  18.808  0.00  0.00    +0.000 C 
ATOM      3  O   UNL     1       0.054   9.577  17.753  0.00  0.00    +0.000 OA
ATOM      4  N   UNL     1       1.408   9.191  19.574  0.00  0.00    +0.000 N 
ATOM      5  H   UNL     1       1.398   9.391  20.570  0.00  0.00    +0.000 HD
ENDROOT
BRANCH   4   6
ATOM      6  C   UNL     1       1.991   7.938  19.249  0.00  0.00    +0.000 A 
ATOM      7  C   UNL     1       2.687   7.627  18.079  0.00  0.00    +0.000 A 
ATOM      8  F   UNL     1       2.981   8.548  17.153  0.00  0.00    +0.000 F 
ATOM      9  C   UNL     1       3.174   6.331  17.847  0.00  0.00    +0.000 A 
ATOM     10  C   UNL     1       3.004   5.328  18.799  0.00  0.00    +0.000 A 
ATOM     11  C   UNL     1       2.365   5.631  19.996  0.00  0.00    +0.000 A 
ATOM     12  C   UNL     1       1.873   6.923  20.206  0.00  0.00    +0.000 A 
ATOM     13  F   UNL     1       1.272   7.186  21.379  0.00  0.00    +0.000 F 
ENDBRANCH   4   6
BRANCH   1  14
ATOM     14  C   UNL     1      -0.494  12.159  18.474  0.00  0.00    +0.000 C 
BRANCH  14  18
ATOM     15  C   UNL     1      -5.238  10.922  18.168  0.00  0.00    +0.000 C 
ATOM     16  N   UNL     1      -4.039  11.547  18.664  0.00  0.00    +0.000 N 
ATOM     17  N   UNL     1      -2.820  11.307  18.103  0.00  0.00    +0.000 NA
ATOM     18  C   UNL     1      -1.969  12.135  18.766  0.00  0.00    +0.000 A 
ATOM     19  C   UNL     1      -2.661  12.841  19.759  0.00  0.00    +0.000 A 
ATOM     20  C   UNL     1      -3.962  12.453  19.655  0.00  0.00    +0.000 A 
ATOM     21  C   UNL     1      -4.903  13.125  20.559  0.00  0.00    +0.000 C 
ATOM     22  C   UNL     1      -3.974  14.261  21.112  0.00  0.00    +0.000 C 
ATOM     23  C   UNL     1      -2.484  13.839  20.826  0.00  0.00    +0.000 C 
ENDBRANCH  14  18
ENDBRANCH   1  14
BRANCH   1  24
ATOM     24  C   UNL     1       0.828  11.770  20.557  0.00  0.00    +0.000 C 
BRANCH  24  25
ATOM     25  C   UNL     1       0.229  11.058  21.715  0.00  0.00    +0.000 A 
ATOM     26  C   UNL     1      -0.989  11.154  22.352  0.00  0.00    +0.000 A 
ATOM     27  C   UNL     1      -1.003  10.149  23.346  0.00  0.00    +0.000 A 
ATOM     28  C   UNL     1       0.222   9.530  23.280  0.00  0.00    +0.000 A 
ATOM     29  O   UNL     1       0.985  10.083  22.301  0.00  0.00    +0.000 OA
ENDBRANCH  24  25
ENDBRANCH   1  24
TORSDOF 5
ENDMDL
