MODEL 1
REMARK VINA RESULT:      -7.9      0.000      0.000
REMARK  Name = 
REMARK  8 active torsions:
REMARK  status: ('A' for Active; 'I' for Inactive)
REMARK    1  A    between atoms: C_1  and  O_2
REMARK    2  A    between atoms: O_2  and  C_3
REMARK    3  A    between atoms: C_8  and  C_9
REMARK    4  A    between atoms: C_14  and  C_15
REMARK    5  A    between atoms: C_15  and  O_17
REMARK    6  A    between atoms: C_21  and  C_22
REMARK    7  A    between atoms: C_27  and  O_28
REMARK    8  A    between atoms: O_28  and  C_29
REMARK                            x       y       z     vdW  Elec       q    Type
REMARK                         _______ _______ _______ _____ _____    ______ ____
ROOT
ATOM      1  C   UNL     1       3.957   6.720  17.931  0.00  0.00    +0.000 A 
ATOM      2  N   UNL     1       3.235   7.711  17.358  0.00  0.00    +0.000 NA
ATOM      3  C   UNL     1       2.240   8.234  18.119  0.00  0.00    +0.000 A 
ATOM      4  C   UNL     1       1.095   8.848  17.619  0.00  0.00    +0.000 A 
ATOM      5  C   UNL     1       0.180   9.471  18.474  0.00  0.00    +0.000 A 
ATOM      6  C   UNL     1       0.501   9.642  19.826  0.00  0.00    +0.000 A 
ATOM      7  C   UNL     1       1.567   8.904  20.334  0.00  0.00    +0.000 A 
ATOM      8  C   UNL     1       2.235   8.015  19.499  0.00  0.00    +0.000 A 
ATOM      9  N   UNL     1       2.744   6.862  19.949  0.00  0.00    +0.000 NA
ATOM     10  C   UNL     1       3.343   6.085  19.009  0.00  0.00    +0.000 A 
ENDROOT
BRANCH   1  16
ATOM     11  C   UNL     1       6.195   5.488  17.893  0.00  0.00    +0.000 A 
ATOM     12  C   UNL     1       7.097   4.660  17.214  0.00  0.00    +0.000 A 
ATOM     13  C   UNL     1       7.033   4.537  15.831  0.00  0.00    +0.000 A 
ATOM     14  C   UNL     1       6.078   5.258  15.123  0.00  0.00    +0.000 A 
ATOM     15  C   UNL     1       5.127   6.030  15.805  0.00  0.00    +0.000 A 
ATOM     16  C   UNL     1       5.115   6.112  17.201  0.00  0.00    +0.000 A 
BRANCH  11  18
ATOM     17  C   UNL     1       7.535   5.636  19.884  0.00  0.00    +0.000 C 
ATOM     18  O   UNL     1       6.267   5.691  19.252  0.00  0.00    +0.000 OA
ENDBRANCH  11  18
ENDBRANCH   1  16
BRANCH  10  19
ATOM     19  C   UNL     1       2.770   4.708  18.725  0.00  0.00    +0.000 A 
ATOM     20  C   UNL     1       2.639   4.297  17.360  0.00  0.00    +0.000 A 
ATOM     21  C   UNL     1       2.354   2.992  16.974  0.00  0.00    +0.000 A 
ATOM     22  C   UNL     1       2.094   2.055  17.947  0.00  0.00    +0.000 A 
ATOM     23  C   UNL     1       2.077   2.446  19.286  0.00  0.00    +0.000 A 
ATOM     24  C   UNL     1       2.377   3.769  19.686  0.00  0.00    +0.000 A 
BRANCH  24  25
ATOM     25  O   UNL     1       2.361   4.137  21.010  0.00  0.00    +0.000 OA
ATOM     26  C   UNL     1       2.084   3.071  21.919  0.00  0.00    +0.000 C 
ENDBRANCH  24  25
ENDBRANCH  10  19
BRANCH   6  27
ATOM     27  C   UNL     1      -0.381  10.548  20.619  0.00  0.00    +0.000 C 
ATOM     28  O   UNL     1      -0.397  10.520  21.841  0.00  0.00    +0.000 OA
BRANCH  27  29
ATOM     29  O   UNL     1      -1.174  11.381  19.920  0.00  0.00    +0.000 OA
ATOM     30  H   UNL     1      -1.290  12.287  20.245  0.00  0.00    +0.000 HD
ENDBRANCH  27  29
ENDBRANCH   6  27
TORSDOF 6
ENDMDL
MODEL 2
REMARK VINA RESULT:      -7.8      0.949      1.113
REMARK  Name = 
REMARK  8 active torsions:
REMARK  status: ('A' for Active; 'I' for Inactive)
REMARK    1  A    between atoms: C_1  and  O_2
REMARK    2  A    between atoms: O_2  and  C_3
REMARK    3  A    between atoms: C_8  and  C_9
REMARK    4  A    between atoms: C_14  and  C_15
REMARK    5  A    between atoms: C_15  and  O_17
REMARK    6  A    between atoms: C_21  and  C_22
REMARK    7  A    between atoms: C_27  and  O_28
REMARK    8  A    between atoms: O_28  and  C_29
REMARK                            x       y       z     vdW  Elec       q    Type
REMARK                         _______ _______ _______ _____ _____    ______ ____
ROOT
ATOM      1  C   UNL     1       4.096   6.583  17.961  0.00  0.00    +0.000 A 
ATOM      2  N   UNL     1       3.389   7.610  17.435  0.00  0.00    +0.000 NA
ATOM      3  C   UNL     1       2.423   8.133  18.232  0.00  0.00    +0.000 A 
ATOM      4  C   UNL     1       1.284   8.791  17.775  0.00  0.00    +0.000 A 
ATOM      5  C   UNL     1       0.403   9.409  18.668  0.00  0.00    +0.000 A 
ATOM      6  C   UNL     1       0.755   9.528  20.019  0.00  0.00    +0.000 A 
ATOM      7  C   UNL     1       1.811   8.749  20.481  0.00  0.00    +0.000 A 
ATOM      8  C   UNL     1       2.440   7.870  19.604  0.00  0.00    +0.000 A 
ATOM      9  N   UNL     1       2.928   6.691  20.007  0.00  0.00    +0.000 NA
ATOM     10  C   UNL     1       3.488   5.930  19.031  0.00  0.00    +0.000 A 
ENDROOT
BRANCH   1  16
ATOM     11  C   UNL     1       6.396   5.476  17.835  0.00  0.00    +0.000 A 
ATOM     12  C   UNL     1       7.286   4.636  17.156  0.00  0.00    +0.000 A 
ATOM     13  C   UNL     1       7.113   4.374  15.802  0.00  0.00    +0.000 A 
ATOM     14  C   UNL     1       6.057   4.969  15.120  0.00  0.00    +0.000 A 
ATOM     15  C   UNL     1       5.122   5.751  15.811  0.00  0.00    +0.000 A 
ATOM     16  C   UNL     1       5.223   5.970  17.188  0.00  0.00    +0.000 A 
BRANCH  11  18
ATOM     17  C   UNL     1       7.858   5.668  19.734  0.00  0.00    +0.000 C 
ATOM     18  O   UNL     1       6.571   5.816  19.156  0.00  0.00    +0.000 OA
ENDBRANCH  11  18
ENDBRANCH   1  16
BRANCH  10  19
ATOM     19  C   UNL     1       2.874   4.577  18.715  0.00  0.00    +0.000 A 
ATOM     20  C   UNL     1       1.631   4.546  18.007  0.00  0.00    +0.000 A 
ATOM     21  C   UNL     1       1.087   3.390  17.457  0.00  0.00    +0.000 A 
ATOM     22  C   UNL     1       1.725   2.190  17.675  0.00  0.00    +0.000 A 
ATOM     23  C   UNL     1       2.866   2.158  18.475  0.00  0.00    +0.000 A 
ATOM     24  C   UNL     1       3.430   3.331  19.028  0.00  0.00    +0.000 A 
BRANCH  24  25
ATOM     25  O   UNL     1       4.559   3.283  19.810  0.00  0.00    +0.000 OA
ATOM     26  C   UNL     1       4.767   2.035  20.474  0.00  0.00    +0.000 C 
ENDBRANCH  24  25
ENDBRANCH  10  19
BRANCH   6  27
ATOM     27  C   UNL     1      -0.087  10.431  20.857  0.00  0.00    +0.000 C 
ATOM     28  O   UNL     1      -1.109  10.941  20.424  0.00  0.00    +0.000 OA
BRANCH  27  29
ATOM     29  O   UNL     1       0.349  10.673  22.107  0.00  0.00    +0.000 OA
ATOM     30  H   UNL     1       1.050  10.108  22.468  0.00  0.00    +0.000 HD
ENDBRANCH  27  29
ENDBRANCH   6  27
TORSDOF 6
ENDMDL
MODEL 3
REMARK VINA RESULT:      -7.7      4.869      8.569
REMARK  Name = 
REMARK  8 active torsions:
REMARK  status: ('A' for Active; 'I' for Inactive)
REMARK    1  A    between atoms: C_1  and  O_2
REMARK    2  A    between atoms: O_2  and  C_3
REMARK    3  A    between atoms: C_8  and  C_9
REMARK    4  A    between atoms: C_14  and  C_15
REMARK    5  A    between atoms: C_15  and  O_17
REMARK    6  A    between atoms: C_21  and  C_22
REMARK    7  A    between atoms: C_27  and  O_28
REMARK    8  A    between atoms: O_28  and  C_29
REMARK                            x       y       z     vdW  Elec       q    Type
REMARK                         _______ _______ _______ _____ _____    ______ ____
ROOT
ATOM      1  C   UNL     1      -0.502  12.130  18.525  0.00  0.00    +0.000 A 
ATOM      2  N   UNL     1      -0.459  13.482  18.469  0.00  0.00    +0.000 NA
ATOM      3  C   UNL     1       0.759  14.044  18.678  0.00  0.00    +0.000 A 
ATOM      4  C   UNL     1       0.967  15.332  19.165  0.00  0.00    +0.000 A 
ATOM      5  C   UNL     1       2.254  15.876  19.232  0.00  0.00    +0.000 A 
ATOM      6  C   UNL     1       3.325  15.198  18.637  0.00  0.00    +0.000 A 
ATOM      7  C   UNL     1       3.130  13.865  18.288  0.00  0.00    +0.000 A 
ATOM      8  C   UNL     1       1.910  13.261  18.574  0.00  0.00    +0.000 A 
ATOM      9  N   UNL     1       1.819  11.969  18.913  0.00  0.00    +0.000 NA
ATOM     10  C   UNL     1       0.563  11.529  19.192  0.00  0.00    +0.000 A 
ENDROOT
BRANCH   1  16
ATOM     11  C   UNL     1      -3.025  11.838  18.811  0.00  0.00    +0.000 A 
ATOM     12  C   UNL     1      -4.240  11.357  18.311  0.00  0.00    +0.000 A 
ATOM     13  C   UNL     1      -4.257  10.351  17.352  0.00  0.00    +0.000 A 
ATOM     14  C   UNL     1      -3.057   9.812  16.905  0.00  0.00    +0.000 A 
ATOM     15  C   UNL     1      -1.836  10.340  17.348  0.00  0.00    +0.000 A 
ATOM     16  C   UNL     1      -1.785  11.405  18.253  0.00  0.00    +0.000 A 
BRANCH  11  18
ATOM     17  C   UNL     1      -3.970  12.783  20.810  0.00  0.00    +0.000 C 
ATOM     18  O   UNL     1      -2.965  12.783  19.809  0.00  0.00    +0.000 OA
ENDBRANCH  11  18
ENDBRANCH   1  16
BRANCH  10  19
ATOM     19  C   UNL     1       0.262  11.013  20.588  0.00  0.00    +0.000 A 
ATOM     20  C   UNL     1      -0.325  11.915  21.532  0.00  0.00    +0.000 A 
ATOM     21  C   UNL     1      -0.859  11.512  22.750  0.00  0.00    +0.000 A 
ATOM     22  C   UNL     1      -0.745  10.192  23.120  0.00  0.00    +0.000 A 
ATOM     23  C   UNL     1      -0.060   9.306  22.288  0.00  0.00    +0.000 A 
ATOM     24  C   UNL     1       0.477   9.707  21.043  0.00  0.00    +0.000 A 
BRANCH  24  25
ATOM     25  O   UNL     1       1.145   8.820  20.233  0.00  0.00    +0.000 OA
ATOM     26  C   UNL     1       1.466   7.575  20.855  0.00  0.00    +0.000 C 
ENDBRANCH  24  25
ENDBRANCH  10  19
BRANCH   6  27
ATOM     27  C   UNL     1       4.606  15.951  18.498  0.00  0.00    +0.000 C 
ATOM     28  O   UNL     1       4.657  17.163  18.650  0.00  0.00    +0.000 OA
BRANCH  27  29
ATOM     29  O   UNL     1       5.696  15.232  18.174  0.00  0.00    +0.000 OA
ATOM     30  H   UNL     1       6.087  15.359  17.295  0.00  0.00    +0.000 HD
ENDBRANCH  27  29
ENDBRANCH   6  27
TORSDOF 6
ENDMDL
MODEL 4
REMARK VINA RESULT:      -7.7      1.016      1.820
REMARK  Name = 
REMARK  8 active torsions:
REMARK  status: ('A' for Active; 'I' for Inactive)
REMARK    1  A    between atoms: C_1  and  O_2
REMARK    2  A    between atoms: O_2  and  C_3
REMARK    3  A    between atoms: C_8  and  C_9
REMARK    4  A    between atoms: C_14  and  C_15
REMARK    5  A    between atoms: C_15  and  O_17
REMARK    6  A    between atoms: C_21  and  C_22
REMARK    7  A    between atoms: C_27  and  O_28
REMARK    8  A    between atoms: O_28  and  C_29
REMARK                            x       y       z     vdW  Elec       q    Type
REMARK                         _______ _______ _______ _____ _____    ______ ____
ROOT
ATOM      1  C   UNL     1       4.187   6.318  18.767  0.00  0.00    +0.000 A 
ATOM      2  N   UNL     1       3.799   7.355  17.988  0.00  0.00    +0.000 NA
ATOM      3  C   UNL     1       2.642   7.966  18.351  0.00  0.00    +0.000 A 
ATOM      4  C   UNL     1       1.804   8.661  17.484  0.00  0.00    +0.000 A 
ATOM      5  C   UNL     1       0.696   9.366  17.964  0.00  0.00    +0.000 A 
ATOM      6  C   UNL     1       0.525   9.531  19.345  0.00  0.00    +0.000 A 
ATOM      7  C   UNL     1       1.278   8.719  20.189  0.00  0.00    +0.000 A 
ATOM      8  C   UNL     1       2.127   7.768  19.634  0.00  0.00    +0.000 A 
ATOM      9  N   UNL     1       2.349   6.585  20.220  0.00  0.00    +0.000 NA
ATOM     10  C   UNL     1       3.181   5.749  19.544  0.00  0.00    +0.000 A 
ENDROOT
BRANCH   1  16
ATOM     11  C   UNL     1       5.800   5.119  17.188  0.00  0.00    +0.000 A 
ATOM     12  C   UNL     1       7.112   4.748  16.869  0.00  0.00    +0.000 A 
ATOM     13  C   UNL     1       8.095   4.726  17.851  0.00  0.00    +0.000 A 
ATOM     14  C   UNL     1       7.763   5.058  19.160  0.00  0.00    +0.000 A 
ATOM     15  C   UNL     1       6.469   5.500  19.469  0.00  0.00    +0.000 A 
ATOM     16  C   UNL     1       5.478   5.609  18.489  0.00  0.00    +0.000 A 
BRANCH  11  18
ATOM     17  C   UNL     1       5.091   4.738  14.922  0.00  0.00    +0.000 C 
ATOM     18  O   UNL     1       4.784   5.089  16.262  0.00  0.00    +0.000 OA
ENDBRANCH  11  18
ENDBRANCH   1  16
BRANCH  10  19
ATOM     19  C   UNL     1       2.640   4.418  19.054  0.00  0.00    +0.000 A 
ATOM     20  C   UNL     1       2.211   4.321  17.692  0.00  0.00    +0.000 A 
ATOM     21  C   UNL     1       1.921   3.117  17.061  0.00  0.00    +0.000 A 
ATOM     22  C   UNL     1       1.958   1.956  17.800  0.00  0.00    +0.000 A 
ATOM     23  C   UNL     1       2.239   2.023  19.164  0.00  0.00    +0.000 A 
ATOM     24  C   UNL     1       2.546   3.243  19.809  0.00  0.00    +0.000 A 
BRANCH  24  25
ATOM     25  O   UNL     1       2.826   3.291  21.154  0.00  0.00    +0.000 OA
ATOM     26  C   UNL     1       1.782   2.798  21.995  0.00  0.00    +0.000 C 
ENDBRANCH  24  25
ENDBRANCH  10  19
BRANCH   6  27
ATOM     27  C   UNL     1      -0.506  10.516  19.783  0.00  0.00    +0.000 C 
ATOM     28  O   UNL     1      -0.426  11.095  20.857  0.00  0.00    +0.000 OA
BRANCH  27  29
ATOM     29  O   UNL     1      -1.542  10.716  18.948  0.00  0.00    +0.000 OA
ATOM     30  H   UNL     1      -1.817  11.629  18.765  0.00  0.00    +0.000 HD
ENDBRANCH  27  29
ENDBRANCH   6  27
TORSDOF 6
ENDMDL
MODEL 5
REMARK VINA RESULT:      -7.4      6.372      8.814
REMARK  Name = 
REMARK  8 active torsions:
REMARK  status: ('A' for Active; 'I' for Inactive)
REMARK    1  A    between atoms: C_1  and  O_2
REMARK    2  A    between atoms: O_2  and  C_3
REMARK    3  A    between atoms: C_8  and  C_9
REMARK    4  A    between atoms: C_14  and  C_15
REMARK    5  A    between atoms: C_15  and  O_17
REMARK    6  A    between atoms: C_21  and  C_22
REMARK    7  A    between atoms: C_27  and  O_28
REMARK    8  A    between atoms: O_28  and  C_29
REMARK                            x       y       z     vdW  Elec       q    Type
REMARK                         _______ _______ _______ _____ _____    ______ ____
ROOT
ATOM      1  C   UNL     1      -0.715  12.146  18.384  0.00  0.00    +0.000 A 
ATOM      2  N   UNL     1      -0.601  13.494  18.435  0.00  0.00    +0.000 NA
ATOM      3  C   UNL     1       0.636  13.972  18.726  0.00  0.00    +0.000 A 
ATOM      4  C   UNL     1       0.894  15.205  19.318  0.00  0.00    +0.000 A 
ATOM      5  C   UNL     1       2.203  15.672  19.469  0.00  0.00    +0.000 A 
ATOM      6  C   UNL     1       3.259  14.984  18.857  0.00  0.00    +0.000 A 
ATOM      7  C   UNL     1       3.008  13.694  18.399  0.00  0.00    +0.000 A 
ATOM      8  C   UNL     1       1.749  13.137  18.598  0.00  0.00    +0.000 A 
ATOM      9  N   UNL     1       1.579  11.830  18.833  0.00  0.00    +0.000 NA
ATOM     10  C   UNL     1       0.293  11.439  19.036  0.00  0.00    +0.000 A 
ENDROOT
BRANCH   1  16
ATOM     11  C   UNL     1      -3.239  11.869  18.673  0.00  0.00    +0.000 A 
ATOM     12  C   UNL     1      -4.477  11.517  18.123  0.00  0.00    +0.000 A 
ATOM     13  C   UNL     1      -4.541  10.704  16.997  0.00  0.00    +0.000 A 
ATOM     14  C   UNL     1      -3.365  10.225  16.431  0.00  0.00    +0.000 A 
ATOM     15  C   UNL     1      -2.122  10.634  16.934  0.00  0.00    +0.000 A 
ATOM     16  C   UNL     1      -2.023  11.515  18.016  0.00  0.00    +0.000 A 
BRANCH  11  18
ATOM     17  C   UNL     1      -4.248  12.681  20.699  0.00  0.00    +0.000 C 
ATOM     18  O   UNL     1      -3.133  12.614  19.824  0.00  0.00    +0.000 OA
ENDBRANCH  11  18
ENDBRANCH   1  16
BRANCH  10  19
ATOM     19  C   UNL     1      -0.085  10.836  20.377  0.00  0.00    +0.000 A 
ATOM     20  C   UNL     1      -0.223   9.414  20.466  0.00  0.00    +0.000 A 
ATOM     21  C   UNL     1      -0.332   8.726  21.669  0.00  0.00    +0.000 A 
ATOM     22  C   UNL     1      -0.401   9.445  22.840  0.00  0.00    +0.000 A 
ATOM     23  C   UNL     1      -0.407  10.838  22.787  0.00  0.00    +0.000 A 
ATOM     24  C   UNL     1      -0.286  11.545  21.568  0.00  0.00    +0.000 A 
BRANCH  24  25
ATOM     25  O   UNL     1      -0.288  12.919  21.534  0.00  0.00    +0.000 OA
ATOM     26  C   UNL     1      -0.940  13.538  22.643  0.00  0.00    +0.000 C 
ENDBRANCH  24  25
ENDBRANCH  10  19
BRANCH   6  27
ATOM     27  C   UNL     1       4.581  15.675  18.819  0.00  0.00    +0.000 C 
ATOM     28  O   UNL     1       5.630  15.061  18.949  0.00  0.00    +0.000 OA
BRANCH  27  29
ATOM     29  O   UNL     1       4.559  17.011  18.657  0.00  0.00    +0.000 OA
ATOM     30  H   UNL     1       4.506  17.569  19.449  0.00  0.00    +0.000 HD
ENDBRANCH  27  29
ENDBRANCH   6  27
TORSDOF 6
ENDMDL
MODEL 6
REMARK VINA RESULT:      -7.2      1.074      1.265
REMARK  Name = 
REMARK  8 active torsions:
REMARK  status: ('A' for Active; 'I' for Inactive)
REMARK    1  A    between atoms: C_1  and  O_2
REMARK    2  A    between atoms: O_2  and  C_3
REMARK    3  A    between atoms: C_8  and  C_9
REMARK    4  A    between atoms: C_14  and  C_15
REMARK    5  A    between atoms: C_15  and  O_17
REMARK    6  A    between atoms: C_21  and  C_22
REMARK    7  A    between atoms: C_27  and  O_28
REMARK    8  A    between atoms: O_28  and  C_29
REMARK                            x       y       z     vdW  Elec       q    Type
REMARK                         _______ _______ _______ _____ _____    ______ ____
ROOT
ATOM      1  C   UNL     1       3.622   6.800  18.090  0.00  0.00    +0.000 A 
ATOM      2  N   UNL     1       2.995   7.832  17.478  0.00  0.00    +0.000 NA
ATOM      3  C   UNL     1       2.062   8.480  18.220  0.00  0.00    +0.000 A 
ATOM      4  C   UNL     1       0.977   9.181  17.699  0.00  0.00    +0.000 A 
ATOM      5  C   UNL     1       0.134   9.924  18.531  0.00  0.00    +0.000 A 
ATOM      6  C   UNL     1       0.482  10.120  19.874  0.00  0.00    +0.000 A 
ATOM      7  C   UNL     1       1.476   9.305  20.408  0.00  0.00    +0.000 A 
ATOM      8  C   UNL     1       2.047   8.321  19.608  0.00  0.00    +0.000 A 
ATOM      9  N   UNL     1       2.447   7.144  20.105  0.00  0.00    +0.000 NA
ATOM     10  C   UNL     1       2.959   6.274  19.196  0.00  0.00    +0.000 A 
ENDROOT
BRANCH   1  16
ATOM     11  C   UNL     1       6.053   6.532  17.348  0.00  0.00    +0.000 A 
ATOM     12  C   UNL     1       7.104   5.690  16.965  0.00  0.00    +0.000 A 
ATOM     13  C   UNL     1       6.841   4.413  16.483  0.00  0.00    +0.000 A 
ATOM     14  C   UNL     1       5.525   3.983  16.367  0.00  0.00    +0.000 A 
ATOM     15  C   UNL     1       4.474   4.794  16.818  0.00  0.00    +0.000 A 
ATOM     16  C   UNL     1       4.710   6.052  17.380  0.00  0.00    +0.000 A 
BRANCH  11  18
ATOM     17  C   UNL     1       7.571   8.369  17.665  0.00  0.00    +0.000 C 
ATOM     18  O   UNL     1       6.265   7.826  17.765  0.00  0.00    +0.000 OA
ENDBRANCH  11  18
ENDBRANCH   1  16
BRANCH  10  19
ATOM     19  C   UNL     1       2.253   4.948  18.974  0.00  0.00    +0.000 A 
ATOM     20  C   UNL     1       1.605   4.727  17.717  0.00  0.00    +0.000 A 
ATOM     21  C   UNL     1       1.132   3.488  17.302  0.00  0.00    +0.000 A 
ATOM     22  C   UNL     1       1.205   2.426  18.174  0.00  0.00    +0.000 A 
ATOM     23  C   UNL     1       1.705   2.630  19.459  0.00  0.00    +0.000 A 
ATOM     24  C   UNL     1       2.198   3.885  19.884  0.00  0.00    +0.000 A 
BRANCH  24  25
ATOM     25  O   UNL     1       2.693   4.069  21.153  0.00  0.00    +0.000 OA
ATOM     26  C   UNL     1       2.230   3.118  22.113  0.00  0.00    +0.000 C 
ENDBRANCH  24  25
ENDBRANCH  10  19
BRANCH   6  27
ATOM     27  C   UNL     1      -0.301  11.141  20.631  0.00  0.00    +0.000 C 
ATOM     28  O   UNL     1      -1.283  11.684  20.147  0.00  0.00    +0.000 OA
BRANCH  27  29
ATOM     29  O   UNL     1       0.143  11.449  21.863  0.00  0.00    +0.000 OA
ATOM     30  H   UNL     1       0.242  12.386  22.096  0.00  0.00    +0.000 HD
ENDBRANCH  27  29
ENDBRANCH   6  27
TORSDOF 6
ENDMDL
MODEL 7
REMARK VINA RESULT:      -7.2      6.150      9.002
REMARK  Name = 
REMARK  8 active torsions:
REMARK  status: ('A' for Active; 'I' for Inactive)
REMARK    1  A    between atoms: C_1  and  O_2
REMARK    2  A    between atoms: O_2  and  C_3
REMARK    3  A    between atoms: C_8  and  C_9
REMARK    4  A    between atoms: C_14  and  C_15
REMARK    5  A    between atoms: C_15  and  O_17
REMARK    6  A    between atoms: C_21  and  C_22
REMARK    7  A    between atoms: C_27  and  O_28
REMARK    8  A    between atoms: O_28  and  C_29
REMARK                            x       y       z     vdW  Elec       q    Type
REMARK                         _______ _______ _______ _____ _____    ______ ____
ROOT
ATOM      1  C   UNL     1      -0.177  12.441  18.845  0.00  0.00    +0.000 A 
ATOM      2  N   UNL     1      -0.126  13.708  18.373  0.00  0.00    +0.000 NA
ATOM      3  C   UNL     1       0.966  14.430  18.733  0.00  0.00    +0.000 A 
ATOM      4  C   UNL     1       1.008  15.819  18.819  0.00  0.00    +0.000 A 
ATOM      5  C   UNL     1       2.209  16.488  19.077  0.00  0.00    +0.000 A 
ATOM      6  C   UNL     1       3.415  15.775  19.068  0.00  0.00    +0.000 A 
ATOM      7  C   UNL     1       3.343  14.386  19.127  0.00  0.00    +0.000 A 
ATOM      8  C   UNL     1       2.097  13.775  19.225  0.00  0.00    +0.000 A 
ATOM      9  N   UNL     1       1.912  12.646  19.920  0.00  0.00    +0.000 NA
ATOM     10  C   UNL     1       0.634  12.185  19.949  0.00  0.00    +0.000 A 
ENDROOT
BRANCH   1  16
ATOM     11  C   UNL     1      -2.664  11.852  18.791  0.00  0.00    +0.000 A 
ATOM     12  C   UNL     1      -3.723  11.182  18.169  0.00  0.00    +0.000 A 
ATOM     13  C   UNL     1      -3.476  10.111  17.318  0.00  0.00    +0.000 A 
ATOM     14  C   UNL     1      -2.167   9.696  17.104  0.00  0.00    +0.000 A 
ATOM     15  C   UNL     1      -1.099  10.409  17.665  0.00  0.00    +0.000 A 
ATOM     16  C   UNL     1      -1.310  11.539  18.462  0.00  0.00    +0.000 A 
BRANCH  11  18
ATOM     17  C   UNL     1      -3.980  12.794  20.568  0.00  0.00    +0.000 C 
ATOM     18  O   UNL     1      -2.868  12.871  19.691  0.00  0.00    +0.000 OA
ENDBRANCH  11  18
ENDBRANCH   1  16
BRANCH  10  19
ATOM     19  C   UNL     1      -0.080  12.091  21.286  0.00  0.00    +0.000 A 
ATOM     20  C   UNL     1      -0.393  13.305  21.974  0.00  0.00    +0.000 A 
ATOM     21  C   UNL     1      -1.240  13.369  23.074  0.00  0.00    +0.000 A 
ATOM     22  C   UNL     1      -1.740  12.198  23.595  0.00  0.00    +0.000 A 
ATOM     23  C   UNL     1      -1.350  10.981  23.036  0.00  0.00    +0.000 A 
ATOM     24  C   UNL     1      -0.498  10.909  21.910  0.00  0.00    +0.000 A 
BRANCH  24  25
ATOM     25  O   UNL     1      -0.127   9.702  21.369  0.00  0.00    +0.000 OA
ATOM     26  C   UNL     1       0.977   9.074  22.021  0.00  0.00    +0.000 C 
ENDBRANCH  24  25
ENDBRANCH  10  19
BRANCH   6  27
ATOM     27  C   UNL     1       4.672  16.578  19.073  0.00  0.00    +0.000 C 
ATOM     28  O   UNL     1       5.706  16.154  18.578  0.00  0.00    +0.000 OA
BRANCH  27  29
ATOM     29  O   UNL     1       4.616  17.783  19.669  0.00  0.00    +0.000 OA
ATOM     30  H   UNL     1       3.772  18.069  20.052  0.00  0.00    +0.000 HD
ENDBRANCH  27  29
ENDBRANCH   6  27
TORSDOF 6
ENDMDL
MODEL 8
REMARK VINA RESULT:      -7.2      2.176      6.477
REMARK  Name = 
REMARK  8 active torsions:
REMARK  status: ('A' for Active; 'I' for Inactive)
REMARK    1  A    between atoms: C_1  and  O_2
REMARK    2  A    between atoms: O_2  and  C_3
REMARK    3  A    between atoms: C_8  and  C_9
REMARK    4  A    between atoms: C_14  and  C_15
REMARK    5  A    between atoms: C_15  and  O_17
REMARK    6  A    between atoms: C_21  and  C_22
REMARK    7  A    between atoms: C_27  and  O_28
REMARK    8  A    between atoms: O_28  and  C_29
REMARK                            x       y       z     vdW  Elec       q    Type
REMARK                         _______ _______ _______ _____ _____    ______ ____
ROOT
ATOM      1  C   UNL     1       2.932   6.957  18.649  0.00  0.00    +0.000 A 
ATOM      2  N   UNL     1       4.234   7.290  18.487  0.00  0.00    +0.000 NA
ATOM      3  C   UNL     1       4.938   6.521  17.618  0.00  0.00    +0.000 A 
ATOM      4  C   UNL     1       6.316   6.327  17.663  0.00  0.00    +0.000 A 
ATOM      5  C   UNL     1       6.976   5.619  16.654  0.00  0.00    +0.000 A 
ATOM      6  C   UNL     1       6.282   5.256  15.493  0.00  0.00    +0.000 A 
ATOM      7  C   UNL     1       4.892   5.326  15.525  0.00  0.00    +0.000 A 
ATOM      8  C   UNL     1       4.260   5.713  16.703  0.00  0.00    +0.000 A 
ATOM      9  N   UNL     1       3.076   5.208  17.073  0.00  0.00    +0.000 NA
ATOM     10  C   UNL     1       2.599   5.661  18.262  0.00  0.00    +0.000 A 
ENDROOT
BRANCH   1  16
ATOM     11  C   UNL     1       1.426   8.975  19.086  0.00  0.00    +0.000 A 
ATOM     12  C   UNL     1       0.374   9.552  19.807  0.00  0.00    +0.000 A 
ATOM     13  C   UNL     1       0.007   9.040  21.046  0.00  0.00    +0.000 A 
ATOM     14  C   UNL     1       0.706   7.961  21.575  0.00  0.00    +0.000 A 
ATOM     15  C   UNL     1       1.710   7.334  20.825  0.00  0.00    +0.000 A 
ATOM     16  C   UNL     1       2.050   7.775  19.542  0.00  0.00    +0.000 A 
BRANCH  11  18
ATOM     17  C   UNL     1       2.209  10.867  17.825  0.00  0.00    +0.000 C 
ATOM     18  O   UNL     1       1.865   9.492  17.889  0.00  0.00    +0.000 OA
ENDBRANCH  11  18
ENDBRANCH   1  16
BRANCH  10  19
ATOM     19  C   UNL     1       2.388   4.668  19.391  0.00  0.00    +0.000 A 
ATOM     20  C   UNL     1       1.047   4.384  19.803  0.00  0.00    +0.000 A 
ATOM     21  C   UNL     1       0.708   3.335  20.650  0.00  0.00    +0.000 A 
ATOM     22  C   UNL     1       1.716   2.577  21.201  0.00  0.00    +0.000 A 
ATOM     23  C   UNL     1       3.044   2.906  20.932  0.00  0.00    +0.000 A 
ATOM     24  C   UNL     1       3.395   3.964  20.063  0.00  0.00    +0.000 A 
BRANCH  24  25
ATOM     25  O   UNL     1       4.709   4.272  19.805  0.00  0.00    +0.000 OA
ATOM     26  C   UNL     1       5.433   3.252  19.115  0.00  0.00    +0.000 C 
ENDBRANCH  24  25
ENDBRANCH  10  19
BRANCH   6  27
ATOM     27  C   UNL     1       7.097   4.756  14.348  0.00  0.00    +0.000 C 
ATOM     28  O   UNL     1       8.066   5.375  13.931  0.00  0.00    +0.000 OA
BRANCH  27  29
ATOM     29  O   UNL     1       6.699   3.602  13.783  0.00  0.00    +0.000 OA
ATOM     30  H   UNL     1       7.308   2.847  13.798  0.00  0.00    +0.000 HD
ENDBRANCH  27  29
ENDBRANCH   6  27
TORSDOF 6
ENDMDL
MODEL 9
REMARK VINA RESULT:      -7.2      6.154      9.180
REMARK  Name = 
REMARK  8 active torsions:
REMARK  status: ('A' for Active; 'I' for Inactive)
REMARK    1  A    between atoms: C_1  and  O_2
REMARK    2  A    between atoms: O_2  and  C_3
REMARK    3  A    between atoms: C_8  and  C_9
REMARK    4  A    between atoms: C_14  and  C_15
REMARK    5  A    between atoms: C_15  and  O_17
REMARK    6  A    between atoms: C_21  and  C_22
REMARK    7  A    between atoms: C_27  and  O_28
REMARK    8  A    between atoms: O_28  and  C_29
REMARK                            x       y       z     vdW  Elec       q    Type
REMARK                         _______ _______ _______ _____ _____    ______ ____
ROOT
ATOM      1  C   UNL     1      -1.182  13.882  21.260  0.00  0.00    +0.000 A 
ATOM      2  N   UNL     1      -2.375  14.482  21.038  0.00  0.00    +0.000 NA
ATOM      3  C   UNL     1      -3.453  13.884  21.608  0.00  0.00    +0.000 A 
ATOM      4  C   UNL     1      -4.759  13.982  21.136  0.00  0.00    +0.000 A 
ATOM      5  C   UNL     1      -5.827  13.436  21.854  0.00  0.00    +0.000 A 
ATOM      6  C   UNL     1      -5.613  12.945  23.148  0.00  0.00    +0.000 A 
ATOM      7  C   UNL     1      -4.296  12.722  23.544  0.00  0.00    +0.000 A 
ATOM      8  C   UNL     1      -3.268  12.959  22.638  0.00  0.00    +0.000 A 
ATOM      9  N   UNL     1      -2.155  12.215  22.616  0.00  0.00    +0.000 NA
ATOM     10  C   UNL     1      -1.253  12.548  21.656  0.00  0.00    +0.000 A 
ENDROOT
BRANCH   1  16
ATOM     11  C   UNL     1       1.076  15.033  21.590  0.00  0.00    +0.000 A 
ATOM     12  C   UNL     1       2.363  15.306  21.113  0.00  0.00    +0.000 A 
ATOM     13  C   UNL     1       2.653  15.178  19.760  0.00  0.00    +0.000 A 
ATOM     14  C   UNL     1       1.650  14.794  18.878  0.00  0.00    +0.000 A 
ATOM     15  C   UNL     1       0.380  14.449  19.361  0.00  0.00    +0.000 A 
ATOM     16  C   UNL     1       0.078  14.491  20.726  0.00  0.00    +0.000 A 
BRANCH  11  18
ATOM     17  C   UNL     1       0.408  16.519  23.358  0.00  0.00    +0.000 C 
ATOM     18  O   UNL     1       0.729  15.212  22.909  0.00  0.00    +0.000 OA
ENDBRANCH  11  18
ENDBRANCH   1  16
BRANCH  10  19
ATOM     19  C   UNL     1      -0.908  11.524  20.589  0.00  0.00    +0.000 A 
ATOM     20  C   UNL     1      -1.713  11.480  19.406  0.00  0.00    +0.000 A 
ATOM     21  C   UNL     1      -1.368  10.762  18.267  0.00  0.00    +0.000 A 
ATOM     22  C   UNL     1      -0.240   9.975  18.297  0.00  0.00    +0.000 A 
ATOM     23  C   UNL     1       0.499   9.884  19.476  0.00  0.00    +0.000 A 
ATOM     24  C   UNL     1       0.160  10.620  20.635  0.00  0.00    +0.000 A 
BRANCH  24  25
ATOM     25  O   UNL     1       0.902  10.522  21.787  0.00  0.00    +0.000 OA
ATOM     26  C   UNL     1       0.679   9.327  22.536  0.00  0.00    +0.000 C 
ENDBRANCH  24  25
ENDBRANCH  10  19
BRANCH   6  27
ATOM     27  C   UNL     1      -6.825  12.636  23.961  0.00  0.00    +0.000 C 
ATOM     28  O   UNL     1      -7.323  11.520  23.971  0.00  0.00    +0.000 OA
BRANCH  27  29
ATOM     29  O   UNL     1      -7.356  13.654  24.664  0.00  0.00    +0.000 OA
ATOM     30  H   UNL     1      -8.182  13.498  25.148  0.00  0.00    +0.000 HD
ENDBRANCH  27  29
ENDBRANCH   6  27
TORSDOF 6
ENDMDL
