MODEL 1
REMARK VINA RESULT:      -7.4      0.000      0.000
REMARK  Name = 
REMARK  10 active torsions:
REMARK  status: ('A' for Active; 'I' for Inactive)
REMARK    1  A    between atoms: N_4  and  C_5
REMARK    2  A    between atoms: C_8  and  C_9
REMARK    3  A    between atoms: C_9  and  N_10
REMARK    4  A    between atoms: C_11  and  C_13
REMARK    5  A    between atoms: C_17  and  C_19
REMARK    6  A    between atoms: C_19  and  N_20
REMARK    7  A    between atoms: C_19  and  C_25
REMARK    8  A    between atoms: N_20  and  C_21
REMARK    9  A    between atoms: C_21  and  C_22
REMARK   10  A    between atoms: C_22  and  O_24
REMARK                            x       y       z     vdW  Elec       q    Type
REMARK                         _______ _______ _______ _____ _____    ______ ____
ROOT
ATOM      1  C   UNL     1       0.898  10.961  18.535  0.00  0.00    +0.000 C 
ATOM      2  C   UNL     1       2.401  11.292  18.386  0.00  0.00    +0.000 C 
ATOM      3  C   UNL     1       1.965  12.739  18.159  0.00  0.00    +0.000 C 
ATOM      4  N   UNL     1       0.765  12.389  18.942  0.00  0.00    +0.000 N 
ATOM      5  C   UNL     1      -0.376  13.165  18.913  0.00  0.00    +0.000 C 
ATOM      6  O   UNL     1      -0.453  14.159  18.186  0.00  0.00    +0.000 OA
ENDROOT
BRANCH   1   8
ATOM      7  N   UNL     1       1.528   8.917  19.782  0.00  0.00    +0.000 N 
ATOM      8  C   UNL     1       0.528   9.858  19.585  0.00  0.00    +0.000 C 
ATOM      9  O   UNL     1      -0.544   9.796  20.188  0.00  0.00    +0.000 OA
ATOM     10  H   UNL     1       2.450   9.082  19.397  0.00  0.00    +0.000 HD
BRANCH   7  11
ATOM     11  C   UNL     1       1.414   7.859  20.765  0.00  0.00    +0.000 C 
BRANCH  11  15
ATOM     12  C   UNL     1       2.604   4.029  19.081  0.00  0.00    +0.000 A 
ATOM     13  C   UNL     1       3.014   5.242  18.506  0.00  0.00    +0.000 A 
ATOM     14  C   UNL     1       2.636   6.473  19.053  0.00  0.00    +0.000 A 
ATOM     15  C   UNL     1       1.837   6.528  20.199  0.00  0.00    +0.000 A 
ATOM     16  C   UNL     1       1.439   5.323  20.792  0.00  0.00    +0.000 A 
ATOM     17  C   UNL     1       1.835   4.093  20.247  0.00  0.00    +0.000 A 
BRANCH  12  21
ATOM     18  N   UNL     1       4.886   2.195  19.853  0.00  0.00    +0.000 NA
ATOM     19  C   UNL     1       4.019   1.976  18.930  0.00  0.00    +0.000 C 
ATOM     20  N   UNL     1       4.017   0.799  18.256  0.00  0.00    +0.000 N 
ATOM     21  N   UNL     1       3.051   2.829  18.498  0.00  0.00    +0.000 N 
ATOM     22  H   UNL     1       5.488   1.381  19.973  0.00  0.00    +0.000 HD
ATOM     23  H   UNL     1       4.860   0.245  18.355  0.00  0.00    +0.000 HD
ATOM     24  H   UNL     1       3.715   0.837  17.292  0.00  0.00    +0.000 HD
ATOM     25  H   UNL     1       2.461   2.511  17.745  0.00  0.00    +0.000 HD
ENDBRANCH  12  21
ENDBRANCH  11  15
ENDBRANCH   7  11
ENDBRANCH   1   8
BRANCH   5  26
ATOM     26  C   UNL     1      -1.546  12.748  19.847  0.00  0.00    +0.000 C 
BRANCH  26  27
ATOM     27  C   UNL     1      -1.585  13.650  21.133  0.00  0.00    +0.000 C 
ATOM     28  C   UNL     1      -3.009  13.926  21.655  0.00  0.00    +0.000 C 
ATOM     29  C   UNL     1      -3.663  12.708  22.305  0.00  0.00    +0.000 C 
ATOM     30  C   UNL     1      -2.801  12.099  23.408  0.00  0.00    +0.000 C 
ATOM     31  C   UNL     1      -1.353  11.877  22.984  0.00  0.00    +0.000 C 
ATOM     32  C   UNL     1      -0.744  13.100  22.307  0.00  0.00    +0.000 C 
ENDBRANCH  26  27
BRANCH  26  33
ATOM     33  N   UNL     1      -2.841  12.748  19.085  0.00  0.00    +0.000 NA
ATOM     34  H   UNL     1      -3.531  13.219  19.675  0.00  0.00    +0.000 HD
BRANCH  33  35
ATOM     35  C   UNL     1      -3.351  11.380  18.797  0.00  0.00    +0.000 C 
BRANCH  35  36
ATOM     36  C   UNL     1      -2.750  10.897  17.477  0.00  0.00    +0.000 C 
ATOM     37  O   UNL     1      -2.428   9.740  17.232  0.00  0.00    +0.000 OA
BRANCH  36  38
ATOM     38  O   UNL     1      -2.595  11.912  16.590  0.00  0.00    +0.000 OA
ATOM     39  H   UNL     1      -3.209  11.732  15.839  0.00  0.00    +0.000 HD
ENDBRANCH  36  38
ENDBRANCH  35  36
ENDBRANCH  33  35
ENDBRANCH  26  33
ENDBRANCH   5  26
TORSDOF 10
ENDMDL
MODEL 2
REMARK VINA RESULT:      -7.4      2.095      3.770
REMARK  Name = 
REMARK  10 active torsions:
REMARK  status: ('A' for Active; 'I' for Inactive)
REMARK    1  A    between atoms: N_4  and  C_5
REMARK    2  A    between atoms: C_8  and  C_9
REMARK    3  A    between atoms: C_9  and  N_10
REMARK    4  A    between atoms: C_11  and  C_13
REMARK    5  A    between atoms: C_17  and  C_19
REMARK    6  A    between atoms: C_19  and  N_20
REMARK    7  A    between atoms: C_19  and  C_25
REMARK    8  A    between atoms: N_20  and  C_21
REMARK    9  A    between atoms: C_21  and  C_22
REMARK   10  A    between atoms: C_22  and  O_24
REMARK                            x       y       z     vdW  Elec       q    Type
REMARK                         _______ _______ _______ _____ _____    ______ ____
ROOT
ATOM      1  C   UNL     1      -1.018  10.337  18.582  0.00  0.00    +0.000 C 
ATOM      2  C   UNL     1      -1.894  10.452  17.314  0.00  0.00    +0.000 C 
ATOM      3  C   UNL     1      -2.813  11.350  18.141  0.00  0.00    +0.000 C 
ATOM      4  N   UNL     1      -1.615  11.654  18.946  0.00  0.00    +0.000 N 
ATOM      5  C   UNL     1      -1.706  12.212  20.206  0.00  0.00    +0.000 C 
ATOM      6  O   UNL     1      -2.801  12.433  20.728  0.00  0.00    +0.000 OA
ENDROOT
BRANCH   1   8
ATOM      7  N   UNL     1       0.982   9.013  17.971  0.00  0.00    +0.000 N 
ATOM      8  C   UNL     1       0.531  10.267  18.356  0.00  0.00    +0.000 C 
ATOM      9  O   UNL     1       1.305  11.213  18.509  0.00  0.00    +0.000 OA
ATOM     10  H   UNL     1       0.312   8.304  17.701  0.00  0.00    +0.000 HD
BRANCH   7  11
ATOM     11  C   UNL     1       2.369   8.757  17.641  0.00  0.00    +0.000 C 
BRANCH  11  15
ATOM     12  C   UNL     1       3.750   4.989  19.319  0.00  0.00    +0.000 A 
ATOM     13  C   UNL     1       4.320   5.526  18.154  0.00  0.00    +0.000 A 
ATOM     14  C   UNL     1       3.880   6.742  17.619  0.00  0.00    +0.000 A 
ATOM     15  C   UNL     1       2.853   7.462  18.240  0.00  0.00    +0.000 A 
ATOM     16  C   UNL     1       2.291   6.944  19.412  0.00  0.00    +0.000 A 
ATOM     17  C   UNL     1       2.749   5.732  19.950  0.00  0.00    +0.000 A 
BRANCH  12  21
ATOM     18  N   UNL     1       3.408   2.145  18.335  0.00  0.00    +0.000 NA
ATOM     19  C   UNL     1       4.175   2.527  19.294  0.00  0.00    +0.000 C 
ATOM     20  N   UNL     1       4.996   1.641  19.910  0.00  0.00    +0.000 N 
ATOM     21  N   UNL     1       4.267   3.779  19.819  0.00  0.00    +0.000 N 
ATOM     22  H   UNL     1       3.549   1.154  18.144  0.00  0.00    +0.000 HD
ATOM     23  H   UNL     1       4.782   0.666  19.739  0.00  0.00    +0.000 HD
ATOM     24  H   UNL     1       5.178   1.809  20.891  0.00  0.00    +0.000 HD
ATOM     25  H   UNL     1       4.905   3.910  20.587  0.00  0.00    +0.000 HD
ENDBRANCH  12  21
ENDBRANCH  11  15
ENDBRANCH   7  11
ENDBRANCH   1   8
BRANCH   5  26
ATOM     26  C   UNL     1      -0.375  12.571  20.924  0.00  0.00    +0.000 C 
BRANCH  26  27
ATOM     27  C   UNL     1      -0.296  14.112  21.221  0.00  0.00    +0.000 C 
ATOM     28  C   UNL     1       1.021  14.547  21.894  0.00  0.00    +0.000 C 
ATOM     29  C   UNL     1       2.223  14.513  20.951  0.00  0.00    +0.000 C 
ATOM     30  C   UNL     1       1.988  15.314  19.673  0.00  0.00    +0.000 C 
ATOM     31  C   UNL     1       0.659  14.992  18.999  0.00  0.00    +0.000 C 
ATOM     32  C   UNL     1      -0.513  14.999  19.975  0.00  0.00    +0.000 C 
ENDBRANCH  26  27
BRANCH  26  33
ATOM     33  N   UNL     1      -0.207  11.722  22.153  0.00  0.00    +0.000 NA
ATOM     34  H   UNL     1       0.353  12.267  22.814  0.00  0.00    +0.000 HD
BRANCH  33  35
ATOM     35  C   UNL     1       0.517  10.448  21.890  0.00  0.00    +0.000 C 
BRANCH  35  36
ATOM     36  C   UNL     1      -0.205   9.312  22.613  0.00  0.00    +0.000 C 
ATOM     37  O   UNL     1      -0.794   8.389  22.061  0.00  0.00    +0.000 OA
BRANCH  36  38
ATOM     38  O   UNL     1      -0.135   9.444  23.961  0.00  0.00    +0.000 OA
ATOM     39  H   UNL     1      -0.884   8.924  24.339  0.00  0.00    +0.000 HD
ENDBRANCH  36  38
ENDBRANCH  35  36
ENDBRANCH  33  35
ENDBRANCH  26  33
ENDBRANCH   5  26
TORSDOF 10
ENDMDL
MODEL 3
REMARK VINA RESULT:      -7.3      2.110      4.053
REMARK  Name = 
REMARK  10 active torsions:
REMARK  status: ('A' for Active; 'I' for Inactive)
REMARK    1  A    between atoms: N_4  and  C_5
REMARK    2  A    between atoms: C_8  and  C_9
REMARK    3  A    between atoms: C_9  and  N_10
REMARK    4  A    between atoms: C_11  and  C_13
REMARK    5  A    between atoms: C_17  and  C_19
REMARK    6  A    between atoms: C_19  and  N_20
REMARK    7  A    between atoms: C_19  and  C_25
REMARK    8  A    between atoms: N_20  and  C_21
REMARK    9  A    between atoms: C_21  and  C_22
REMARK   10  A    between atoms: C_22  and  O_24
REMARK                            x       y       z     vdW  Elec       q    Type
REMARK                         _______ _______ _______ _____ _____    ______ ____
ROOT
ATOM      1  C   UNL     1       0.819  10.152  20.033  0.00  0.00    +0.000 C 
ATOM      2  C   UNL     1       0.885   9.208  21.255  0.00  0.00    +0.000 C 
ATOM      3  C   UNL     1      -0.328   9.968  21.791  0.00  0.00    +0.000 C 
ATOM      4  N   UNL     1      -0.626  10.276  20.380  0.00  0.00    +0.000 N 
ATOM      5  C   UNL     1      -1.489  11.292  20.023  0.00  0.00    +0.000 C 
ATOM      6  O   UNL     1      -2.007  12.019  20.875  0.00  0.00    +0.000 OA
ENDROOT
BRANCH   1   8
ATOM      7  N   UNL     1       2.458   8.957  18.613  0.00  0.00    +0.000 N 
ATOM      8  C   UNL     1       1.192   9.524  18.646  0.00  0.00    +0.000 C 
ATOM      9  O   UNL     1       0.460   9.528  17.655  0.00  0.00    +0.000 OA
ATOM     10  H   UNL     1       2.968   8.828  19.478  0.00  0.00    +0.000 HD
BRANCH   7  11
ATOM     11  C   UNL     1       2.963   8.260  17.449  0.00  0.00    +0.000 C 
BRANCH  11  15
ATOM     12  C   UNL     1       4.055   4.168  18.441  0.00  0.00    +0.000 A 
ATOM     13  C   UNL     1       3.014   4.832  19.108  0.00  0.00    +0.000 A 
ATOM     14  C   UNL     1       2.659   6.145  18.784  0.00  0.00    +0.000 A 
ATOM     15  C   UNL     1       3.337   6.836  17.773  0.00  0.00    +0.000 A 
ATOM     16  C   UNL     1       4.364   6.176  17.088  0.00  0.00    +0.000 A 
ATOM     17  C   UNL     1       4.702   4.854  17.409  0.00  0.00    +0.000 A 
BRANCH  12  21
ATOM     18  N   UNL     1       2.501   1.623  17.914  0.00  0.00    +0.000 NA
ATOM     19  C   UNL     1       3.664   1.701  18.458  0.00  0.00    +0.000 C 
ATOM     20  N   UNL     1       4.350   0.574  18.773  0.00  0.00    +0.000 N 
ATOM     21  N   UNL     1       4.334   2.835  18.797  0.00  0.00    +0.000 N 
ATOM     22  H   UNL     1       2.244   0.648  17.767  0.00  0.00    +0.000 HD
ATOM     23  H   UNL     1       3.799  -0.276  18.783  0.00  0.00    +0.000 HD
ATOM     24  H   UNL     1       4.951   0.630  19.584  0.00  0.00    +0.000 HD
ATOM     25  H   UNL     1       5.233   2.723  19.238  0.00  0.00    +0.000 HD
ENDBRANCH  12  21
ENDBRANCH  11  15
ENDBRANCH   7  11
ENDBRANCH   1   8
BRANCH   5  26
ATOM     26  C   UNL     1      -1.796  11.467  18.509  0.00  0.00    +0.000 C 
BRANCH  26  27
ATOM     27  C   UNL     1      -3.226  10.919  18.161  0.00  0.00    +0.000 C 
ATOM     28  C   UNL     1      -3.950  11.725  17.064  0.00  0.00    +0.000 C 
ATOM     29  C   UNL     1      -3.364  11.514  15.670  0.00  0.00    +0.000 C 
ATOM     30  C   UNL     1      -3.288  10.039  15.283  0.00  0.00    +0.000 C 
ATOM     31  C   UNL     1      -2.656   9.168  16.363  0.00  0.00    +0.000 C 
ATOM     32  C   UNL     1      -3.240   9.430  17.747  0.00  0.00    +0.000 C 
ENDBRANCH  26  27
BRANCH  26  33
ATOM     33  N   UNL     1      -1.598  12.901  18.105  0.00  0.00    +0.000 NA
ATOM     34  H   UNL     1      -1.803  12.957  17.104  0.00  0.00    +0.000 HD
BRANCH  33  35
ATOM     35  C   UNL     1      -0.203  13.379  18.308  0.00  0.00    +0.000 C 
BRANCH  35  36
ATOM     36  C   UNL     1      -0.234  14.642  19.167  0.00  0.00    +0.000 C 
ATOM     37  O   UNL     1       0.726  15.377  19.374  0.00  0.00    +0.000 OA
BRANCH  36  38
ATOM     38  O   UNL     1      -1.463  14.862  19.700  0.00  0.00    +0.000 OA
ATOM     39  H   UNL     1      -2.013  15.271  18.991  0.00  0.00    +0.000 HD
ENDBRANCH  36  38
ENDBRANCH  35  36
ENDBRANCH  33  35
ENDBRANCH  26  33
ENDBRANCH   5  26
TORSDOF 10
ENDMDL
MODEL 4
REMARK VINA RESULT:      -7.3      4.021     10.411
REMARK  Name = 
REMARK  10 active torsions:
REMARK  status: ('A' for Active; 'I' for Inactive)
REMARK    1  A    between atoms: N_4  and  C_5
REMARK    2  A    between atoms: C_8  and  C_9
REMARK    3  A    between atoms: C_9  and  N_10
REMARK    4  A    between atoms: C_11  and  C_13
REMARK    5  A    between atoms: C_17  and  C_19
REMARK    6  A    between atoms: C_19  and  N_20
REMARK    7  A    between atoms: C_19  and  C_25
REMARK    8  A    between atoms: N_20  and  C_21
REMARK    9  A    between atoms: C_21  and  C_22
REMARK   10  A    between atoms: C_22  and  O_24
REMARK                            x       y       z     vdW  Elec       q    Type
REMARK                         _______ _______ _______ _____ _____    ______ ____
ROOT
ATOM      1  C   UNL     1       2.205   4.692  18.594  0.00  0.00    +0.000 C 
ATOM      2  C   UNL     1       1.394   4.158  19.796  0.00  0.00    +0.000 C 
ATOM      3  C   UNL     1       2.001   2.791  19.480  0.00  0.00    +0.000 C 
ATOM      4  N   UNL     1       3.114   3.544  18.873  0.00  0.00    +0.000 N 
ATOM      5  C   UNL     1       4.005   2.950  18.001  0.00  0.00    +0.000 C 
ATOM      6  O   UNL     1       3.872   1.773  17.657  0.00  0.00    +0.000 OA
ENDROOT
BRANCH   1   8
ATOM      7  N   UNL     1       2.066   7.099  18.032  0.00  0.00    +0.000 N 
ATOM      8  C   UNL     1       2.785   6.141  18.732  0.00  0.00    +0.000 C 
ATOM      9  O   UNL     1       3.790   6.436  19.383  0.00  0.00    +0.000 OA
ATOM     10  H   UNL     1       1.163   6.858  17.642  0.00  0.00    +0.000 HD
BRANCH   7  11
ATOM     11  C   UNL     1       2.393   8.509  18.090  0.00  0.00    +0.000 C 
BRANCH  11  15
ATOM     12  C   UNL     1      -0.917  10.909  19.575  0.00  0.00    +0.000 A 
ATOM     13  C   UNL     1      -0.850  10.501  18.233  0.00  0.00    +0.000 A 
ATOM     14  C   UNL     1       0.211   9.724  17.759  0.00  0.00    +0.000 A 
ATOM     15  C   UNL     1       1.241   9.325  18.618  0.00  0.00    +0.000 A 
ATOM     16  C   UNL     1       1.174   9.711  19.962  0.00  0.00    +0.000 A 
ATOM     17  C   UNL     1       0.098  10.477  20.433  0.00  0.00    +0.000 A 
BRANCH  12  21
ATOM     18  N   UNL     1      -1.392  13.900  19.560  0.00  0.00    +0.000 NA
ATOM     19  C   UNL     1      -2.253  12.998  19.877  0.00  0.00    +0.000 C 
ATOM     20  N   UNL     1      -3.533  13.343  20.161  0.00  0.00    +0.000 N 
ATOM     21  N   UNL     1      -2.032  11.661  19.990  0.00  0.00    +0.000 N 
ATOM     22  H   UNL     1      -1.832  14.819  19.547  0.00  0.00    +0.000 HD
ATOM     23  H   UNL     1      -3.683  14.328  20.343  0.00  0.00    +0.000 HD
ATOM     24  H   UNL     1      -4.009  12.768  20.843  0.00  0.00    +0.000 HD
ATOM     25  H   UNL     1      -2.813  11.088  20.270  0.00  0.00    +0.000 HD
ENDBRANCH  12  21
ENDBRANCH  11  15
ENDBRANCH   7  11
ENDBRANCH   1   8
BRANCH   5  26
ATOM     26  C   UNL     1       5.191   3.818  17.494  0.00  0.00    +0.000 C 
BRANCH  26  27
ATOM     27  C   UNL     1       4.732   4.769  16.330  0.00  0.00    +0.000 C 
ATOM     28  C   UNL     1       5.592   6.041  16.192  0.00  0.00    +0.000 C 
ATOM     29  C   UNL     1       6.985   5.771  15.626  0.00  0.00    +0.000 C 
ATOM     30  C   UNL     1       6.943   5.011  14.303  0.00  0.00    +0.000 C 
ATOM     31  C   UNL     1       6.040   3.783  14.346  0.00  0.00    +0.000 C 
ATOM     32  C   UNL     1       4.671   4.080  14.949  0.00  0.00    +0.000 C 
ENDBRANCH  26  27
BRANCH  26  33
ATOM     33  N   UNL     1       5.823   4.552  18.643  0.00  0.00    +0.000 NA
ATOM     34  H   UNL     1       5.533   5.530  18.564  0.00  0.00    +0.000 HD
BRANCH  33  35
ATOM     35  C   UNL     1       7.311   4.517  18.612  0.00  0.00    +0.000 C 
BRANCH  35  36
ATOM     36  C   UNL     1       7.848   5.759  19.321  0.00  0.00    +0.000 C 
ATOM     37  O   UNL     1       8.115   6.823  18.773  0.00  0.00    +0.000 OA
BRANCH  36  38
ATOM     38  O   UNL     1       8.016   5.550  20.652  0.00  0.00    +0.000 OA
ATOM     39  H   UNL     1       8.942   5.812  20.868  0.00  0.00    +0.000 HD
ENDBRANCH  36  38
ENDBRANCH  35  36
ENDBRANCH  33  35
ENDBRANCH  26  33
ENDBRANCH   5  26
TORSDOF 10
ENDMDL
MODEL 5
REMARK VINA RESULT:      -7.3      1.825      3.660
REMARK  Name = 
REMARK  10 active torsions:
REMARK  status: ('A' for Active; 'I' for Inactive)
REMARK    1  A    between atoms: N_4  and  C_5
REMARK    2  A    between atoms: C_8  and  C_9
REMARK    3  A    between atoms: C_9  and  N_10
REMARK    4  A    between atoms: C_11  and  C_13
REMARK    5  A    between atoms: C_17  and  C_19
REMARK    6  A    between atoms: C_19  and  N_20
REMARK    7  A    between atoms: C_19  and  C_25
REMARK    8  A    between atoms: N_20  and  C_21
REMARK    9  A    between atoms: C_21  and  C_22
REMARK   10  A    between atoms: C_22  and  O_24
REMARK                            x       y       z     vdW  Elec       q    Type
REMARK                         _______ _______ _______ _____ _____    ______ ____
ROOT
ATOM      1  C   UNL     1      -1.303  10.152  19.174  0.00  0.00    +0.000 C 
ATOM      2  C   UNL     1      -2.066  10.240  17.833  0.00  0.00    +0.000 C 
ATOM      3  C   UNL     1      -2.879  11.364  18.475  0.00  0.00    +0.000 C 
ATOM      4  N   UNL     1      -1.702  11.580  19.337  0.00  0.00    +0.000 N 
ATOM      5  C   UNL     1      -1.783  12.297  20.513  0.00  0.00    +0.000 C 
ATOM      6  O   UNL     1      -2.860  12.745  20.915  0.00  0.00    +0.000 OA
ENDROOT
BRANCH   1   8
ATOM      7  N   UNL     1       0.716   9.152  20.200  0.00  0.00    +0.000 N 
ATOM      8  C   UNL     1       0.226   9.821  19.087  0.00  0.00    +0.000 C 
ATOM      9  O   UNL     1       0.956  10.122  18.141  0.00  0.00    +0.000 OA
ATOM     10  H   UNL     1       0.068   8.780  20.883  0.00  0.00    +0.000 HD
BRANCH   7  11
ATOM     11  C   UNL     1       2.086   8.689  20.284  0.00  0.00    +0.000 C 
BRANCH  11  15
ATOM     12  C   UNL     1       2.418   4.548  18.997  0.00  0.00    +0.000 A 
ATOM     13  C   UNL     1       2.915   5.601  18.214  0.00  0.00    +0.000 A 
ATOM     14  C   UNL     1       2.813   6.932  18.632  0.00  0.00    +0.000 A 
ATOM     15  C   UNL     1       2.213   7.250  19.855  0.00  0.00    +0.000 A 
ATOM     16  C   UNL     1       1.732   6.205  20.652  0.00  0.00    +0.000 A 
ATOM     17  C   UNL     1       1.852   4.872  20.232  0.00  0.00    +0.000 A 
BRANCH  12  21
ATOM     18  N   UNL     1       4.754   2.641  19.278  0.00  0.00    +0.000 NA
ATOM     19  C   UNL     1       3.611   2.365  18.759  0.00  0.00    +0.000 C 
ATOM     20  N   UNL     1       3.328   1.102  18.354  0.00  0.00    +0.000 N 
ATOM     21  N   UNL     1       2.587   3.231  18.529  0.00  0.00    +0.000 N 
ATOM     22  H   UNL     1       5.328   1.800  19.336  0.00  0.00    +0.000 HD
ATOM     23  H   UNL     1       4.130   0.490  18.263  0.00  0.00    +0.000 HD
ATOM     24  H   UNL     1       2.709   1.016  17.559  0.00  0.00    +0.000 HD
ATOM     25  H   UNL     1       1.759   2.858  18.091  0.00  0.00    +0.000 HD
ENDBRANCH  12  21
ENDBRANCH  11  15
ENDBRANCH   7  11
ENDBRANCH   1   8
BRANCH   5  26
ATOM     26  C   UNL     1      -0.461  12.537  21.294  0.00  0.00    +0.000 C 
BRANCH  26  27
ATOM     27  C   UNL     1       0.056  14.006  21.086  0.00  0.00    +0.000 C 
ATOM     28  C   UNL     1       1.496  14.235  21.586  0.00  0.00    +0.000 C 
ATOM     29  C   UNL     1       2.556  13.576  20.705  0.00  0.00    +0.000 C 
ATOM     30  C   UNL     1       2.432  13.980  19.238  0.00  0.00    +0.000 C 
ATOM     31  C   UNL     1       1.010  13.857  18.701  0.00  0.00    +0.000 C 
ATOM     32  C   UNL     1      -0.025  14.494  19.622  0.00  0.00    +0.000 C 
ENDBRANCH  26  27
BRANCH  26  33
ATOM     33  N   UNL     1      -0.642  12.173  22.741  0.00  0.00    +0.000 NA
ATOM     34  H   UNL     1       0.294  12.073  23.141  0.00  0.00    +0.000 HD
BRANCH  33  35
ATOM     35  C   UNL     1      -1.358  10.882  22.935  0.00  0.00    +0.000 C 
BRANCH  35  36
ATOM     36  C   UNL     1      -0.327   9.761  23.063  0.00  0.00    +0.000 C 
ATOM     37  O   UNL     1       0.874   9.927  23.244  0.00  0.00    +0.000 OA
BRANCH  36  38
ATOM     38  O   UNL     1      -0.894   8.535  22.936  0.00  0.00    +0.000 OA
ATOM     39  H   UNL     1      -1.841   8.629  23.195  0.00  0.00    +0.000 HD
ENDBRANCH  36  38
ENDBRANCH  35  36
ENDBRANCH  33  35
ENDBRANCH  26  33
ENDBRANCH   5  26
TORSDOF 10
ENDMDL
MODEL 6
REMARK VINA RESULT:      -7.2      2.187      3.752
REMARK  Name = 
REMARK  10 active torsions:
REMARK  status: ('A' for Active; 'I' for Inactive)
REMARK    1  A    between atoms: N_4  and  C_5
REMARK    2  A    between atoms: C_8  and  C_9
REMARK    3  A    between atoms: C_9  and  N_10
REMARK    4  A    between atoms: C_11  and  C_13
REMARK    5  A    between atoms: C_17  and  C_19
REMARK    6  A    between atoms: C_19  and  N_20
REMARK    7  A    between atoms: C_19  and  C_25
REMARK    8  A    between atoms: N_20  and  C_21
REMARK    9  A    between atoms: C_21  and  C_22
REMARK   10  A    between atoms: C_22  and  O_24
REMARK                            x       y       z     vdW  Elec       q    Type
REMARK                         _______ _______ _______ _____ _____    ______ ____
ROOT
ATOM      1  C   UNL     1      -0.714   9.956  18.468  0.00  0.00    +0.000 C 
ATOM      2  C   UNL     1      -1.614   9.955  17.211  0.00  0.00    +0.000 C 
ATOM      3  C   UNL     1      -2.549  10.877  17.992  0.00  0.00    +0.000 C 
ATOM      4  N   UNL     1      -1.349  11.275  18.752  0.00  0.00    +0.000 N 
ATOM      5  C   UNL     1      -1.439  11.915  19.972  0.00  0.00    +0.000 C 
ATOM      6  O   UNL     1      -2.532  12.135  20.498  0.00  0.00    +0.000 OA
ENDROOT
BRANCH   1   8
ATOM      7  N   UNL     1       1.350   8.640  18.100  0.00  0.00    +0.000 N 
ATOM      8  C   UNL     1       0.833   9.922  18.219  0.00  0.00    +0.000 C 
ATOM      9  O   UNL     1       1.553  10.919  18.143  0.00  0.00    +0.000 OA
ATOM     10  H   UNL     1       0.719   7.854  18.007  0.00  0.00    +0.000 HD
BRANCH   7  11
ATOM     11  C   UNL     1       2.744   8.394  17.792  0.00  0.00    +0.000 C 
BRANCH  11  15
ATOM     12  C   UNL     1       3.791   4.196  18.245  0.00  0.00    +0.000 A 
ATOM     13  C   UNL     1       4.712   5.132  17.751  0.00  0.00    +0.000 A 
ATOM     14  C   UNL     1       4.376   6.483  17.612  0.00  0.00    +0.000 A 
ATOM     15  C   UNL     1       3.104   6.941  17.970  0.00  0.00    +0.000 A 
ATOM     16  C   UNL     1       2.184   6.018  18.482  0.00  0.00    +0.000 A 
ATOM     17  C   UNL     1       2.534   4.668  18.633  0.00  0.00    +0.000 A 
BRANCH  12  21
ATOM     18  N   UNL     1       2.180   1.644  18.498  0.00  0.00    +0.000 NA
ATOM     19  C   UNL     1       3.459   1.725  18.401  0.00  0.00    +0.000 C 
ATOM     20  N   UNL     1       4.212   0.600  18.315  0.00  0.00    +0.000 N 
ATOM     21  N   UNL     1       4.209   2.860  18.390  0.00  0.00    +0.000 N 
ATOM     22  H   UNL     1       1.884   0.669  18.476  0.00  0.00    +0.000 HD
ATOM     23  H   UNL     1       3.738  -0.256  18.576  0.00  0.00    +0.000 HD
ATOM     24  H   UNL     1       5.135   0.648  18.727  0.00  0.00    +0.000 HD
ATOM     25  H   UNL     1       5.209   2.750  18.330  0.00  0.00    +0.000 HD
ENDBRANCH  12  21
ENDBRANCH  11  15
ENDBRANCH   7  11
ENDBRANCH   1   8
BRANCH   5  26
ATOM     26  C   UNL     1      -0.109  12.366  20.639  0.00  0.00    +0.000 C 
BRANCH  26  27
ATOM     27  C   UNL     1      -0.082  13.924  20.838  0.00  0.00    +0.000 C 
ATOM     28  C   UNL     1       1.076  14.417  21.728  0.00  0.00    +0.000 C 
ATOM     29  C   UNL     1       2.442  14.328  21.049  0.00  0.00    +0.000 C 
ATOM     30  C   UNL     1       2.471  15.036  19.697  0.00  0.00    +0.000 C 
ATOM     31  C   UNL     1       1.301  14.656  18.796  0.00  0.00    +0.000 C 
ATOM     32  C   UNL     1      -0.042  14.721  19.516  0.00  0.00    +0.000 C 
ENDBRANCH  26  27
BRANCH  26  33
ATOM     33  N   UNL     1       0.113  11.603  21.915  0.00  0.00    +0.000 NA
ATOM     34  H   UNL     1       0.528  12.258  22.583  0.00  0.00    +0.000 HD
BRANCH  33  35
ATOM     35  C   UNL     1       1.055  10.461  21.757  0.00  0.00    +0.000 C 
BRANCH  35  36
ATOM     36  C   UNL     1       0.280   9.155  21.926  0.00  0.00    +0.000 C 
ATOM     37  O   UNL     1      -0.699   9.006  22.650  0.00  0.00    +0.000 OA
BRANCH  36  38
ATOM     38  O   UNL     1       0.810   8.151  21.183  0.00  0.00    +0.000 OA
ATOM     39  H   UNL     1       1.557   8.539  20.669  0.00  0.00    +0.000 HD
ENDBRANCH  36  38
ENDBRANCH  35  36
ENDBRANCH  33  35
ENDBRANCH  26  33
ENDBRANCH   5  26
TORSDOF 10
ENDMDL
MODEL 7
REMARK VINA RESULT:      -7.2      4.073     10.098
REMARK  Name = 
REMARK  10 active torsions:
REMARK  status: ('A' for Active; 'I' for Inactive)
REMARK    1  A    between atoms: N_4  and  C_5
REMARK    2  A    between atoms: C_8  and  C_9
REMARK    3  A    between atoms: C_9  and  N_10
REMARK    4  A    between atoms: C_11  and  C_13
REMARK    5  A    between atoms: C_17  and  C_19
REMARK    6  A    between atoms: C_19  and  N_20
REMARK    7  A    between atoms: C_19  and  C_25
REMARK    8  A    between atoms: N_20  and  C_21
REMARK    9  A    between atoms: C_21  and  C_22
REMARK   10  A    between atoms: C_22  and  O_24
REMARK                            x       y       z     vdW  Elec       q    Type
REMARK                         _______ _______ _______ _____ _____    ______ ____
ROOT
ATOM      1  C   UNL     1       1.979   3.966  19.499  0.00  0.00    +0.000 C 
ATOM      2  C   UNL     1       1.364   3.742  20.899  0.00  0.00    +0.000 C 
ATOM      3  C   UNL     1       2.543   2.807  21.166  0.00  0.00    +0.000 C 
ATOM      4  N   UNL     1       3.267   3.604  20.159  0.00  0.00    +0.000 N 
ATOM      5  C   UNL     1       4.417   3.141  19.552  0.00  0.00    +0.000 C 
ATOM      6  O   UNL     1       4.856   2.014  19.795  0.00  0.00    +0.000 OA
ENDROOT
BRANCH   1   8
ATOM      7  N   UNL     1       2.330   6.406  19.726  0.00  0.00    +0.000 N 
ATOM      8  C   UNL     1       1.839   5.407  18.898  0.00  0.00    +0.000 C 
ATOM      9  O   UNL     1       1.335   5.665  17.804  0.00  0.00    +0.000 OA
ATOM     10  H   UNL     1       2.878   6.155  20.540  0.00  0.00    +0.000 HD
BRANCH   7  11
ATOM     11  C   UNL     1       2.364   7.797  19.325  0.00  0.00    +0.000 C 
BRANCH  11  15
ATOM     12  C   UNL     1      -0.416  10.160  21.693  0.00  0.00    +0.000 A 
ATOM     13  C   UNL     1       0.421   9.201  22.285  0.00  0.00    +0.000 A 
ATOM     14  C   UNL     1       1.319   8.447  21.523  0.00  0.00    +0.000 A 
ATOM     15  C   UNL     1       1.411   8.634  20.139  0.00  0.00    +0.000 A 
ATOM     16  C   UNL     1       0.594   9.601  19.543  0.00  0.00    +0.000 A 
ATOM     17  C   UNL     1      -0.292  10.364  20.316  0.00  0.00    +0.000 A 
BRANCH  12  21
ATOM     18  N   UNL     1      -0.156  12.983  22.757  0.00  0.00    +0.000 NA
ATOM     19  C   UNL     1      -1.172  12.210  22.906  0.00  0.00    +0.000 C 
ATOM     20  N   UNL     1      -2.297  12.664  23.512  0.00  0.00    +0.000 N 
ATOM     21  N   UNL     1      -1.270  10.907  22.527  0.00  0.00    +0.000 N 
ATOM     22  H   UNL     1      -0.360  13.910  23.129  0.00  0.00    +0.000 HD
ATOM     23  H   UNL     1      -2.186  13.524  24.035  0.00  0.00    +0.000 HD
ATOM     24  H   UNL     1      -2.826  11.981  24.038  0.00  0.00    +0.000 HD
ATOM     25  H   UNL     1      -2.133  10.431  22.736  0.00  0.00    +0.000 HD
ENDBRANCH  12  21
ENDBRANCH  11  15
ENDBRANCH   7  11
ENDBRANCH   1   8
BRANCH   5  26
ATOM     26  C   UNL     1       5.143   4.104  18.572  0.00  0.00    +0.000 C 
BRANCH  26  27
ATOM     27  C   UNL     1       4.320   4.278  17.244  0.00  0.00    +0.000 C 
ATOM     28  C   UNL     1       4.369   5.707  16.667  0.00  0.00    +0.000 C 
ATOM     29  C   UNL     1       5.721   6.067  16.055  0.00  0.00    +0.000 C 
ATOM     30  C   UNL     1       6.179   5.055  15.008  0.00  0.00    +0.000 C 
ATOM     31  C   UNL     1       6.077   3.610  15.487  0.00  0.00    +0.000 C 
ATOM     32  C   UNL     1       4.728   3.295  16.124  0.00  0.00    +0.000 C 
ENDBRANCH  26  27
BRANCH  26  33
ATOM     33  N   UNL     1       5.444   5.407  19.256  0.00  0.00    +0.000 NA
ATOM     34  H   UNL     1       5.370   6.139  18.545  0.00  0.00    +0.000 HD
BRANCH  33  35
ATOM     35  C   UNL     1       6.819   5.466  19.824  0.00  0.00    +0.000 C 
BRANCH  35  36
ATOM     36  C   UNL     1       7.805   5.770  18.698  0.00  0.00    +0.000 C 
ATOM     37  O   UNL     1       8.149   6.894  18.347  0.00  0.00    +0.000 OA
BRANCH  36  38
ATOM     38  O   UNL     1       8.261   4.638  18.104  0.00  0.00    +0.000 OA
ATOM     39  H   UNL     1       8.066   4.722  17.141  0.00  0.00    +0.000 HD
ENDBRANCH  36  38
ENDBRANCH  35  36
ENDBRANCH  33  35
ENDBRANCH  26  33
ENDBRANCH   5  26
TORSDOF 10
ENDMDL
MODEL 8
REMARK VINA RESULT:      -7.2      2.095      3.468
REMARK  Name = 
REMARK  10 active torsions:
REMARK  status: ('A' for Active; 'I' for Inactive)
REMARK    1  A    between atoms: N_4  and  C_5
REMARK    2  A    between atoms: C_8  and  C_9
REMARK    3  A    between atoms: C_9  and  N_10
REMARK    4  A    between atoms: C_11  and  C_13
REMARK    5  A    between atoms: C_17  and  C_19
REMARK    6  A    between atoms: C_19  and  N_20
REMARK    7  A    between atoms: C_19  and  C_25
REMARK    8  A    between atoms: N_20  and  C_21
REMARK    9  A    between atoms: C_21  and  C_22
REMARK   10  A    between atoms: C_22  and  O_24
REMARK                            x       y       z     vdW  Elec       q    Type
REMARK                         _______ _______ _______ _____ _____    ______ ____
ROOT
ATOM      1  C   UNL     1      -1.319  10.222  18.795  0.00  0.00    +0.000 C 
ATOM      2  C   UNL     1      -1.662  10.271  17.289  0.00  0.00    +0.000 C 
ATOM      3  C   UNL     1      -2.646  11.386  17.643  0.00  0.00    +0.000 C 
ATOM      4  N   UNL     1      -1.774  11.642  18.804  0.00  0.00    +0.000 N 
ATOM      5  C   UNL     1      -2.205  12.376  19.891  0.00  0.00    +0.000 C 
ATOM      6  O   UNL     1      -3.359  12.805  19.954  0.00  0.00    +0.000 OA
ENDROOT
BRANCH   1   8
ATOM      7  N   UNL     1       0.324   9.012  20.196  0.00  0.00    +0.000 N 
ATOM      8  C   UNL     1       0.175   9.925  19.161  0.00  0.00    +0.000 C 
ATOM      9  O   UNL     1       1.149  10.444  18.612  0.00  0.00    +0.000 OA
ATOM     10  H   UNL     1      -0.479   8.487  20.517  0.00  0.00    +0.000 HD
BRANCH   7  11
ATOM     11  C   UNL     1       1.624   8.546  20.636  0.00  0.00    +0.000 C 
BRANCH  11  15
ATOM     12  C   UNL     1       2.459   4.576  19.069  0.00  0.00    +0.000 A 
ATOM     13  C   UNL     1       2.794   5.733  18.349  0.00  0.00    +0.000 A 
ATOM     14  C   UNL     1       2.531   7.010  18.857  0.00  0.00    +0.000 A 
ATOM     15  C   UNL     1       1.926   7.167  20.109  0.00  0.00    +0.000 A 
ATOM     16  C   UNL     1       1.605   6.019  20.843  0.00  0.00    +0.000 A 
ATOM     17  C   UNL     1       1.887   4.743  20.333  0.00  0.00    +0.000 A 
BRANCH  12  21
ATOM     18  N   UNL     1       4.926   2.852  19.405  0.00  0.00    +0.000 NA
ATOM     19  C   UNL     1       3.860   2.530  18.761  0.00  0.00    +0.000 C 
ATOM     20  N   UNL     1       3.729   1.290  18.230  0.00  0.00    +0.000 N 
ATOM     21  N   UNL     1       2.785   3.325  18.511  0.00  0.00    +0.000 N 
ATOM     22  H   UNL     1       5.567   2.060  19.446  0.00  0.00    +0.000 HD
ATOM     23  H   UNL     1       4.588   0.757  18.163  0.00  0.00    +0.000 HD
ATOM     24  H   UNL     1       3.190   1.225  17.376  0.00  0.00    +0.000 HD
ATOM     25  H   UNL     1       2.035   2.926  17.969  0.00  0.00    +0.000 HD
ENDBRANCH  12  21
ENDBRANCH  11  15
ENDBRANCH   7  11
ENDBRANCH   1   8
BRANCH   5  26
ATOM     26  C   UNL     1      -1.170  12.658  21.016  0.00  0.00    +0.000 C 
BRANCH  26  27
ATOM     27  C   UNL     1      -0.823  14.189  21.088  0.00  0.00    +0.000 C 
ATOM     28  C   UNL     1       0.469  14.496  21.871  0.00  0.00    +0.000 C 
ATOM     29  C   UNL     1       1.740  14.088  21.127  0.00  0.00    +0.000 C 
ATOM     30  C   UNL     1       1.814  14.683  19.723  0.00  0.00    +0.000 C 
ATOM     31  C   UNL     1       0.533  14.487  18.921  0.00  0.00    +0.000 C 
ATOM     32  C   UNL     1      -0.718  14.870  19.705  0.00  0.00    +0.000 C 
ENDBRANCH  26  27
BRANCH  26  33
ATOM     33  N   UNL     1      -1.662  12.102  22.322  0.00  0.00    +0.000 NA
ATOM     34  H   UNL     1      -2.272  11.312  22.096  0.00  0.00    +0.000 HD
BRANCH  33  35
ATOM     35  C   UNL     1      -2.463  13.079  23.110  0.00  0.00    +0.000 C 
BRANCH  35  36
ATOM     36  C   UNL     1      -3.807  12.445  23.464  0.00  0.00    +0.000 C 
ATOM     37  O   UNL     1      -4.111  12.012  24.570  0.00  0.00    +0.000 OA
BRANCH  36  38
ATOM     38  O   UNL     1      -4.642  12.398  22.395  0.00  0.00    +0.000 OA
ATOM     39  H   UNL     1      -4.234  11.786  21.739  0.00  0.00    +0.000 HD
ENDBRANCH  36  38
ENDBRANCH  35  36
ENDBRANCH  33  35
ENDBRANCH  26  33
ENDBRANCH   5  26
TORSDOF 10
ENDMDL
MODEL 9
REMARK VINA RESULT:      -7.1      1.953      3.685
REMARK  Name = 
REMARK  10 active torsions:
REMARK  status: ('A' for Active; 'I' for Inactive)
REMARK    1  A    between atoms: N_4  and  C_5
REMARK    2  A    between atoms: C_8  and  C_9
REMARK    3  A    between atoms: C_9  and  N_10
REMARK    4  A    between atoms: C_11  and  C_13
REMARK    5  A    between atoms: C_17  and  C_19
REMARK    6  A    between atoms: C_19  and  N_20
REMARK    7  A    between atoms: C_19  and  C_25
REMARK    8  A    between atoms: N_20  and  C_21
REMARK    9  A    between atoms: C_21  and  C_22
REMARK   10  A    between atoms: C_22  and  O_24
REMARK                            x       y       z     vdW  Elec       q    Type
REMARK                         _______ _______ _______ _____ _____    ______ ____
ROOT
ATOM      1  C   UNL     1      -1.813  10.707  18.563  0.00  0.00    +0.000 C 
ATOM      2  C   UNL     1      -2.500  10.777  17.180  0.00  0.00    +0.000 C 
ATOM      3  C   UNL     1      -3.632  11.527  17.882  0.00  0.00    +0.000 C 
ATOM      4  N   UNL     1      -2.612  11.930  18.867  0.00  0.00    +0.000 N 
ATOM      5  C   UNL     1      -2.954  12.417  20.112  0.00  0.00    +0.000 C 
ATOM      6  O   UNL     1      -4.133  12.487  20.468  0.00  0.00    +0.000 OA
ENDROOT
BRANCH   1   8
ATOM      7  N   UNL     1       0.401   9.603  18.636  0.00  0.00    +0.000 N 
ATOM      8  C   UNL     1      -0.251  10.826  18.574  0.00  0.00    +0.000 C 
ATOM      9  O   UNL     1       0.372  11.889  18.544  0.00  0.00    +0.000 OA
ATOM     10  H   UNL     1      -0.127   8.750  18.499  0.00  0.00    +0.000 HD
BRANCH   7  11
ATOM     11  C   UNL     1       1.844   9.491  18.580  0.00  0.00    +0.000 C 
BRANCH  11  15
ATOM     12  C   UNL     1       3.180   5.371  18.983  0.00  0.00    +0.000 A 
ATOM     13  C   UNL     1       2.467   6.014  20.007  0.00  0.00    +0.000 A 
ATOM     14  C   UNL     1       2.033   7.337  19.874  0.00  0.00    +0.000 A 
ATOM     15  C   UNL     1       2.295   8.058  18.703  0.00  0.00    +0.000 A 
ATOM     16  C   UNL     1       2.988   7.419  17.669  0.00  0.00    +0.000 A 
ATOM     17  C   UNL     1       3.407   6.087  17.805  0.00  0.00    +0.000 A 
BRANCH  12  21
ATOM     18  N   UNL     1       5.914   4.069  18.962  0.00  0.00    +0.000 NA
ATOM     19  C   UNL     1       4.804   3.492  19.257  0.00  0.00    +0.000 C 
ATOM     20  N   UNL     1       4.792   2.205  19.685  0.00  0.00    +0.000 N 
ATOM     21  N   UNL     1       3.556   4.028  19.173  0.00  0.00    +0.000 N 
ATOM     22  H   UNL     1       6.696   3.435  19.123  0.00  0.00    +0.000 HD
ATOM     23  H   UNL     1       5.648   1.689  19.519  0.00  0.00    +0.000 HD
ATOM     24  H   UNL     1       3.979   1.658  19.434  0.00  0.00    +0.000 HD
ATOM     25  H   UNL     1       2.782   3.432  19.421  0.00  0.00    +0.000 HD
ENDBRANCH  12  21
ENDBRANCH  11  15
ENDBRANCH   7  11
ENDBRANCH   1   8
BRANCH   5  26
ATOM     26  C   UNL     1      -1.797  12.894  21.034  0.00  0.00    +0.000 C 
BRANCH  26  27
ATOM     27  C   UNL     1      -2.119  14.301  21.656  0.00  0.00    +0.000 C 
ATOM     28  C   UNL     1      -1.149  14.720  22.779  0.00  0.00    +0.000 C 
ATOM     29  C   UNL     1       0.241  15.096  22.269  0.00  0.00    +0.000 C 
ATOM     30  C   UNL     1       0.197  16.162  21.178  0.00  0.00    +0.000 C 
ATOM     31  C   UNL     1      -0.808  15.850  20.074  0.00  0.00    +0.000 C 
ATOM     32  C   UNL     1      -2.173  15.444  20.619  0.00  0.00    +0.000 C 
ENDBRANCH  26  27
BRANCH  26  33
ATOM     33  N   UNL     1      -1.494  11.846  22.067  0.00  0.00    +0.000 NA
ATOM     34  H   UNL     1      -1.611  12.289  22.982  0.00  0.00    +0.000 HD
BRANCH  33  35
ATOM     35  C   UNL     1      -0.098  11.333  21.989  0.00  0.00    +0.000 C 
BRANCH  35  36
ATOM     36  C   UNL     1      -0.056   9.927  22.584  0.00  0.00    +0.000 C 
ATOM     37  O   UNL     1       0.289   9.657  23.730  0.00  0.00    +0.000 OA
BRANCH  36  38
ATOM     38  O   UNL     1      -0.435   8.984  21.685  0.00  0.00    +0.000 OA
ATOM     39  H   UNL     1      -0.839   8.245  22.198  0.00  0.00    +0.000 HD
ENDBRANCH  36  38
ENDBRANCH  35  36
ENDBRANCH  33  35
ENDBRANCH  26  33
ENDBRANCH   5  26
TORSDOF 10
ENDMDL
