MODEL 1
REMARK VINA RESULT:      -8.3      0.000      0.000
REMARK  Name = 
REMARK  11 active torsions:
REMARK  status: ('A' for Active; 'I' for Inactive)
REMARK    1  A    between atoms: C_1  and  O_2
REMARK    2  A    between atoms: O_2  and  C_3
REMARK    3  A    between atoms: C_7  and  C_8
REMARK    4  A    between atoms: C_10  and  N_11
REMARK    5  A    between atoms: C_16  and  C_17
REMARK    6  A    between atoms: C_17  and  O_18
REMARK    7  A    between atoms: O_18  and  C_19
REMARK    8  A    between atoms: C_19  and  C_20
REMARK    9  A    between atoms: C_19  and  C_28
REMARK   10  A    between atoms: C_23  and  C_24
REMARK   11  A    between atoms: N_32  and  C_33
REMARK                            x       y       z     vdW  Elec       q    Type
REMARK                         _______ _______ _______ _____ _____    ______ ____
ROOT
ATOM      1  C   UNL     1       6.658   5.433  16.495  0.00  0.00    +0.000 A 
ATOM      2  C   UNL     1       7.235   5.307  15.201  0.00  0.00    +0.000 A 
ATOM      3  C   UNL     1       6.642   4.541  14.198  0.00  0.00    +0.000 A 
ATOM      4  C   UNL     1       5.508   3.798  14.483  0.00  0.00    +0.000 A 
ATOM      5  C   UNL     1       4.954   3.852  15.765  0.00  0.00    +0.000 A 
ATOM      6  C   UNL     1       5.489   4.667  16.783  0.00  0.00    +0.000 A 
ENDROOT
BRANCH   1  11
ATOM      7  C   UNL     1       8.028   8.720  17.923  0.00  0.00    +0.000 A 
ATOM      8  C   UNL     1       8.618   8.264  19.099  0.00  0.00    +0.000 A 
ATOM      9  C   UNL     1       8.494   6.936  19.476  0.00  0.00    +0.000 A 
ATOM     10  C   UNL     1       7.834   6.046  18.635  0.00  0.00    +0.000 A 
ATOM     11  C   UNL     1       7.279   6.450  17.396  0.00  0.00    +0.000 A 
ATOM     12  C   UNL     1       7.361   7.820  17.088  0.00  0.00    +0.000 A 
BRANCH   7  14
ATOM     13  C   UNL     1       9.218  10.742  18.397  0.00  0.00    +0.000 C 
ATOM     14  O   UNL     1       8.221  10.046  17.657  0.00  0.00    +0.000 OA
ENDBRANCH   7  14
ENDBRANCH   1  11
BRANCH   3  15
ATOM     15  N   UNL     1       7.185   4.589  12.834  0.00  0.00    +0.000 N 
ATOM     16  O   UNL     1       6.812   3.723  12.031  0.00  0.00    +0.000 OA
ATOM     17  O   UNL     1       7.997   5.487  12.575  0.00  0.00    +0.000 OA
ENDBRANCH   3  15
BRANCH   6  18
ATOM     18  C   UNL     1       4.744   4.729  18.121  0.00  0.00    +0.000 C 
BRANCH  18  19
ATOM     19  O   UNL     1       4.033   5.964  18.350  0.00  0.00    +0.000 OA
BRANCH  19  20
ATOM     20  C   UNL     1       3.052   5.867  19.405  0.00  0.00    +0.000 C 
BRANCH  20  21
ATOM     21  C   UNL     1       2.235   7.154  19.468  0.00  0.00    +0.000 A 
ATOM     22  C   UNL     1       2.183   8.021  18.365  0.00  0.00    +0.000 A 
ATOM     23  C   UNL     1       1.566   9.270  18.472  0.00  0.00    +0.000 A 
ATOM     24  C   UNL     1       0.985   9.662  19.679  0.00  0.00    +0.000 A 
ATOM     25  C   UNL     1       1.006   8.795  20.777  0.00  0.00    +0.000 A 
ATOM     26  C   UNL     1       1.620   7.545  20.671  0.00  0.00    +0.000 A 
BRANCH  24  27
ATOM     27  C   UNL     1       0.374  10.957  19.791  0.00  0.00    +0.000 C 
ATOM     28  N   UNL     1      -0.125  11.995  19.901  0.00  0.00    +0.000 NA
ENDBRANCH  24  27
ENDBRANCH  20  21
BRANCH  20  29
ATOM     29  C   UNL     1       2.190   4.647  19.194  0.00  0.00    +0.000 A 
ATOM     30  C   UNL     1       1.541   4.245  18.035  0.00  0.00    +0.000 A 
ATOM     31  N   UNL     1       0.832   3.090  18.220  0.00  0.00    +0.000 NA
ATOM     32  C   UNL     1       1.015   2.779  19.479  0.00  0.00    +0.000 A 
ATOM     33  N   UNL     1       1.811   3.693  20.115  0.00  0.00    +0.000 N 
ATOM     34  C   UNL     1       2.109   3.641  21.524  0.00  0.00    +0.000 C 
ENDBRANCH  20  29
ENDBRANCH  19  20
ENDBRANCH  18  19
ENDBRANCH   6  18
TORSDOF 9
ENDMDL
MODEL 2
REMARK VINA RESULT:      -8.2      0.682      1.442
REMARK  Name = 
REMARK  11 active torsions:
REMARK  status: ('A' for Active; 'I' for Inactive)
REMARK    1  A    between atoms: C_1  and  O_2
REMARK    2  A    between atoms: O_2  and  C_3
REMARK    3  A    between atoms: C_7  and  C_8
REMARK    4  A    between atoms: C_10  and  N_11
REMARK    5  A    between atoms: C_16  and  C_17
REMARK    6  A    between atoms: C_17  and  O_18
REMARK    7  A    between atoms: O_18  and  C_19
REMARK    8  A    between atoms: C_19  and  C_20
REMARK    9  A    between atoms: C_19  and  C_28
REMARK   10  A    between atoms: C_23  and  C_24
REMARK   11  A    between atoms: N_32  and  C_33
REMARK                            x       y       z     vdW  Elec       q    Type
REMARK                         _______ _______ _______ _____ _____    ______ ____
ROOT
ATOM      1  C   UNL     1       6.604   5.186  16.164  0.00  0.00    +0.000 A 
ATOM      2  C   UNL     1       7.273   5.157  14.910  0.00  0.00    +0.000 A 
ATOM      3  C   UNL     1       6.723   4.530  13.792  0.00  0.00    +0.000 A 
ATOM      4  C   UNL     1       5.536   3.827  13.915  0.00  0.00    +0.000 A 
ATOM      5  C   UNL     1       4.888   3.783  15.152  0.00  0.00    +0.000 A 
ATOM      6  C   UNL     1       5.380   4.461  16.286  0.00  0.00    +0.000 A 
ENDROOT
BRANCH   1  11
ATOM      7  C   UNL     1       7.969   8.241  18.040  0.00  0.00    +0.000 A 
ATOM      8  C   UNL     1       8.494   7.632  19.177  0.00  0.00    +0.000 A 
ATOM      9  C   UNL     1       8.326   6.272  19.385  0.00  0.00    +0.000 A 
ATOM     10  C   UNL     1       7.690   5.506  18.413  0.00  0.00    +0.000 A 
ATOM     11  C   UNL     1       7.202   6.071  17.209  0.00  0.00    +0.000 A 
ATOM     12  C   UNL     1       7.325   7.465  17.074  0.00  0.00    +0.000 A 
BRANCH   7  14
ATOM     13  C   UNL     1       9.199  10.154  18.785  0.00  0.00    +0.000 C 
ATOM     14  O   UNL     1       8.200   9.584  17.947  0.00  0.00    +0.000 OA
ENDBRANCH   7  14
ENDBRANCH   1  11
BRANCH   3  15
ATOM     15  N   UNL     1       7.372   4.685  12.483  0.00  0.00    +0.000 N 
ATOM     16  O   UNL     1       7.160   3.817  11.625  0.00  0.00    +0.000 OA
ATOM     17  O   UNL     1       8.107   5.669  12.323  0.00  0.00    +0.000 OA
ENDBRANCH   3  15
BRANCH   6  18
ATOM     18  C   UNL     1       4.538   4.430  17.565  0.00  0.00    +0.000 C 
BRANCH  18  19
ATOM     19  O   UNL     1       3.560   5.488  17.661  0.00  0.00    +0.000 OA
BRANCH  19  20
ATOM     20  C   UNL     1       3.258   5.861  19.022  0.00  0.00    +0.000 C 
BRANCH  20  21
ATOM     21  C   UNL     1       2.585   7.230  19.043  0.00  0.00    +0.000 A 
ATOM     22  C   UNL     1       1.865   7.655  20.172  0.00  0.00    +0.000 A 
ATOM     23  C   UNL     1       1.121   8.836  20.136  0.00  0.00    +0.000 A 
ATOM     24  C   UNL     1       1.097   9.614  18.976  0.00  0.00    +0.000 A 
ATOM     25  C   UNL     1       1.833   9.215  17.855  0.00  0.00    +0.000 A 
ATOM     26  C   UNL     1       2.580   8.036  17.890  0.00  0.00    +0.000 A 
BRANCH  24  27
ATOM     27  C   UNL     1       0.310  10.815  18.936  0.00  0.00    +0.000 C 
ATOM     28  N   UNL     1      -0.341  11.770  18.904  0.00  0.00    +0.000 NA
ENDBRANCH  24  27
ENDBRANCH  20  21
BRANCH  20  29
ATOM     29  C   UNL     1       2.412   4.794  19.671  0.00  0.00    +0.000 A 
ATOM     30  C   UNL     1       2.457   4.342  20.983  0.00  0.00    +0.000 A 
ATOM     31  N   UNL     1       1.546   3.347  21.212  0.00  0.00    +0.000 NA
ATOM     32  C   UNL     1       0.952   3.160  20.060  0.00  0.00    +0.000 A 
ATOM     33  N   UNL     1       1.447   3.994  19.094  0.00  0.00    +0.000 N 
ATOM     34  C   UNL     1       1.031   3.947  17.716  0.00  0.00    +0.000 C 
ENDBRANCH  20  29
ENDBRANCH  19  20
ENDBRANCH  18  19
ENDBRANCH   6  18
TORSDOF 9
ENDMDL
MODEL 3
REMARK VINA RESULT:      -7.8      0.987      1.179
REMARK  Name = 
REMARK  11 active torsions:
REMARK  status: ('A' for Active; 'I' for Inactive)
REMARK    1  A    between atoms: C_1  and  O_2
REMARK    2  A    between atoms: O_2  and  C_3
REMARK    3  A    between atoms: C_7  and  C_8
REMARK    4  A    between atoms: C_10  and  N_11
REMARK    5  A    between atoms: C_16  and  C_17
REMARK    6  A    between atoms: C_17  and  O_18
REMARK    7  A    between atoms: O_18  and  C_19
REMARK    8  A    between atoms: C_19  and  C_20
REMARK    9  A    between atoms: C_19  and  C_28
REMARK   10  A    between atoms: C_23  and  C_24
REMARK   11  A    between atoms: N_32  and  C_33
REMARK                            x       y       z     vdW  Elec       q    Type
REMARK                         _______ _______ _______ _____ _____    ______ ____
ROOT
ATOM      1  C   UNL     1       6.402   4.900  15.820  0.00  0.00    +0.000 A 
ATOM      2  C   UNL     1       7.150   4.837  14.611  0.00  0.00    +0.000 A 
ATOM      3  C   UNL     1       6.622   4.286  13.444  0.00  0.00    +0.000 A 
ATOM      4  C   UNL     1       5.372   3.692  13.470  0.00  0.00    +0.000 A 
ATOM      5  C   UNL     1       4.639   3.682  14.660  0.00  0.00    +0.000 A 
ATOM      6  C   UNL     1       5.113   4.287  15.841  0.00  0.00    +0.000 A 
ENDROOT
BRANCH   1  11
ATOM      7  C   UNL     1       7.757   7.810  17.920  0.00  0.00    +0.000 A 
ATOM      8  C   UNL     1       8.309   7.118  18.995  0.00  0.00    +0.000 A 
ATOM      9  C   UNL     1       8.162   5.743  19.093  0.00  0.00    +0.000 A 
ATOM     10  C   UNL     1       7.520   5.050  18.070  0.00  0.00    +0.000 A 
ATOM     11  C   UNL     1       7.005   5.705  16.925  0.00  0.00    +0.000 A 
ATOM     12  C   UNL     1       7.108   7.107  16.903  0.00  0.00    +0.000 A 
BRANCH   7  14
ATOM     13  C   UNL     1       8.955   9.676  18.822  0.00  0.00    +0.000 C 
ATOM     14  O   UNL     1       7.970   9.160  17.934  0.00  0.00    +0.000 OA
ENDBRANCH   7  14
ENDBRANCH   1  11
BRANCH   3  15
ATOM     15  N   UNL     1       7.370   4.408  12.184  0.00  0.00    +0.000 N 
ATOM     16  O   UNL     1       7.881   5.505  11.919  0.00  0.00    +0.000 OA
ATOM     17  O   UNL     1       7.428   3.409  11.456  0.00  0.00    +0.000 OA
ENDBRANCH   3  15
BRANCH   6  18
ATOM     18  C   UNL     1       4.187   4.307  17.062  0.00  0.00    +0.000 C 
BRANCH  18  19
ATOM     19  O   UNL     1       4.457   5.372  17.998  0.00  0.00    +0.000 OA
BRANCH  19  20
ATOM     20  C   UNL     1       3.531   5.404  19.105  0.00  0.00    +0.000 C 
BRANCH  20  21
ATOM     21  C   UNL     1       2.698   6.681  19.042  0.00  0.00    +0.000 A 
ATOM     22  C   UNL     1       2.654   7.447  17.866  0.00  0.00    +0.000 A 
ATOM     23  C   UNL     1       2.021   8.692  17.853  0.00  0.00    +0.000 A 
ATOM     24  C   UNL     1       1.414   9.181  19.012  0.00  0.00    +0.000 A 
ATOM     25  C   UNL     1       1.426   8.413  20.182  0.00  0.00    +0.000 A 
ATOM     26  C   UNL     1       2.057   7.167  20.196  0.00  0.00    +0.000 A 
BRANCH  24  27
ATOM     27  C   UNL     1       0.786  10.472  19.001  0.00  0.00    +0.000 C 
ATOM     28  N   UNL     1       0.263  11.504  18.982  0.00  0.00    +0.000 NA
ENDBRANCH  24  27
ENDBRANCH  20  21
BRANCH  20  29
ATOM     29  C   UNL     1       2.679   4.159  19.097  0.00  0.00    +0.000 A 
ATOM     30  C   UNL     1       1.373   4.016  18.649  0.00  0.00    +0.000 A 
ATOM     31  N   UNL     1       0.914   2.738  18.813  0.00  0.00    +0.000 NA
ATOM     32  C   UNL     1       1.906   2.092  19.374  0.00  0.00    +0.000 A 
ATOM     33  N   UNL     1       2.986   2.905  19.581  0.00  0.00    +0.000 N 
ATOM     34  C   UNL     1       4.185   2.475  20.255  0.00  0.00    +0.000 C 
ENDBRANCH  20  29
ENDBRANCH  19  20
ENDBRANCH  18  19
ENDBRANCH   6  18
TORSDOF 9
ENDMDL
MODEL 4
REMARK VINA RESULT:      -7.4      0.807      1.397
REMARK  Name = 
REMARK  11 active torsions:
REMARK  status: ('A' for Active; 'I' for Inactive)
REMARK    1  A    between atoms: C_1  and  O_2
REMARK    2  A    between atoms: O_2  and  C_3
REMARK    3  A    between atoms: C_7  and  C_8
REMARK    4  A    between atoms: C_10  and  N_11
REMARK    5  A    between atoms: C_16  and  C_17
REMARK    6  A    between atoms: C_17  and  O_18
REMARK    7  A    between atoms: O_18  and  C_19
REMARK    8  A    between atoms: C_19  and  C_20
REMARK    9  A    between atoms: C_19  and  C_28
REMARK   10  A    between atoms: C_23  and  C_24
REMARK   11  A    between atoms: N_32  and  C_33
REMARK                            x       y       z     vdW  Elec       q    Type
REMARK                         _______ _______ _______ _____ _____    ______ ____
ROOT
ATOM      1  C   UNL     1       6.574   5.004  16.144  0.00  0.00    +0.000 A 
ATOM      2  C   UNL     1       7.328   5.053  14.939  0.00  0.00    +0.000 A 
ATOM      3  C   UNL     1       6.797   4.641  13.717  0.00  0.00    +0.000 A 
ATOM      4  C   UNL     1       5.534   4.075  13.674  0.00  0.00    +0.000 A 
ATOM      5  C   UNL     1       4.793   3.954  14.853  0.00  0.00    +0.000 A 
ATOM      6  C   UNL     1       5.272   4.421  16.094  0.00  0.00    +0.000 A 
ENDROOT
BRANCH   1  11
ATOM      7  C   UNL     1       8.153   7.607  18.477  0.00  0.00    +0.000 A 
ATOM      8  C   UNL     1       8.489   6.807  19.566  0.00  0.00    +0.000 A 
ATOM      9  C   UNL     1       8.126   5.470  19.592  0.00  0.00    +0.000 A 
ATOM     10  C   UNL     1       7.485   4.915  18.489  0.00  0.00    +0.000 A 
ATOM     11  C   UNL     1       7.186   5.674  17.331  0.00  0.00    +0.000 A 
ATOM     12  C   UNL     1       7.503   7.043  17.377  0.00  0.00    +0.000 A 
BRANCH   7  14
ATOM     13  C   UNL     1       8.072   9.837  17.612  0.00  0.00    +0.000 C 
ATOM     14  O   UNL     1       8.567   8.906  18.566  0.00  0.00    +0.000 OA
ENDBRANCH   7  14
ENDBRANCH   1  11
BRANCH   3  15
ATOM     15  N   UNL     1       7.555   4.879  12.481  0.00  0.00    +0.000 N 
ATOM     16  O   UNL     1       8.282   5.881  12.432  0.00  0.00    +0.000 OA
ATOM     17  O   UNL     1       7.409   4.070  11.556  0.00  0.00    +0.000 OA
ENDBRANCH   3  15
BRANCH   6  18
ATOM     18  C   UNL     1       4.338   4.331  17.306  0.00  0.00    +0.000 C 
BRANCH  18  19
ATOM     19  O   UNL     1       3.590   5.537  17.572  0.00  0.00    +0.000 OA
BRANCH  19  20
ATOM     20  C   UNL     1       3.262   5.706  18.967  0.00  0.00    +0.000 C 
BRANCH  20  21
ATOM     21  C   UNL     1       2.420   6.965  19.150  0.00  0.00    +0.000 A 
ATOM     22  C   UNL     1       2.291   7.895  18.105  0.00  0.00    +0.000 A 
ATOM     23  C   UNL     1       1.652   9.118  18.319  0.00  0.00    +0.000 A 
ATOM     24  C   UNL     1       1.126   9.423  19.576  0.00  0.00    +0.000 A 
ATOM     25  C   UNL     1       1.224   8.493  20.617  0.00  0.00    +0.000 A 
ATOM     26  C   UNL     1       1.860   7.268  20.404  0.00  0.00    +0.000 A 
BRANCH  24  27
ATOM     27  C   UNL     1       0.493  10.693  19.798  0.00  0.00    +0.000 C 
ATOM     28  N   UNL     1      -0.007  11.724  19.960  0.00  0.00    +0.000 NA
ENDBRANCH  24  27
ENDBRANCH  20  21
BRANCH  20  29
ATOM     29  C   UNL     1       2.569   4.470  19.485  0.00  0.00    +0.000 A 
ATOM     30  C   UNL     1       2.842   3.754  20.643  0.00  0.00    +0.000 A 
ATOM     31  N   UNL     1       2.015   2.673  20.783  0.00  0.00    +0.000 NA
ATOM     32  C   UNL     1       1.248   2.695  19.721  0.00  0.00    +0.000 A 
ATOM     33  N   UNL     1       1.551   3.747  18.900  0.00  0.00    +0.000 N 
ATOM     34  C   UNL     1       0.918   3.965  17.624  0.00  0.00    +0.000 C 
ENDBRANCH  20  29
ENDBRANCH  19  20
ENDBRANCH  18  19
ENDBRANCH   6  18
TORSDOF 9
ENDMDL
MODEL 5
REMARK VINA RESULT:      -7.4      2.673      8.339
REMARK  Name = 
REMARK  11 active torsions:
REMARK  status: ('A' for Active; 'I' for Inactive)
REMARK    1  A    between atoms: C_1  and  O_2
REMARK    2  A    between atoms: O_2  and  C_3
REMARK    3  A    between atoms: C_7  and  C_8
REMARK    4  A    between atoms: C_10  and  N_11
REMARK    5  A    between atoms: C_16  and  C_17
REMARK    6  A    between atoms: C_17  and  O_18
REMARK    7  A    between atoms: O_18  and  C_19
REMARK    8  A    between atoms: C_19  and  C_20
REMARK    9  A    between atoms: C_19  and  C_28
REMARK   10  A    between atoms: C_23  and  C_24
REMARK   11  A    between atoms: N_32  and  C_33
REMARK                            x       y       z     vdW  Elec       q    Type
REMARK                         _______ _______ _______ _____ _____    ______ ____
ROOT
ATOM      1  C   UNL     1       2.095   7.292  19.509  0.00  0.00    +0.000 A 
ATOM      2  C   UNL     1       1.448   8.060  20.517  0.00  0.00    +0.000 A 
ATOM      3  C   UNL     1       1.122   9.403  20.329  0.00  0.00    +0.000 A 
ATOM      4  C   UNL     1       1.519  10.049  19.170  0.00  0.00    +0.000 A 
ATOM      5  C   UNL     1       2.213   9.337  18.189  0.00  0.00    +0.000 A 
ATOM      6  C   UNL     1       2.501   7.963  18.316  0.00  0.00    +0.000 A 
ENDROOT
BRANCH   1  11
ATOM      7  C   UNL     1       2.277   3.492  19.018  0.00  0.00    +0.000 A 
ATOM      8  C   UNL     1       2.199   3.057  20.338  0.00  0.00    +0.000 A 
ATOM      9  C   UNL     1       2.185   3.973  21.378  0.00  0.00    +0.000 A 
ATOM     10  C   UNL     1       2.180   5.335  21.090  0.00  0.00    +0.000 A 
ATOM     11  C   UNL     1       2.189   5.822  19.760  0.00  0.00    +0.000 A 
ATOM     12  C   UNL     1       2.279   4.861  18.738  0.00  0.00    +0.000 A 
BRANCH   7  14
ATOM     13  C   UNL     1       3.483   1.761  17.887  0.00  0.00    +0.000 C 
ATOM     14  O   UNL     1       2.281   2.497  18.082  0.00  0.00    +0.000 OA
ENDBRANCH   7  14
ENDBRANCH   1  11
BRANCH   3  15
ATOM     15  N   UNL     1       0.299  10.094  21.330  0.00  0.00    +0.000 N 
ATOM     16  O   UNL     1       0.516  11.297  21.528  0.00  0.00    +0.000 OA
ATOM     17  O   UNL     1      -0.554   9.425  21.928  0.00  0.00    +0.000 OA
ENDBRANCH   3  15
BRANCH   6  18
ATOM     18  C   UNL     1       3.177   7.256  17.136  0.00  0.00    +0.000 C 
BRANCH  18  19
ATOM     19  O   UNL     1       4.616   7.190  17.227  0.00  0.00    +0.000 OA
BRANCH  19  20
ATOM     20  C   UNL     1       5.115   5.843  17.369  0.00  0.00    +0.000 C 
BRANCH  20  21
ATOM     21  C   UNL     1       5.461   5.275  15.997  0.00  0.00    +0.000 A 
ATOM     22  C   UNL     1       4.613   4.345  15.374  0.00  0.00    +0.000 A 
ATOM     23  C   UNL     1       5.002   3.708  14.193  0.00  0.00    +0.000 A 
ATOM     24  C   UNL     1       6.239   4.000  13.615  0.00  0.00    +0.000 A 
ATOM     25  C   UNL     1       7.081   4.946  14.211  0.00  0.00    +0.000 A 
ATOM     26  C   UNL     1       6.692   5.586  15.390  0.00  0.00    +0.000 A 
BRANCH  24  27
ATOM     27  C   UNL     1       6.645   3.324  12.415  0.00  0.00    +0.000 C 
ATOM     28  N   UNL     1       6.993   2.785  11.452  0.00  0.00    +0.000 NA
ENDBRANCH  24  27
ENDBRANCH  20  21
BRANCH  20  29
ATOM     29  C   UNL     1       6.293   5.829  18.312  0.00  0.00    +0.000 A 
ATOM     30  C   UNL     1       6.521   4.983  19.389  0.00  0.00    +0.000 A 
ATOM     31  N   UNL     1       7.693   5.275  20.030  0.00  0.00    +0.000 NA
ATOM     32  C   UNL     1       8.186   6.300  19.381  0.00  0.00    +0.000 A 
ATOM     33  N   UNL     1       7.374   6.684  18.348  0.00  0.00    +0.000 N 
ATOM     34  C   UNL     1       7.634   7.834  17.520  0.00  0.00    +0.000 C 
ENDBRANCH  20  29
ENDBRANCH  19  20
ENDBRANCH  18  19
ENDBRANCH   6  18
TORSDOF 9
ENDMDL
MODEL 6
REMARK VINA RESULT:      -7.3      3.003      6.663
REMARK  Name = 
REMARK  11 active torsions:
REMARK  status: ('A' for Active; 'I' for Inactive)
REMARK    1  A    between atoms: C_1  and  O_2
REMARK    2  A    between atoms: O_2  and  C_3
REMARK    3  A    between atoms: C_7  and  C_8
REMARK    4  A    between atoms: C_10  and  N_11
REMARK    5  A    between atoms: C_16  and  C_17
REMARK    6  A    between atoms: C_17  and  O_18
REMARK    7  A    between atoms: O_18  and  C_19
REMARK    8  A    between atoms: C_19  and  C_20
REMARK    9  A    between atoms: C_19  and  C_28
REMARK   10  A    between atoms: C_23  and  C_24
REMARK   11  A    between atoms: N_32  and  C_33
REMARK                            x       y       z     vdW  Elec       q    Type
REMARK                         _______ _______ _______ _____ _____    ______ ____
ROOT
ATOM      1  C   UNL     1       3.374   5.851  19.048  0.00  0.00    +0.000 A 
ATOM      2  C   UNL     1       3.354   4.653  19.814  0.00  0.00    +0.000 A 
ATOM      3  C   UNL     1       2.364   4.400  20.764  0.00  0.00    +0.000 A 
ATOM      4  C   UNL     1       1.422   5.374  21.049  0.00  0.00    +0.000 A 
ATOM      5  C   UNL     1       1.455   6.587  20.357  0.00  0.00    +0.000 A 
ATOM      6  C   UNL     1       2.400   6.852  19.345  0.00  0.00    +0.000 A 
ENDROOT
BRANCH   1  11
ATOM      7  C   UNL     1       5.261   5.099  15.794  0.00  0.00    +0.000 A 
ATOM      8  C   UNL     1       6.358   5.947  15.929  0.00  0.00    +0.000 A 
ATOM      9  C   UNL     1       6.441   6.819  17.004  0.00  0.00    +0.000 A 
ATOM     10  C   UNL     1       5.454   6.790  17.985  0.00  0.00    +0.000 A 
ATOM     11  C   UNL     1       4.357   5.896  17.923  0.00  0.00    +0.000 A 
ATOM     12  C   UNL     1       4.272   5.083  16.779  0.00  0.00    +0.000 A 
BRANCH   7  14
ATOM     13  C   UNL     1       6.500   4.222  13.943  0.00  0.00    +0.000 C 
ATOM     14  O   UNL     1       5.294   4.286  14.696  0.00  0.00    +0.000 OA
ENDBRANCH   7  14
ENDBRANCH   1  11
BRANCH   3  15
ATOM     15  N   UNL     1       2.290   3.076  21.396  0.00  0.00    +0.000 N 
ATOM     16  O   UNL     1       1.179   2.671  21.764  0.00  0.00    +0.000 OA
ATOM     17  O   UNL     1       3.349   2.451  21.536  0.00  0.00    +0.000 OA
ENDBRANCH   3  15
BRANCH   6  18
ATOM     18  C   UNL     1       2.285   8.174  18.579  0.00  0.00    +0.000 C 
BRANCH  18  19
ATOM     19  O   UNL     1       1.398   9.139  19.186  0.00  0.00    +0.000 OA
BRANCH  19  20
ATOM     20  C   UNL     1       1.035  10.215  18.296  0.00  0.00    +0.000 C 
BRANCH  20  21
ATOM     21  C   UNL     1      -0.484  10.334  18.226  0.00  0.00    +0.000 A 
ATOM     22  C   UNL     1      -1.217   9.587  17.289  0.00  0.00    +0.000 A 
ATOM     23  C   UNL     1      -2.585   9.809  17.118  0.00  0.00    +0.000 A 
ATOM     24  C   UNL     1      -3.240  10.772  17.888  0.00  0.00    +0.000 A 
ATOM     25  C   UNL     1      -2.527  11.503  18.844  0.00  0.00    +0.000 A 
ATOM     26  C   UNL     1      -1.159  11.281  19.019  0.00  0.00    +0.000 A 
BRANCH  24  27
ATOM     27  C   UNL     1      -4.642  11.014  17.690  0.00  0.00    +0.000 C 
ATOM     28  N   UNL     1      -5.767  11.229  17.525  0.00  0.00    +0.000 NA
ENDBRANCH  24  27
ENDBRANCH  20  21
BRANCH  20  29
ATOM     29  C   UNL     1       1.693  11.497  18.744  0.00  0.00    +0.000 A 
ATOM     30  C   UNL     1       2.492  12.356  18.003  0.00  0.00    +0.000 A 
ATOM     31  N   UNL     1       2.929  13.417  18.747  0.00  0.00    +0.000 NA
ATOM     32  C   UNL     1       2.431  13.220  19.943  0.00  0.00    +0.000 A 
ATOM     33  N   UNL     1       1.692  12.069  19.999  0.00  0.00    +0.000 N 
ATOM     34  C   UNL     1       1.097  11.567  21.211  0.00  0.00    +0.000 C 
ENDBRANCH  20  29
ENDBRANCH  19  20
ENDBRANCH  18  19
ENDBRANCH   6  18
TORSDOF 9
ENDMDL
MODEL 7
REMARK VINA RESULT:      -7.3      0.746      1.366
REMARK  Name = 
REMARK  11 active torsions:
REMARK  status: ('A' for Active; 'I' for Inactive)
REMARK    1  A    between atoms: C_1  and  O_2
REMARK    2  A    between atoms: O_2  and  C_3
REMARK    3  A    between atoms: C_7  and  C_8
REMARK    4  A    between atoms: C_10  and  N_11
REMARK    5  A    between atoms: C_16  and  C_17
REMARK    6  A    between atoms: C_17  and  O_18
REMARK    7  A    between atoms: O_18  and  C_19
REMARK    8  A    between atoms: C_19  and  C_20
REMARK    9  A    between atoms: C_19  and  C_28
REMARK   10  A    between atoms: C_23  and  C_24
REMARK   11  A    between atoms: N_32  and  C_33
REMARK                            x       y       z     vdW  Elec       q    Type
REMARK                         _______ _______ _______ _____ _____    ______ ____
ROOT
ATOM      1  C   UNL     1       6.812   6.155  16.796  0.00  0.00    +0.000 A 
ATOM      2  C   UNL     1       7.339   5.844  15.512  0.00  0.00    +0.000 A 
ATOM      3  C   UNL     1       6.713   4.937  14.657  0.00  0.00    +0.000 A 
ATOM      4  C   UNL     1       5.599   4.239  15.093  0.00  0.00    +0.000 A 
ATOM      5  C   UNL     1       5.097   4.477  16.374  0.00  0.00    +0.000 A 
ATOM      6  C   UNL     1       5.664   5.434  17.241  0.00  0.00    +0.000 A 
ENDROOT
BRANCH   1  11
ATOM      7  C   UNL     1       8.002   9.666  17.783  0.00  0.00    +0.000 A 
ATOM      8  C   UNL     1       8.855   9.362  18.841  0.00  0.00    +0.000 A 
ATOM      9  C   UNL     1       8.972   8.057  19.294  0.00  0.00    +0.000 A 
ATOM     10  C   UNL     1       8.283   7.042  18.637  0.00  0.00    +0.000 A 
ATOM     11  C   UNL     1       7.459   7.295  17.513  0.00  0.00    +0.000 A 
ATOM     12  C   UNL     1       7.309   8.641  17.135  0.00  0.00    +0.000 A 
BRANCH   7  14
ATOM     13  C   UNL     1       8.818  11.889  18.129  0.00  0.00    +0.000 C 
ATOM     14  O   UNL     1       7.974  10.985  17.427  0.00  0.00    +0.000 OA
ENDBRANCH   7  14
ENDBRANCH   1  11
BRANCH   3  15
ATOM     15  N   UNL     1       7.201   4.789  13.279  0.00  0.00    +0.000 N 
ATOM     16  O   UNL     1       8.046   5.597  12.873  0.00  0.00    +0.000 OA
ATOM     17  O   UNL     1       6.722   3.871  12.600  0.00  0.00    +0.000 OA
ENDBRANCH   3  15
BRANCH   6  18
ATOM     18  C   UNL     1       4.972   5.688  18.585  0.00  0.00    +0.000 C 
BRANCH  18  19
ATOM     19  O   UNL     1       3.562   5.979  18.484  0.00  0.00    +0.000 OA
BRANCH  19  20
ATOM     20  C   UNL     1       2.917   6.114  19.769  0.00  0.00    +0.000 C 
BRANCH  20  21
ATOM     21  C   UNL     1       2.010   7.340  19.763  0.00  0.00    +0.000 A 
ATOM     22  C   UNL     1       2.016   8.227  18.674  0.00  0.00    +0.000 A 
ATOM     23  C   UNL     1       1.306   9.429  18.734  0.00  0.00    +0.000 A 
ATOM     24  C   UNL     1       0.572   9.753  19.877  0.00  0.00    +0.000 A 
ATOM     25  C   UNL     1       0.536   8.864  20.957  0.00  0.00    +0.000 A 
ATOM     26  C   UNL     1       1.244   7.661  20.898  0.00  0.00    +0.000 A 
BRANCH  24  27
ATOM     27  C   UNL     1      -0.136  11.001  19.943  0.00  0.00    +0.000 C 
ATOM     28  N   UNL     1      -0.701  12.007  20.017  0.00  0.00    +0.000 NA
ENDBRANCH  24  27
ENDBRANCH  20  21
BRANCH  20  29
ATOM     29  C   UNL     1       2.169   4.846  20.103  0.00  0.00    +0.000 A 
ATOM     30  C   UNL     1       2.049   4.221  21.336  0.00  0.00    +0.000 A 
ATOM     31  N   UNL     1       1.305   3.075  21.258  0.00  0.00    +0.000 NA
ATOM     32  C   UNL     1       0.979   2.970  19.994  0.00  0.00    +0.000 A 
ATOM     33  N   UNL     1       1.488   4.001  19.252  0.00  0.00    +0.000 N 
ATOM     34  C   UNL     1       1.351   4.092  17.821  0.00  0.00    +0.000 C 
ENDBRANCH  20  29
ENDBRANCH  19  20
ENDBRANCH  18  19
ENDBRANCH   6  18
TORSDOF 9
ENDMDL
MODEL 8
REMARK VINA RESULT:      -7.2      2.740      8.507
REMARK  Name = 
REMARK  11 active torsions:
REMARK  status: ('A' for Active; 'I' for Inactive)
REMARK    1  A    between atoms: C_1  and  O_2
REMARK    2  A    between atoms: O_2  and  C_3
REMARK    3  A    between atoms: C_7  and  C_8
REMARK    4  A    between atoms: C_10  and  N_11
REMARK    5  A    between atoms: C_16  and  C_17
REMARK    6  A    between atoms: C_17  and  O_18
REMARK    7  A    between atoms: O_18  and  C_19
REMARK    8  A    between atoms: C_19  and  C_20
REMARK    9  A    between atoms: C_19  and  C_28
REMARK   10  A    between atoms: C_23  and  C_24
REMARK   11  A    between atoms: N_32  and  C_33
REMARK                            x       y       z     vdW  Elec       q    Type
REMARK                         _______ _______ _______ _____ _____    ______ ____
ROOT
ATOM      1  C   UNL     1       2.045   6.439  19.899  0.00  0.00    +0.000 A 
ATOM      2  C   UNL     1       1.468   7.225  20.934  0.00  0.00    +0.000 A 
ATOM      3  C   UNL     1       1.246   8.594  20.787  0.00  0.00    +0.000 A 
ATOM      4  C   UNL     1       1.682   9.240  19.642  0.00  0.00    +0.000 A 
ATOM      5  C   UNL     1       2.310   8.505  18.633  0.00  0.00    +0.000 A 
ATOM      6  C   UNL     1       2.492   7.110  18.720  0.00  0.00    +0.000 A 
ENDROOT
BRANCH   1  11
ATOM      7  C   UNL     1       3.017   2.862  20.887  0.00  0.00    +0.000 A 
ATOM      8  C   UNL     1       1.975   2.142  20.307  0.00  0.00    +0.000 A 
ATOM      9  C   UNL     1       0.925   2.803  19.691  0.00  0.00    +0.000 A 
ATOM     10  C   UNL     1       0.953   4.192  19.594  0.00  0.00    +0.000 A 
ATOM     11  C   UNL     1       2.027   4.960  20.108  0.00  0.00    +0.000 A 
ATOM     12  C   UNL     1       3.034   4.256  20.791  0.00  0.00    +0.000 A 
BRANCH   7  14
ATOM     13  C   UNL     1       4.975   1.514  20.614  0.00  0.00    +0.000 C 
ATOM     14  O   UNL     1       3.994   2.100  21.461  0.00  0.00    +0.000 OA
ENDBRANCH   7  14
ENDBRANCH   1  11
BRANCH   3  15
ATOM     15  N   UNL     1       0.487   9.319  21.815  0.00  0.00    +0.000 N 
ATOM     16  O   UNL     1       0.958  10.381  22.242  0.00  0.00    +0.000 OA
ATOM     17  O   UNL     1      -0.573   8.812  22.205  0.00  0.00    +0.000 OA
ENDBRANCH   3  15
BRANCH   6  18
ATOM     18  C   UNL     1       3.101   6.386  17.514  0.00  0.00    +0.000 C 
BRANCH  18  19
ATOM     19  O   UNL     1       4.328   6.970  17.027  0.00  0.00    +0.000 OA
BRANCH  19  20
ATOM     20  C   UNL     1       5.491   6.159  17.302  0.00  0.00    +0.000 C 
BRANCH  20  21
ATOM     21  C   UNL     1       5.820   5.302  16.085  0.00  0.00    +0.000 A 
ATOM     22  C   UNL     1       7.021   5.490  15.382  0.00  0.00    +0.000 A 
ATOM     23  C   UNL     1       7.254   4.817  14.180  0.00  0.00    +0.000 A 
ATOM     24  C   UNL     1       6.294   3.939  13.673  0.00  0.00    +0.000 A 
ATOM     25  C   UNL     1       5.106   3.721  14.379  0.00  0.00    +0.000 A 
ATOM     26  C   UNL     1       4.873   4.391  15.581  0.00  0.00    +0.000 A 
BRANCH  24  27
ATOM     27  C   UNL     1       6.528   3.268  12.424  0.00  0.00    +0.000 C 
ATOM     28  N   UNL     1       6.721   2.747  11.410  0.00  0.00    +0.000 NA
ENDBRANCH  24  27
ENDBRANCH  20  21
BRANCH  20  29
ATOM     29  C   UNL     1       6.644   7.040  17.715  0.00  0.00    +0.000 A 
ATOM     30  C   UNL     1       6.928   8.334  17.300  0.00  0.00    +0.000 A 
ATOM     31  N   UNL     1       8.072   8.816  17.874  0.00  0.00    +0.000 NA
ATOM     32  C   UNL     1       8.513   7.837  18.624  0.00  0.00    +0.000 A 
ATOM     33  N   UNL     1       7.699   6.738  18.551  0.00  0.00    +0.000 N 
ATOM     34  C   UNL     1       7.990   5.491  19.211  0.00  0.00    +0.000 C 
ENDBRANCH  20  29
ENDBRANCH  19  20
ENDBRANCH  18  19
ENDBRANCH   6  18
TORSDOF 9
ENDMDL
MODEL 9
REMARK VINA RESULT:      -7.2      3.381      6.934
REMARK  Name = 
REMARK  11 active torsions:
REMARK  status: ('A' for Active; 'I' for Inactive)
REMARK    1  A    between atoms: C_1  and  O_2
REMARK    2  A    between atoms: O_2  and  C_3
REMARK    3  A    between atoms: C_7  and  C_8
REMARK    4  A    between atoms: C_10  and  N_11
REMARK    5  A    between atoms: C_16  and  C_17
REMARK    6  A    between atoms: C_17  and  O_18
REMARK    7  A    between atoms: O_18  and  C_19
REMARK    8  A    between atoms: C_19  and  C_20
REMARK    9  A    between atoms: C_19  and  C_28
REMARK   10  A    between atoms: C_23  and  C_24
REMARK   11  A    between atoms: N_32  and  C_33
REMARK                            x       y       z     vdW  Elec       q    Type
REMARK                         _______ _______ _______ _____ _____    ______ ____
ROOT
ATOM      1  C   UNL     1       3.103   5.879  18.958  0.00  0.00    +0.000 A 
ATOM      2  C   UNL     1       3.161   4.666  19.699  0.00  0.00    +0.000 A 
ATOM      3  C   UNL     1       2.349   4.440  20.810  0.00  0.00    +0.000 A 
ATOM      4  C   UNL     1       1.526   5.452  21.276  0.00  0.00    +0.000 A 
ATOM      5  C   UNL     1       1.495   6.677  20.605  0.00  0.00    +0.000 A 
ATOM      6  C   UNL     1       2.253   6.918  19.441  0.00  0.00    +0.000 A 
ENDROOT
BRANCH   1  11
ATOM      7  C   UNL     1       5.139   4.824  15.882  0.00  0.00    +0.000 A 
ATOM      8  C   UNL     1       5.437   6.068  15.331  0.00  0.00    +0.000 A 
ATOM      9  C   UNL     1       4.910   7.224  15.884  0.00  0.00    +0.000 A 
ATOM     10  C   UNL     1       4.137   7.138  17.039  0.00  0.00    +0.000 A 
ATOM     11  C   UNL     1       3.867   5.901  17.673  0.00  0.00    +0.000 A 
ATOM     12  C   UNL     1       4.357   4.747  17.037  0.00  0.00    +0.000 A 
BRANCH   7  14
ATOM     13  C   UNL     1       6.158   3.933  13.908  0.00  0.00    +0.000 C 
ATOM     14  O   UNL     1       5.719   3.760  15.251  0.00  0.00    +0.000 OA
ENDBRANCH   7  14
ENDBRANCH   1  11
BRANCH   3  15
ATOM     15  N   UNL     1       2.323   3.107  21.428  0.00  0.00    +0.000 N 
ATOM     16  O   UNL     1       1.240   2.690  21.861  0.00  0.00    +0.000 OA
ATOM     17  O   UNL     1       3.392   2.487  21.492  0.00  0.00    +0.000 OA
ENDBRANCH   3  15
BRANCH   6  18
ATOM     18  C   UNL     1       2.068   8.261  18.726  0.00  0.00    +0.000 C 
BRANCH  18  19
ATOM     19  O   UNL     1       1.066   9.117  19.316  0.00  0.00    +0.000 OA
BRANCH  19  20
ATOM     20  C   UNL     1       0.925  10.381  18.632  0.00  0.00    +0.000 C 
BRANCH  20  21
ATOM     21  C   UNL     1      -0.540  10.615  18.280  0.00  0.00    +0.000 A 
ATOM     22  C   UNL     1      -1.226  11.732  18.782  0.00  0.00    +0.000 A 
ATOM     23  C   UNL     1      -2.603  11.866  18.589  0.00  0.00    +0.000 A 
ATOM     24  C   UNL     1      -3.309  10.891  17.883  0.00  0.00    +0.000 A 
ATOM     25  C   UNL     1      -2.632   9.787  17.353  0.00  0.00    +0.000 A 
ATOM     26  C   UNL     1      -1.254   9.653  17.542  0.00  0.00    +0.000 A 
BRANCH  24  27
ATOM     27  C   UNL     1      -4.729  11.020  17.709  0.00  0.00    +0.000 C 
ATOM     28  N   UNL     1      -5.874  11.103  17.570  0.00  0.00    +0.000 NA
ENDBRANCH  24  27
ENDBRANCH  20  21
BRANCH  20  29
ATOM     29  C   UNL     1       1.497  11.489  19.481  0.00  0.00    +0.000 A 
ATOM     30  C   UNL     1       1.379  11.668  20.853  0.00  0.00    +0.000 A 
ATOM     31  N   UNL     1       2.019  12.800  21.278  0.00  0.00    +0.000 NA
ATOM     32  C   UNL     1       2.514  13.337  20.191  0.00  0.00    +0.000 A 
ATOM     33  N   UNL     1       2.214  12.596  19.079  0.00  0.00    +0.000 N 
ATOM     34  C   UNL     1       2.565  12.998  17.741  0.00  0.00    +0.000 C 
ENDBRANCH  20  29
ENDBRANCH  19  20
ENDBRANCH  18  19
ENDBRANCH   6  18
TORSDOF 9
ENDMDL
