MODEL 1
REMARK VINA RESULT:      -7.4      0.000      0.000
REMARK  Name = 
REMARK  16 active torsions:
REMARK  status: ('A' for Active; 'I' for Inactive)
REMARK    1  A    between atoms: C_1  and  C_2
REMARK    2  A    between atoms: C_2  and  C_3
REMARK    3  A    between atoms: C_3  and  C_4
REMARK    4  A    between atoms: C_4  and  N_5
REMARK    5  A    between atoms: N_5  and  C_6
REMARK    6  A    between atoms: C_6  and  C_7
REMARK    7  A    between atoms: C_7  and  C_8
REMARK    8  A    between atoms: C_8  and  C_9
REMARK    9  A    between atoms: C_10  and  C_12
REMARK   10  A    between atoms: C_12  and  N_13
REMARK   11  A    between atoms: C_15  and  C_16
REMARK   12  A    between atoms: C_25  and  C_26
REMARK   13  A    between atoms: C_26  and  O_28
REMARK   14  A    between atoms: C_29  and  C_30
REMARK   15  A    between atoms: C_30  and  C_31
REMARK   16  A    between atoms: C_31  and  N_32
REMARK                            x       y       z     vdW  Elec       q    Type
REMARK                         _______ _______ _______ _____ _____    ______ ____
ROOT
ATOM      1  N   UNL     1       6.740   5.547  16.239  0.00  0.00    +0.000 NA
ATOM      2  C   UNL     1       7.084   4.302  16.951  0.00  0.00    +0.000 C 
ATOM      3  C   UNL     1       6.275   4.301  18.269  0.00  0.00    +0.000 C 
ATOM      4  C   UNL     1       6.378   5.801  18.641  0.00  0.00    +0.000 C 
ATOM      5  C   UNL     1       6.388   6.542  17.283  0.00  0.00    +0.000 C 
ENDROOT
BRANCH   3   6
ATOM      6  C   UNL     1       4.840   3.765  18.160  0.00  0.00    +0.000 A 
ATOM      7  C   UNL     1       4.262   3.465  16.899  0.00  0.00    +0.000 A 
ATOM      8  C   UNL     1       2.925   3.072  16.770  0.00  0.00    +0.000 A 
ATOM      9  C   UNL     1       2.177   2.961  17.917  0.00  0.00    +0.000 A 
ATOM     10  C   UNL     1       2.738   3.156  19.153  0.00  0.00    +0.000 A 
ATOM     11  C   UNL     1       4.063   3.510  19.307  0.00  0.00    +0.000 A 
ATOM     12  O   UNL     1       1.840   2.990  20.161  0.00  0.00    +0.000 OA
ATOM     13  C   UNL     1       0.628   2.790  19.405  0.00  0.00    +0.000 C 
ATOM     14  O   UNL     1       0.855   2.659  17.987  0.00  0.00    +0.000 OA
ENDBRANCH   3   6
BRANCH   4  15
ATOM     15  C   UNL     1       7.644   6.046  19.459  0.00  0.00    +0.000 C 
ATOM     16  O   UNL     1       7.960   5.405  20.450  0.00  0.00    +0.000 OA
BRANCH  15  17
ATOM     17  O   UNL     1       8.387   7.098  19.062  0.00  0.00    +0.000 OA
ATOM     18  H   UNL     1       8.671   7.148  18.118  0.00  0.00    +0.000 HD
ENDBRANCH  15  17
ENDBRANCH   4  15
BRANCH   1  19
ATOM     19  C   UNL     1       5.862   5.323  15.080  0.00  0.00    +0.000 C 
BRANCH  19  21
ATOM     20  N   UNL     1       6.165   3.996  12.901  0.00  0.00    +0.000 N 
ATOM     21  C   UNL     1       6.681   4.952  13.804  0.00  0.00    +0.000 C 
ATOM     22  O   UNL     1       7.786   5.490  13.624  0.00  0.00    +0.000 OA
BRANCH  20  23
ATOM     23  C   UNL     1       6.926   3.764  11.656  0.00  0.00    +0.000 C 
BRANCH  23  24
ATOM     24  C   UNL     1       7.724   2.456  11.657  0.00  0.00    +0.000 C 
BRANCH  24  26
ATOM     25  C   UNL     1       6.121   0.582  11.141  0.00  0.00    +0.000 C 
ATOM     26  C   UNL     1       7.233   1.467  10.591  0.00  0.00    +0.000 C 
ENDBRANCH  24  26
ENDBRANCH  23  24
ENDBRANCH  20  23
BRANCH  20  27
ATOM     27  C   UNL     1       4.762   3.565  12.993  0.00  0.00    +0.000 C 
BRANCH  27  28
ATOM     28  C   UNL     1       4.018   3.111  11.726  0.00  0.00    +0.000 C 
BRANCH  28  29
ATOM     29  C   UNL     1       3.865   4.130  10.594  0.00  0.00    +0.000 C 
ATOM     30  C   UNL     1       2.714   3.842   9.647  0.00  0.00    +0.000 C 
ENDBRANCH  28  29
ENDBRANCH  27  28
ENDBRANCH  20  27
ENDBRANCH  19  21
ENDBRANCH   1  19
BRANCH   5  31
ATOM     31  C   UNL     1       5.094   7.377  17.074  0.00  0.00    +0.000 C 
BRANCH  31  32
ATOM     32  C   UNL     1       3.851   6.810  17.785  0.00  0.00    +0.000 C 
BRANCH  32  33
ATOM     33  N   UNL     1       2.931   7.839  18.234  0.00  0.00    +0.000 N 
ATOM     34  C   UNL     1       2.200   7.849  19.387  0.00  0.00    +0.000 A 
ATOM     35  C   UNL     1       1.299   8.879  19.258  0.00  0.00    +0.000 A 
ATOM     36  C   UNL     1       1.604   9.469  18.019  0.00  0.00    +0.000 A 
ATOM     37  N   UNL     1       2.580   8.814  17.372  0.00  0.00    +0.000 NA
ENDBRANCH  32  33
ENDBRANCH  31  32
ENDBRANCH   5  31
TORSDOF 14
ENDMDL
MODEL 2
REMARK VINA RESULT:      -7.3      2.542      7.561
REMARK  Name = 
REMARK  16 active torsions:
REMARK  status: ('A' for Active; 'I' for Inactive)
REMARK    1  A    between atoms: C_1  and  C_2
REMARK    2  A    between atoms: C_2  and  C_3
REMARK    3  A    between atoms: C_3  and  C_4
REMARK    4  A    between atoms: C_4  and  N_5
REMARK    5  A    between atoms: N_5  and  C_6
REMARK    6  A    between atoms: C_6  and  C_7
REMARK    7  A    between atoms: C_7  and  C_8
REMARK    8  A    between atoms: C_8  and  C_9
REMARK    9  A    between atoms: C_10  and  C_12
REMARK   10  A    between atoms: C_12  and  N_13
REMARK   11  A    between atoms: C_15  and  C_16
REMARK   12  A    between atoms: C_25  and  C_26
REMARK   13  A    between atoms: C_26  and  O_28
REMARK   14  A    between atoms: C_29  and  C_30
REMARK   15  A    between atoms: C_30  and  C_31
REMARK   16  A    between atoms: C_31  and  N_32
REMARK                            x       y       z     vdW  Elec       q    Type
REMARK                         _______ _______ _______ _____ _____    ______ ____
ROOT
ATOM      1  N   UNL     1       4.839   6.376  18.588  0.00  0.00    +0.000 NA
ATOM      2  C   UNL     1       5.878   7.109  17.840  0.00  0.00    +0.000 C 
ATOM      3  C   UNL     1       6.906   6.060  17.356  0.00  0.00    +0.000 C 
ATOM      4  C   UNL     1       6.944   5.137  18.599  0.00  0.00    +0.000 C 
ATOM      5  C   UNL     1       5.504   5.179  19.163  0.00  0.00    +0.000 C 
ENDROOT
BRANCH   3   6
ATOM      6  C   UNL     1       6.552   5.351  16.040  0.00  0.00    +0.000 A 
ATOM      7  C   UNL     1       5.469   4.438  15.968  0.00  0.00    +0.000 A 
ATOM      8  C   UNL     1       5.193   3.706  14.806  0.00  0.00    +0.000 A 
ATOM      9  C   UNL     1       5.998   3.912  13.713  0.00  0.00    +0.000 A 
ATOM     10  C   UNL     1       6.993   4.856  13.731  0.00  0.00    +0.000 A 
ATOM     11  C   UNL     1       7.262   5.615  14.852  0.00  0.00    +0.000 A 
ATOM     12  O   UNL     1       7.670   4.917  12.552  0.00  0.00    +0.000 OA
ATOM     13  C   UNL     1       7.063   3.819  11.841  0.00  0.00    +0.000 C 
ATOM     14  O   UNL     1       5.928   3.252  12.528  0.00  0.00    +0.000 OA
ENDBRANCH   3   6
BRANCH   4  15
ATOM     15  C   UNL     1       7.984   5.648  19.593  0.00  0.00    +0.000 C 
ATOM     16  O   UNL     1       8.201   5.144  20.685  0.00  0.00    +0.000 OA
BRANCH  15  17
ATOM     17  O   UNL     1       8.624   6.775  19.223  0.00  0.00    +0.000 OA
ATOM     18  H   UNL     1       9.437   7.041  19.714  0.00  0.00    +0.000 HD
ENDBRANCH  15  17
ENDBRANCH   4  15
BRANCH   1  19
ATOM     19  C   UNL     1       3.573   6.256  17.847  0.00  0.00    +0.000 C 
BRANCH  19  21
ATOM     20  N   UNL     1       2.003   8.115  18.671  0.00  0.00    +0.000 N 
ATOM     21  C   UNL     1       2.880   7.643  17.669  0.00  0.00    +0.000 C 
ATOM     22  O   UNL     1       3.097   8.294  16.633  0.00  0.00    +0.000 OA
BRANCH  20  23
ATOM     23  C   UNL     1       1.461   9.480  18.506  0.00  0.00    +0.000 C 
BRANCH  23  24
ATOM     24  C   UNL     1       0.071   9.517  17.864  0.00  0.00    +0.000 C 
BRANCH  24  26
ATOM     25  C   UNL     1      -2.317  10.300  18.041  0.00  0.00    +0.000 C 
ATOM     26  C   UNL     1      -0.946  10.299  18.707  0.00  0.00    +0.000 C 
ENDBRANCH  24  26
ENDBRANCH  23  24
ENDBRANCH  20  23
BRANCH  20  27
ATOM     27  C   UNL     1       1.956   7.463  19.989  0.00  0.00    +0.000 C 
BRANCH  27  28
ATOM     28  C   UNL     1       1.528   8.270  21.225  0.00  0.00    +0.000 C 
BRANCH  28  29
ATOM     29  C   UNL     1       0.048   8.229  21.617  0.00  0.00    +0.000 C 
ATOM     30  C   UNL     1      -0.394   9.378  22.503  0.00  0.00    +0.000 C 
ENDBRANCH  28  29
ENDBRANCH  27  28
ENDBRANCH  20  27
ENDBRANCH  19  21
ENDBRANCH   1  19
BRANCH   5  31
ATOM     31  C   UNL     1       4.783   3.811  19.006  0.00  0.00    +0.000 C 
BRANCH  31  32
ATOM     32  C   UNL     1       4.496   3.089  20.335  0.00  0.00    +0.000 C 
BRANCH  32  33
ATOM     33  N   UNL     1       3.080   2.895  20.585  0.00  0.00    +0.000 N 
ATOM     34  C   UNL     1       2.046   3.156  19.732  0.00  0.00    +0.000 A 
ATOM     35  C   UNL     1       0.899   3.063  20.484  0.00  0.00    +0.000 A 
ATOM     36  C   UNL     1       1.340   2.683  21.764  0.00  0.00    +0.000 A 
ATOM     37  N   UNL     1       2.677   2.612  21.840  0.00  0.00    +0.000 NA
ENDBRANCH  32  33
ENDBRANCH  31  32
ENDBRANCH   5  31
TORSDOF 14
ENDMDL
MODEL 3
REMARK VINA RESULT:      -6.9      5.371      9.734
REMARK  Name = 
REMARK  16 active torsions:
REMARK  status: ('A' for Active; 'I' for Inactive)
REMARK    1  A    between atoms: C_1  and  C_2
REMARK    2  A    between atoms: C_2  and  C_3
REMARK    3  A    between atoms: C_3  and  C_4
REMARK    4  A    between atoms: C_4  and  N_5
REMARK    5  A    between atoms: N_5  and  C_6
REMARK    6  A    between atoms: C_6  and  C_7
REMARK    7  A    between atoms: C_7  and  C_8
REMARK    8  A    between atoms: C_8  and  C_9
REMARK    9  A    between atoms: C_10  and  C_12
REMARK   10  A    between atoms: C_12  and  N_13
REMARK   11  A    between atoms: C_15  and  C_16
REMARK   12  A    between atoms: C_25  and  C_26
REMARK   13  A    between atoms: C_26  and  O_28
REMARK   14  A    between atoms: C_29  and  C_30
REMARK   15  A    between atoms: C_30  and  C_31
REMARK   16  A    between atoms: C_31  and  N_32
REMARK                            x       y       z     vdW  Elec       q    Type
REMARK                         _______ _______ _______ _____ _____    ______ ____
ROOT
ATOM      1  N   UNL     1       0.177   9.920  19.403  0.00  0.00    +0.000 NA
ATOM      2  C   UNL     1       0.089  10.827  18.242  0.00  0.00    +0.000 C 
ATOM      3  C   UNL     1      -0.159  12.247  18.800  0.00  0.00    +0.000 C 
ATOM      4  C   UNL     1      -1.130  11.908  19.959  0.00  0.00    +0.000 C 
ATOM      5  C   UNL     1      -0.663  10.524  20.468  0.00  0.00    +0.000 C 
ENDROOT
BRANCH   3   6
ATOM      6  C   UNL     1       1.100  13.018  19.223  0.00  0.00    +0.000 A 
ATOM      7  C   UNL     1       2.126  13.316  18.289  0.00  0.00    +0.000 A 
ATOM      8  C   UNL     1       3.325  13.928  18.675  0.00  0.00    +0.000 A 
ATOM      9  C   UNL     1       3.479  14.256  20.000  0.00  0.00    +0.000 A 
ATOM     10  C   UNL     1       2.465  14.061  20.902  0.00  0.00    +0.000 A 
ATOM     11  C   UNL     1       1.261  13.492  20.540  0.00  0.00    +0.000 A 
ATOM     12  O   UNL     1       2.806  14.459  22.158  0.00  0.00    +0.000 OA
ATOM     13  C   UNL     1       4.191  14.811  21.957  0.00  0.00    +0.000 C 
ATOM     14  O   UNL     1       4.589  14.791  20.571  0.00  0.00    +0.000 OA
ENDBRANCH   3   6
BRANCH   4  15
ATOM     15  C   UNL     1      -2.567  11.895  19.444  0.00  0.00    +0.000 C 
ATOM     16  O   UNL     1      -3.465  12.596  19.887  0.00  0.00    +0.000 OA
BRANCH  15  17
ATOM     17  O   UNL     1      -2.826  10.979  18.490  0.00  0.00    +0.000 OA
ATOM     18  H   UNL     1      -3.594  10.372  18.612  0.00  0.00    +0.000 HD
ENDBRANCH  15  17
ENDBRANCH   4  15
BRANCH   1  19
ATOM     19  C   UNL     1       1.551   9.476  19.683  0.00  0.00    +0.000 C 
BRANCH  19  21
ATOM     20  N   UNL     1       2.339   7.121  19.025  0.00  0.00    +0.000 N 
ATOM     21  C   UNL     1       2.047   8.443  18.623  0.00  0.00    +0.000 C 
ATOM     22  O   UNL     1       2.198   8.817  17.448  0.00  0.00    +0.000 OA
BRANCH  20  23
ATOM     23  C   UNL     1       2.697   6.156  17.964  0.00  0.00    +0.000 C 
BRANCH  23  24
ATOM     24  C   UNL     1       4.167   5.725  17.994  0.00  0.00    +0.000 C 
BRANCH  24  26
ATOM     25  C   UNL     1       3.240   3.401  17.707  0.00  0.00    +0.000 C 
ATOM     26  C   UNL     1       4.388   4.344  17.364  0.00  0.00    +0.000 C 
ENDBRANCH  24  26
ENDBRANCH  23  24
ENDBRANCH  20  23
BRANCH  20  27
ATOM     27  C   UNL     1       1.916   6.633  20.347  0.00  0.00    +0.000 C 
BRANCH  27  28
ATOM     28  C   UNL     1       1.367   5.204  20.493  0.00  0.00    +0.000 C 
BRANCH  28  29
ATOM     29  C   UNL     1       2.203   4.207  21.300  0.00  0.00    +0.000 C 
ATOM     30  C   UNL     1       1.636   2.799  21.330  0.00  0.00    +0.000 C 
ENDBRANCH  28  29
ENDBRANCH  27  28
ENDBRANCH  20  27
ENDBRANCH  19  21
ENDBRANCH   1  19
BRANCH   5  31
ATOM     31  C   UNL     1      -0.059  10.610  21.898  0.00  0.00    +0.000 C 
BRANCH  31  32
ATOM     32  C   UNL     1      -1.103  10.584  23.030  0.00  0.00    +0.000 C 
BRANCH  32  33
ATOM     33  N   UNL     1      -1.803  11.845  23.191  0.00  0.00    +0.000 N 
ATOM     34  C   UNL     1      -1.255  13.094  23.245  0.00  0.00    +0.000 A 
ATOM     35  C   UNL     1      -2.262  13.934  23.657  0.00  0.00    +0.000 A 
ATOM     36  C   UNL     1      -3.394  13.108  23.769  0.00  0.00    +0.000 A 
ATOM     37  N   UNL     1      -3.111  11.822  23.518  0.00  0.00    +0.000 NA
ENDBRANCH  32  33
ENDBRANCH  31  32
ENDBRANCH   5  31
TORSDOF 14
ENDMDL
MODEL 4
REMARK VINA RESULT:      -6.9      5.224      9.625
REMARK  Name = 
REMARK  16 active torsions:
REMARK  status: ('A' for Active; 'I' for Inactive)
REMARK    1  A    between atoms: C_1  and  C_2
REMARK    2  A    between atoms: C_2  and  C_3
REMARK    3  A    between atoms: C_3  and  C_4
REMARK    4  A    between atoms: C_4  and  N_5
REMARK    5  A    between atoms: N_5  and  C_6
REMARK    6  A    between atoms: C_6  and  C_7
REMARK    7  A    between atoms: C_7  and  C_8
REMARK    8  A    between atoms: C_8  and  C_9
REMARK    9  A    between atoms: C_10  and  C_12
REMARK   10  A    between atoms: C_12  and  N_13
REMARK   11  A    between atoms: C_15  and  C_16
REMARK   12  A    between atoms: C_25  and  C_26
REMARK   13  A    between atoms: C_26  and  O_28
REMARK   14  A    between atoms: C_29  and  C_30
REMARK   15  A    between atoms: C_30  and  C_31
REMARK   16  A    between atoms: C_31  and  N_32
REMARK                            x       y       z     vdW  Elec       q    Type
REMARK                         _______ _______ _______ _____ _____    ______ ____
ROOT
ATOM      1  N   UNL     1       0.374   9.809  19.198  0.00  0.00    +0.000 NA
ATOM      2  C   UNL     1       0.270  10.749  18.065  0.00  0.00    +0.000 C 
ATOM      3  C   UNL     1      -0.031  12.142  18.666  0.00  0.00    +0.000 C 
ATOM      4  C   UNL     1      -1.003  11.735  19.801  0.00  0.00    +0.000 C 
ATOM      5  C   UNL     1      -0.498  10.350  20.271  0.00  0.00    +0.000 C 
ENDROOT
BRANCH   3   6
ATOM      6  C   UNL     1       1.198  12.938  19.129  0.00  0.00    +0.000 A 
ATOM      7  C   UNL     1       2.251  13.251  18.232  0.00  0.00    +0.000 A 
ATOM      8  C   UNL     1       3.424  13.887  18.657  0.00  0.00    +0.000 A 
ATOM      9  C   UNL     1       3.524  14.225  19.985  0.00  0.00    +0.000 A 
ATOM     10  C   UNL     1       2.482  14.016  20.851  0.00  0.00    +0.000 A 
ATOM     11  C   UNL     1       1.303  13.423  20.448  0.00  0.00    +0.000 A 
ATOM     12  O   UNL     1       2.770  14.427  22.116  0.00  0.00    +0.000 OA
ATOM     13  C   UNL     1       4.154  14.803  21.963  0.00  0.00    +0.000 C 
ATOM     14  O   UNL     1       4.602  14.783  20.592  0.00  0.00    +0.000 OA
ENDBRANCH   3   6
BRANCH   4  15
ATOM     15  C   UNL     1      -2.433  11.693  19.267  0.00  0.00    +0.000 C 
ATOM     16  O   UNL     1      -2.880  10.802  18.559  0.00  0.00    +0.000 OA
BRANCH  15  17
ATOM     17  O   UNL     1      -3.186  12.771  19.563  0.00  0.00    +0.000 OA
ATOM     18  H   UNL     1      -2.781  13.668  19.482  0.00  0.00    +0.000 HD
ENDBRANCH  15  17
ENDBRANCH   4  15
BRANCH   1  19
ATOM     19  C   UNL     1       1.758   9.399  19.481  0.00  0.00    +0.000 C 
BRANCH  19  21
ATOM     20  N   UNL     1       2.581   7.008  19.035  0.00  0.00    +0.000 N 
ATOM     21  C   UNL     1       2.232   8.272  18.512  0.00  0.00    +0.000 C 
ATOM     22  O   UNL     1       2.317   8.523  17.297  0.00  0.00    +0.000 OA
BRANCH  20  23
ATOM     23  C   UNL     1       2.916   5.945  18.064  0.00  0.00    +0.000 C 
BRANCH  23  24
ATOM     24  C   UNL     1       1.735   5.032  17.719  0.00  0.00    +0.000 C 
BRANCH  24  26
ATOM     25  C   UNL     1       3.630   3.379  17.858  0.00  0.00    +0.000 C 
ATOM     26  C   UNL     1       2.162   3.575  17.499  0.00  0.00    +0.000 C 
ENDBRANCH  24  26
ENDBRANCH  23  24
ENDBRANCH  20  23
BRANCH  20  27
ATOM     27  C   UNL     1       2.237   6.653  20.420  0.00  0.00    +0.000 C 
BRANCH  27  28
ATOM     28  C   UNL     1       1.409   5.388  20.700  0.00  0.00    +0.000 C 
BRANCH  28  29
ATOM     29  C   UNL     1       2.136   4.191  21.320  0.00  0.00    +0.000 C 
ATOM     30  C   UNL     1       1.419   2.866  21.143  0.00  0.00    +0.000 C 
ENDBRANCH  28  29
ENDBRANCH  27  28
ENDBRANCH  20  27
ENDBRANCH  19  21
ENDBRANCH   1  19
BRANCH   5  31
ATOM     31  C   UNL     1       0.086  10.409  21.710  0.00  0.00    +0.000 C 
BRANCH  31  32
ATOM     32  C   UNL     1      -0.975  10.405  22.826  0.00  0.00    +0.000 C 
BRANCH  32  33
ATOM     33  N   UNL     1      -1.459  11.732  23.160  0.00  0.00    +0.000 N 
ATOM     34  C   UNL     1      -2.758  12.148  23.220  0.00  0.00    +0.000 A 
ATOM     35  C   UNL     1      -2.715  13.518  23.319  0.00  0.00    +0.000 A 
ATOM     36  C   UNL     1      -1.344  13.831  23.371  0.00  0.00    +0.000 A 
ATOM     37  N   UNL     1      -0.571  12.743  23.239  0.00  0.00    +0.000 NA
ENDBRANCH  32  33
ENDBRANCH  31  32
ENDBRANCH   5  31
TORSDOF 14
ENDMDL
MODEL 5
REMARK VINA RESULT:      -6.8      6.240     12.055
REMARK  Name = 
REMARK  16 active torsions:
REMARK  status: ('A' for Active; 'I' for Inactive)
REMARK    1  A    between atoms: C_1  and  C_2
REMARK    2  A    between atoms: C_2  and  C_3
REMARK    3  A    between atoms: C_3  and  C_4
REMARK    4  A    between atoms: C_4  and  N_5
REMARK    5  A    between atoms: N_5  and  C_6
REMARK    6  A    between atoms: C_6  and  C_7
REMARK    7  A    between atoms: C_7  and  C_8
REMARK    8  A    between atoms: C_8  and  C_9
REMARK    9  A    between atoms: C_10  and  C_12
REMARK   10  A    between atoms: C_12  and  N_13
REMARK   11  A    between atoms: C_15  and  C_16
REMARK   12  A    between atoms: C_25  and  C_26
REMARK   13  A    between atoms: C_26  and  O_28
REMARK   14  A    between atoms: C_29  and  C_30
REMARK   15  A    between atoms: C_30  and  C_31
REMARK   16  A    between atoms: C_31  and  N_32
REMARK                            x       y       z     vdW  Elec       q    Type
REMARK                         _______ _______ _______ _____ _____    ______ ____
ROOT
ATOM      1  N   UNL     1      -1.694  11.077  19.772  0.00  0.00    +0.000 NA
ATOM      2  C   UNL     1      -1.425  11.946  20.934  0.00  0.00    +0.000 C 
ATOM      3  C   UNL     1       0.111  12.064  21.060  0.00  0.00    +0.000 C 
ATOM      4  C   UNL     1       0.516  10.611  20.704  0.00  0.00    +0.000 C 
ATOM      5  C   UNL     1      -0.534  10.156  19.663  0.00  0.00    +0.000 C 
ENDROOT
BRANCH   3   6
ATOM      6  C   UNL     1       0.763  13.144  20.184  0.00  0.00    +0.000 A 
ATOM      7  C   UNL     1       2.103  13.016  19.737  0.00  0.00    +0.000 A 
ATOM      8  C   UNL     1       2.748  14.034  19.023  0.00  0.00    +0.000 A 
ATOM      9  C   UNL     1       2.031  15.172  18.744  0.00  0.00    +0.000 A 
ATOM     10  C   UNL     1       0.707  15.280  19.086  0.00  0.00    +0.000 A 
ATOM     11  C   UNL     1       0.040  14.276  19.759  0.00  0.00    +0.000 A 
ATOM     12  O   UNL     1       0.172  16.475  18.714  0.00  0.00    +0.000 OA
ATOM     13  C   UNL     1       1.347  17.145  18.212  0.00  0.00    +0.000 C 
ATOM     14  O   UNL     1       2.501  16.285  18.125  0.00  0.00    +0.000 OA
ENDBRANCH   3   6
BRANCH   4  15
ATOM     15  C   UNL     1       0.512   9.749  21.965  0.00  0.00    +0.000 C 
ATOM     16  O   UNL     1      -0.470   9.163  22.396  0.00  0.00    +0.000 OA
BRANCH  15  17
ATOM     17  O   UNL     1       1.674   9.729  22.648  0.00  0.00    +0.000 OA
ATOM     18  H   UNL     1       2.489   9.416  22.187  0.00  0.00    +0.000 HD
ENDBRANCH  15  17
ENDBRANCH   4  15
BRANCH   1  19
ATOM     19  C   UNL     1      -2.186  11.818  18.600  0.00  0.00    +0.000 C 
BRANCH  19  21
ATOM     20  N   UNL     1      -4.735  11.748  18.908  0.00  0.00    +0.000 N 
ATOM     21  C   UNL     1      -3.605  11.331  18.170  0.00  0.00    +0.000 C 
ATOM     22  O   UNL     1      -3.706  10.563  17.198  0.00  0.00    +0.000 OA
BRANCH  20  23
ATOM     23  C   UNL     1      -6.062  11.350  18.392  0.00  0.00    +0.000 C 
BRANCH  23  24
ATOM     24  C   UNL     1      -6.548   9.997  18.923  0.00  0.00    +0.000 C 
BRANCH  24  26
ATOM     25  C   UNL     1      -7.790   8.766  20.736  0.00  0.00    +0.000 C 
ATOM     26  C   UNL     1      -7.402  10.135  20.191  0.00  0.00    +0.000 C 
ENDBRANCH  24  26
ENDBRANCH  23  24
ENDBRANCH  20  23
BRANCH  20  27
ATOM     27  C   UNL     1      -4.627  12.844  19.882  0.00  0.00    +0.000 C 
BRANCH  27  28
ATOM     28  C   UNL     1      -5.104  12.630  21.328  0.00  0.00    +0.000 C 
BRANCH  28  29
ATOM     29  C   UNL     1      -4.459  13.490  22.419  0.00  0.00    +0.000 C 
ATOM     30  C   UNL     1      -3.905  12.699  23.589  0.00  0.00    +0.000 C 
ENDBRANCH  28  29
ENDBRANCH  27  28
ENDBRANCH  20  27
ENDBRANCH  19  21
ENDBRANCH   1  19
BRANCH   5  31
ATOM     31  C   UNL     1       0.098   9.960  18.257  0.00  0.00    +0.000 C 
BRANCH  31  32
ATOM     32  C   UNL     1       1.637   9.905  18.255  0.00  0.00    +0.000 C 
BRANCH  32  33
ATOM     33  N   UNL     1       2.160   8.552  18.299  0.00  0.00    +0.000 N 
ATOM     34  C   UNL     1       2.098   7.675  19.343  0.00  0.00    +0.000 A 
ATOM     35  C   UNL     1       2.937   6.636  19.018  0.00  0.00    +0.000 A 
ATOM     36  C   UNL     1       3.414   6.949  17.733  0.00  0.00    +0.000 A 
ATOM     37  N   UNL     1       2.968   8.138  17.302  0.00  0.00    +0.000 NA
ENDBRANCH  32  33
ENDBRANCH  31  32
ENDBRANCH   5  31
TORSDOF 14
ENDMDL
MODEL 6
REMARK VINA RESULT:      -6.8      5.189      9.582
REMARK  Name = 
REMARK  16 active torsions:
REMARK  status: ('A' for Active; 'I' for Inactive)
REMARK    1  A    between atoms: C_1  and  C_2
REMARK    2  A    between atoms: C_2  and  C_3
REMARK    3  A    between atoms: C_3  and  C_4
REMARK    4  A    between atoms: C_4  and  N_5
REMARK    5  A    between atoms: N_5  and  C_6
REMARK    6  A    between atoms: C_6  and  C_7
REMARK    7  A    between atoms: C_7  and  C_8
REMARK    8  A    between atoms: C_8  and  C_9
REMARK    9  A    between atoms: C_10  and  C_12
REMARK   10  A    between atoms: C_12  and  N_13
REMARK   11  A    between atoms: C_15  and  C_16
REMARK   12  A    between atoms: C_25  and  C_26
REMARK   13  A    between atoms: C_26  and  O_28
REMARK   14  A    between atoms: C_29  and  C_30
REMARK   15  A    between atoms: C_30  and  C_31
REMARK   16  A    between atoms: C_31  and  N_32
REMARK                            x       y       z     vdW  Elec       q    Type
REMARK                         _______ _______ _______ _____ _____    ______ ____
ROOT
ATOM      1  N   UNL     1       0.345   9.844  19.277  0.00  0.00    +0.000 NA
ATOM      2  C   UNL     1       0.302  10.779  18.136  0.00  0.00    +0.000 C 
ATOM      3  C   UNL     1       0.097  12.194  18.724  0.00  0.00    +0.000 C 
ATOM      4  C   UNL     1      -0.898  11.863  19.865  0.00  0.00    +0.000 C 
ATOM      5  C   UNL     1      -0.486  10.452  20.347  0.00  0.00    +0.000 C 
ENDROOT
BRANCH   3   6
ATOM      6  C   UNL     1       1.378  12.910  19.178  0.00  0.00    +0.000 A 
ATOM      7  C   UNL     1       1.558  13.304  20.529  0.00  0.00    +0.000 A 
ATOM      8  C   UNL     1       2.672  14.046  20.943  0.00  0.00    +0.000 A 
ATOM      9  C   UNL     1       3.612  14.371  19.996  0.00  0.00    +0.000 A 
ATOM     10  C   UNL     1       3.505  13.922  18.705  0.00  0.00    +0.000 A 
ATOM     11  C   UNL     1       2.434  13.161  18.281  0.00  0.00    +0.000 A 
ATOM     12  O   UNL     1       4.538  14.340  17.924  0.00  0.00    +0.000 OA
ATOM     13  C   UNL     1       5.236  15.201  18.848  0.00  0.00    +0.000 C 
ATOM     14  O   UNL     1       4.718  15.135  20.192  0.00  0.00    +0.000 OA
ENDBRANCH   3   6
BRANCH   4  15
ATOM     15  C   UNL     1      -2.329  11.913  19.335  0.00  0.00    +0.000 C 
ATOM     16  O   UNL     1      -2.805  11.100  18.556  0.00  0.00    +0.000 OA
BRANCH  15  17
ATOM     17  O   UNL     1      -3.046  12.986  19.723  0.00  0.00    +0.000 OA
ATOM     18  H   UNL     1      -3.792  12.854  20.355  0.00  0.00    +0.000 HD
ENDBRANCH  15  17
ENDBRANCH   4  15
BRANCH   1  19
ATOM     19  C   UNL     1       1.699   9.345  19.561  0.00  0.00    +0.000 C 
BRANCH  19  21
ATOM     20  N   UNL     1       2.610   7.044  18.872  0.00  0.00    +0.000 N 
ATOM     21  C   UNL     1       2.174   8.328  18.476  0.00  0.00    +0.000 C 
ATOM     22  O   UNL     1       2.183   8.683  17.285  0.00  0.00    +0.000 OA
BRANCH  20  23
ATOM     23  C   UNL     1       2.944   6.085  17.798  0.00  0.00    +0.000 C 
BRANCH  23  24
ATOM     24  C   UNL     1       4.005   5.055  18.200  0.00  0.00    +0.000 C 
BRANCH  24  26
ATOM     25  C   UNL     1       5.003   4.278  16.022  0.00  0.00    +0.000 C 
ATOM     26  C   UNL     1       4.111   3.898  17.198  0.00  0.00    +0.000 C 
ENDBRANCH  24  26
ENDBRANCH  23  24
ENDBRANCH  20  23
BRANCH  20  27
ATOM     27  C   UNL     1       2.356   6.558  20.236  0.00  0.00    +0.000 C 
BRANCH  27  28
ATOM     28  C   UNL     1       1.288   5.477  20.474  0.00  0.00    +0.000 C 
BRANCH  28  29
ATOM     29  C   UNL     1       1.761   4.125  21.015  0.00  0.00    +0.000 C 
ATOM     30  C   UNL     1       1.184   2.926  20.286  0.00  0.00    +0.000 C 
ENDBRANCH  28  29
ENDBRANCH  27  28
ENDBRANCH  20  27
ENDBRANCH  19  21
ENDBRANCH   1  19
BRANCH   5  31
ATOM     31  C   UNL     1       0.105  10.485  21.784  0.00  0.00    +0.000 C 
BRANCH  31  32
ATOM     32  C   UNL     1      -0.951  10.457  22.905  0.00  0.00    +0.000 C 
BRANCH  32  33
ATOM     33  N   UNL     1      -1.486  11.769  23.218  0.00  0.00    +0.000 N 
ATOM     34  C   UNL     1      -2.800  12.138  23.261  0.00  0.00    +0.000 A 
ATOM     35  C   UNL     1      -2.809  13.510  23.343  0.00  0.00    +0.000 A 
ATOM     36  C   UNL     1      -1.451  13.873  23.404  0.00  0.00    +0.000 A 
ATOM     37  N   UNL     1      -0.637  12.814  23.292  0.00  0.00    +0.000 NA
ENDBRANCH  32  33
ENDBRANCH  31  32
ENDBRANCH   5  31
TORSDOF 14
ENDMDL
MODEL 7
REMARK VINA RESULT:      -6.7      5.671     10.863
REMARK  Name = 
REMARK  16 active torsions:
REMARK  status: ('A' for Active; 'I' for Inactive)
REMARK    1  A    between atoms: C_1  and  C_2
REMARK    2  A    between atoms: C_2  and  C_3
REMARK    3  A    between atoms: C_3  and  C_4
REMARK    4  A    between atoms: C_4  and  N_5
REMARK    5  A    between atoms: N_5  and  C_6
REMARK    6  A    between atoms: C_6  and  C_7
REMARK    7  A    between atoms: C_7  and  C_8
REMARK    8  A    between atoms: C_8  and  C_9
REMARK    9  A    between atoms: C_10  and  C_12
REMARK   10  A    between atoms: C_12  and  N_13
REMARK   11  A    between atoms: C_15  and  C_16
REMARK   12  A    between atoms: C_25  and  C_26
REMARK   13  A    between atoms: C_26  and  O_28
REMARK   14  A    between atoms: C_29  and  C_30
REMARK   15  A    between atoms: C_30  and  C_31
REMARK   16  A    between atoms: C_31  and  N_32
REMARK                            x       y       z     vdW  Elec       q    Type
REMARK                         _______ _______ _______ _____ _____    ______ ____
ROOT
ATOM      1  N   UNL     1      -0.759  10.407  19.491  0.00  0.00    +0.000 NA
ATOM      2  C   UNL     1      -1.004  11.224  20.695  0.00  0.00    +0.000 C 
ATOM      3  C   UNL     1       0.376  11.704  21.199  0.00  0.00    +0.000 C 
ATOM      4  C   UNL     1       1.212  10.427  20.934  0.00  0.00    +0.000 C 
ATOM      5  C   UNL     1       0.590   9.810  19.659  0.00  0.00    +0.000 C 
ENDROOT
BRANCH   3   6
ATOM      6  C   UNL     1       0.916  12.975  20.528  0.00  0.00    +0.000 A 
ATOM      7  C   UNL     1       0.070  14.085  20.270  0.00  0.00    +0.000 A 
ATOM      8  C   UNL     1       0.518  15.212  19.569  0.00  0.00    +0.000 A 
ATOM      9  C   UNL     1       1.825  15.226  19.147  0.00  0.00    +0.000 A 
ATOM     10  C   UNL     1       2.685  14.206  19.464  0.00  0.00    +0.000 A 
ATOM     11  C   UNL     1       2.276  13.101  20.184  0.00  0.00    +0.000 A 
ATOM     12  O   UNL     1       3.935  14.408  18.966  0.00  0.00    +0.000 OA
ATOM     13  C   UNL     1       3.721  15.612  18.199  0.00  0.00    +0.000 C 
ATOM     14  O   UNL     1       2.417  16.194  18.402  0.00  0.00    +0.000 OA
ENDBRANCH   3   6
BRANCH   4  15
ATOM     15  C   UNL     1       1.133   9.496  22.141  0.00  0.00    +0.000 C 
ATOM     16  O   UNL     1       0.753   9.837  23.252  0.00  0.00    +0.000 OA
BRANCH  15  17
ATOM     17  O   UNL     1       1.596   8.248  21.932  0.00  0.00    +0.000 OA
ATOM     18  H   UNL     1       1.258   7.741  21.156  0.00  0.00    +0.000 HD
ENDBRANCH  15  17
ENDBRANCH   4  15
BRANCH   1  19
ATOM     19  C   UNL     1      -1.135  11.093  18.244  0.00  0.00    +0.000 C 
BRANCH  19  21
ATOM     20  N   UNL     1      -3.479  11.296  17.215  0.00  0.00    +0.000 N 
ATOM     21  C   UNL     1      -2.611  11.595  18.289  0.00  0.00    +0.000 C 
ATOM     22  O   UNL     1      -2.986  12.272  19.262  0.00  0.00    +0.000 OA
BRANCH  20  23
ATOM     23  C   UNL     1      -4.894  11.699  17.358  0.00  0.00    +0.000 C 
BRANCH  23  24
ATOM     24  C   UNL     1      -5.714  10.761  18.250  0.00  0.00    +0.000 C 
BRANCH  24  26
ATOM     25  C   UNL     1      -7.289  10.552  20.204  0.00  0.00    +0.000 C 
ATOM     26  C   UNL     1      -6.568  11.521  19.274  0.00  0.00    +0.000 C 
ENDBRANCH  24  26
ENDBRANCH  23  24
ENDBRANCH  20  23
BRANCH  20  27
ATOM     27  C   UNL     1      -3.101  10.293  16.208  0.00  0.00    +0.000 C 
BRANCH  27  28
ATOM     28  C   UNL     1      -3.947  10.134  14.934  0.00  0.00    +0.000 C 
BRANCH  28  29
ATOM     29  C   UNL     1      -3.203   9.887  13.619  0.00  0.00    +0.000 C 
ATOM     30  C   UNL     1      -4.104   9.780  12.403  0.00  0.00    +0.000 C 
ENDBRANCH  28  29
ENDBRANCH  27  28
ENDBRANCH  20  27
ENDBRANCH  19  21
ENDBRANCH   1  19
BRANCH   5  31
ATOM     31  C   UNL     1       1.564   9.884  18.450  0.00  0.00    +0.000 C 
BRANCH  31  32
ATOM     32  C   UNL     1       1.649   8.588  17.623  0.00  0.00    +0.000 C 
BRANCH  32  33
ATOM     33  N   UNL     1       2.629   7.647  18.135  0.00  0.00    +0.000 N 
ATOM     34  C   UNL     1       3.766   7.218  17.514  0.00  0.00    +0.000 A 
ATOM     35  C   UNL     1       4.230   6.159  18.257  0.00  0.00    +0.000 A 
ATOM     36  C   UNL     1       3.337   6.063  19.340  0.00  0.00    +0.000 A 
ATOM     37  N   UNL     1       2.336   6.950  19.251  0.00  0.00    +0.000 NA
ENDBRANCH  32  33
ENDBRANCH  31  32
ENDBRANCH   5  31
TORSDOF 14
ENDMDL
MODEL 8
REMARK VINA RESULT:      -6.7      5.930     11.771
REMARK  Name = 
REMARK  16 active torsions:
REMARK  status: ('A' for Active; 'I' for Inactive)
REMARK    1  A    between atoms: C_1  and  C_2
REMARK    2  A    between atoms: C_2  and  C_3
REMARK    3  A    between atoms: C_3  and  C_4
REMARK    4  A    between atoms: C_4  and  N_5
REMARK    5  A    between atoms: N_5  and  C_6
REMARK    6  A    between atoms: C_6  and  C_7
REMARK    7  A    between atoms: C_7  and  C_8
REMARK    8  A    between atoms: C_8  and  C_9
REMARK    9  A    between atoms: C_10  and  C_12
REMARK   10  A    between atoms: C_12  and  N_13
REMARK   11  A    between atoms: C_15  and  C_16
REMARK   12  A    between atoms: C_25  and  C_26
REMARK   13  A    between atoms: C_26  and  O_28
REMARK   14  A    between atoms: C_29  and  C_30
REMARK   15  A    between atoms: C_30  and  C_31
REMARK   16  A    between atoms: C_31  and  N_32
REMARK                            x       y       z     vdW  Elec       q    Type
REMARK                         _______ _______ _______ _____ _____    ______ ____
ROOT
ATOM      1  N   UNL     1      -1.266  10.744  19.794  0.00  0.00    +0.000 NA
ATOM      2  C   UNL     1      -1.130  11.581  21.001  0.00  0.00    +0.000 C 
ATOM      3  C   UNL     1       0.380  11.860  21.185  0.00  0.00    +0.000 C 
ATOM      4  C   UNL     1       0.953  10.479  20.779  0.00  0.00    +0.000 C 
ATOM      5  C   UNL     1      -0.009   9.961  19.684  0.00  0.00    +0.000 C 
ENDROOT
BRANCH   3   6
ATOM      6  C   UNL     1       0.933  13.045  20.380  0.00  0.00    +0.000 A 
ATOM      7  C   UNL     1       0.155  14.211  20.162  0.00  0.00    +0.000 A 
ATOM      8  C   UNL     1       0.602  15.260  19.348  0.00  0.00    +0.000 A 
ATOM      9  C   UNL     1       1.842  15.138  18.770  0.00  0.00    +0.000 A 
ATOM     10  C   UNL     1       2.649  14.062  19.040  0.00  0.00    +0.000 A 
ATOM     11  C   UNL     1       2.245  13.033  19.866  0.00  0.00    +0.000 A 
ATOM     12  O   UNL     1       3.838  14.130  18.382  0.00  0.00    +0.000 OA
ATOM     13  C   UNL     1       3.629  15.310  17.579  0.00  0.00    +0.000 C 
ATOM     14  O   UNL     1       2.413  16.013  17.904  0.00  0.00    +0.000 OA
ENDBRANCH   3   6
BRANCH   4  15
ATOM     15  C   UNL     1       1.008   9.562  22.000  0.00  0.00    +0.000 C 
ATOM     16  O   UNL     1       0.796   9.927  23.146  0.00  0.00    +0.000 OA
BRANCH  15  17
ATOM     17  O   UNL     1       1.395   8.296  21.748  0.00  0.00    +0.000 OA
ATOM     18  H   UNL     1       2.197   8.148  21.191  0.00  0.00    +0.000 HD
ENDBRANCH  15  17
ENDBRANCH   4  15
BRANCH   1  19
ATOM     19  C   UNL     1      -1.803  11.481  18.639  0.00  0.00    +0.000 C 
BRANCH  19  21
ATOM     20  N   UNL     1      -4.363  11.317  18.509  0.00  0.00    +0.000 N 
ATOM     21  C   UNL     1      -3.107  10.820  18.094  0.00  0.00    +0.000 C 
ATOM     22  O   UNL     1      -3.011   9.851  17.323  0.00  0.00    +0.000 OA
BRANCH  20  23
ATOM     23  C   UNL     1      -5.563  10.728  17.878  0.00  0.00    +0.000 C 
BRANCH  23  24
ATOM     24  C   UNL     1      -6.859  10.994  18.651  0.00  0.00    +0.000 C 
BRANCH  24  26
ATOM     25  C   UNL     1      -7.905  10.559  20.901  0.00  0.00    +0.000 C 
ATOM     26  C   UNL     1      -7.115   9.952  19.748  0.00  0.00    +0.000 C 
ENDBRANCH  24  26
ENDBRANCH  23  24
ENDBRANCH  20  23
BRANCH  20  27
ATOM     27  C   UNL     1      -4.461  12.606  19.209  0.00  0.00    +0.000 C 
BRANCH  27  28
ATOM     28  C   UNL     1      -4.661  12.635  20.733  0.00  0.00    +0.000 C 
BRANCH  28  29
ATOM     29  C   UNL     1      -5.296  13.891  21.338  0.00  0.00    +0.000 C 
ATOM     30  C   UNL     1      -6.775  14.049  21.037  0.00  0.00    +0.000 C 
ENDBRANCH  28  29
ENDBRANCH  27  28
ENDBRANCH  20  27
ENDBRANCH  19  21
ENDBRANCH   1  19
BRANCH   5  31
ATOM     31  C   UNL     1       0.681   9.902  18.293  0.00  0.00    +0.000 C 
BRANCH  31  32
ATOM     32  C   UNL     1       2.211   9.739  18.350  0.00  0.00    +0.000 C 
BRANCH  32  33
ATOM     33  N   UNL     1       2.638   8.351  18.330  0.00  0.00    +0.000 N 
ATOM     34  C   UNL     1       3.486   7.760  17.437  0.00  0.00    +0.000 A 
ATOM     35  C   UNL     1       3.389   6.407  17.659  0.00  0.00    +0.000 A 
ATOM     36  C   UNL     1       2.503   6.285  18.744  0.00  0.00    +0.000 A 
ATOM     37  N   UNL     1       2.014   7.470  19.136  0.00  0.00    +0.000 NA
ENDBRANCH  32  33
ENDBRANCH  31  32
ENDBRANCH   5  31
TORSDOF 14
ENDMDL
MODEL 9
REMARK VINA RESULT:      -6.6      5.663     10.280
REMARK  Name = 
REMARK  16 active torsions:
REMARK  status: ('A' for Active; 'I' for Inactive)
REMARK    1  A    between atoms: C_1  and  C_2
REMARK    2  A    between atoms: C_2  and  C_3
REMARK    3  A    between atoms: C_3  and  C_4
REMARK    4  A    between atoms: C_4  and  N_5
REMARK    5  A    between atoms: N_5  and  C_6
REMARK    6  A    between atoms: C_6  and  C_7
REMARK    7  A    between atoms: C_7  and  C_8
REMARK    8  A    between atoms: C_8  and  C_9
REMARK    9  A    between atoms: C_10  and  C_12
REMARK   10  A    between atoms: C_12  and  N_13
REMARK   11  A    between atoms: C_15  and  C_16
REMARK   12  A    between atoms: C_25  and  C_26
REMARK   13  A    between atoms: C_26  and  O_28
REMARK   14  A    between atoms: C_29  and  C_30
REMARK   15  A    between atoms: C_30  and  C_31
REMARK   16  A    between atoms: C_31  and  N_32
REMARK                            x       y       z     vdW  Elec       q    Type
REMARK                         _______ _______ _______ _____ _____    ______ ____
ROOT
ATOM      1  N   UNL     1      -0.169  10.124  19.582  0.00  0.00    +0.000 NA
ATOM      2  C   UNL     1      -0.377  10.707  18.242  0.00  0.00    +0.000 C 
ATOM      3  C   UNL     1      -0.653  12.214  18.447  0.00  0.00    +0.000 C 
ATOM      4  C   UNL     1      -1.526  12.150  19.725  0.00  0.00    +0.000 C 
ATOM      5  C   UNL     1      -0.963  10.951  20.525  0.00  0.00    +0.000 C 
ENDROOT
BRANCH   3   6
ATOM      6  C   UNL     1       0.596  13.101  18.568  0.00  0.00    +0.000 A 
ATOM      7  C   UNL     1       1.863  12.649  18.119  0.00  0.00    +0.000 A 
ATOM      8  C   UNL     1       3.030  13.400  18.311  0.00  0.00    +0.000 A 
ATOM      9  C   UNL     1       2.911  14.616  18.938  0.00  0.00    +0.000 A 
ATOM     10  C   UNL     1       1.685  15.114  19.298  0.00  0.00    +0.000 A 
ATOM     11  C   UNL     1       0.518  14.408  19.088  0.00  0.00    +0.000 A 
ATOM     12  O   UNL     1       1.776  16.334  19.895  0.00  0.00    +0.000 OA
ATOM     13  C   UNL     1       3.209  16.482  19.975  0.00  0.00    +0.000 C 
ATOM     14  O   UNL     1       3.930  15.450  19.270  0.00  0.00    +0.000 OA
ENDBRANCH   3   6
BRANCH   4  15
ATOM     15  C   UNL     1      -2.993  11.968  19.341  0.00  0.00    +0.000 C 
ATOM     16  O   UNL     1      -3.377  11.591  18.244  0.00  0.00    +0.000 OA
BRANCH  15  17
ATOM     17  O   UNL     1      -3.882  12.335  20.285  0.00  0.00    +0.000 OA
ATOM     18  H   UNL     1      -4.639  11.734  20.482  0.00  0.00    +0.000 HD
ENDBRANCH  15  17
ENDBRANCH   4  15
BRANCH   1  19
ATOM     19  C   UNL     1       1.240   9.802  19.858  0.00  0.00    +0.000 C 
BRANCH  19  21
ATOM     20  N   UNL     1       1.677   7.272  19.931  0.00  0.00    +0.000 N 
ATOM     21  C   UNL     1       1.378   8.458  20.638  0.00  0.00    +0.000 C 
ATOM     22  O   UNL     1       1.195   8.456  21.867  0.00  0.00    +0.000 OA
BRANCH  20  23
ATOM     23  C   UNL     1       1.906   6.049  20.729  0.00  0.00    +0.000 C 
BRANCH  23  24
ATOM     24  C   UNL     1       1.088   4.843  20.258  0.00  0.00    +0.000 C 
BRANCH  24  26
ATOM     25  C   UNL     1       1.401   2.422  19.639  0.00  0.00    +0.000 C 
ATOM     26  C   UNL     1       1.725   3.506  20.660  0.00  0.00    +0.000 C 
ENDBRANCH  24  26
ENDBRANCH  23  24
ENDBRANCH  20  23
BRANCH  20  27
ATOM     27  C   UNL     1       2.137   7.332  18.535  0.00  0.00    +0.000 C 
BRANCH  27  28
ATOM     28  C   UNL     1       3.640   7.257  18.223  0.00  0.00    +0.000 C 
BRANCH  28  29
ATOM     29  C   UNL     1       4.272   5.865  18.125  0.00  0.00    +0.000 C 
ATOM     30  C   UNL     1       3.394   4.828  17.447  0.00  0.00    +0.000 C 
ENDBRANCH  28  29
ENDBRANCH  27  28
ENDBRANCH  20  27
ENDBRANCH  19  21
ENDBRANCH   1  19
BRANCH   5  31
ATOM     31  C   UNL     1      -0.269  11.411  21.838  0.00  0.00    +0.000 C 
BRANCH  31  32
ATOM     32  C   UNL     1      -1.136  11.255  23.101  0.00  0.00    +0.000 C 
BRANCH  32  33
ATOM     33  N   UNL     1      -2.103  12.325  23.265  0.00  0.00    +0.000 N 
ATOM     34  C   UNL     1      -1.845  13.656  23.431  0.00  0.00    +0.000 A 
ATOM     35  C   UNL     1      -3.037  14.233  23.796  0.00  0.00    +0.000 A 
ATOM     36  C   UNL     1      -3.969  13.179  23.767  0.00  0.00    +0.000 A 
ATOM     37  N   UNL     1      -3.395  12.003  23.476  0.00  0.00    +0.000 NA
ENDBRANCH  32  33
ENDBRANCH  31  32
ENDBRANCH   5  31
TORSDOF 14
ENDMDL
