MODEL 1
REMARK VINA RESULT:      -6.6      0.000      0.000
REMARK  Name = 
REMARK  10 active torsions:
REMARK  status: ('A' for Active; 'I' for Inactive)
REMARK    1  A    between atoms: C_2  and  O_3
REMARK    2  A    between atoms: C_2  and  C_4
REMARK    3  A    between atoms: C_4  and  C_5
REMARK    4  A    between atoms: C_5  and  C_6
REMARK    5  A    between atoms: C_6  and  C_7
REMARK    6  A    between atoms: C_7  and  C_8
REMARK    7  A    between atoms: C_8  and  C_9
REMARK    8  A    between atoms: C_9  and  C_10
REMARK    9  A    between atoms: C_10  and  N_11
REMARK   10  A    between atoms: C_12  and  C_14
REMARK                            x       y       z     vdW  Elec       q    Type
REMARK                         _______ _______ _______ _____ _____    ______ ____
ROOT
ATOM      1  C   UNL     1       6.464   6.249  17.727  0.00  0.00    +0.000 C 
ENDROOT
BRANCH   1   2
ATOM      2  N   UNL     1       5.150   5.842  18.158  0.00  0.00    +0.000 N 
ATOM      3  C   UNL     1       4.989   4.840  19.086  0.00  0.00    +0.000 C 
ATOM      4  O   UNL     1       5.926   4.329  19.690  0.00  0.00    +0.000 OA
ATOM      5  H   UNL     1       4.366   6.068  17.559  0.00  0.00    +0.000 HD
BRANCH   3   6
ATOM      6  C   UNL     1       3.593   4.435  19.404  0.00  0.00    +0.000 A 
ATOM      7  C   UNL     1       2.895   5.316  20.252  0.00  0.00    +0.000 A 
ATOM      8  C   UNL     1       1.567   5.074  20.596  0.00  0.00    +0.000 A 
ATOM      9  C   UNL     1       0.918   3.949  20.104  0.00  0.00    +0.000 A 
ATOM     10  C   UNL     1       1.601   3.057  19.273  0.00  0.00    +0.000 A 
ATOM     11  C   UNL     1       2.940   3.289  18.927  0.00  0.00    +0.000 A 
ATOM     12 BR   UNL     1       3.761   1.947  17.859  0.00  0.00    +0.000 Br
ENDBRANCH   3   6
ENDBRANCH   1   2
BRANCH   1  13
ATOM     13  C   UNL     1       7.012   5.289  16.676  0.00  0.00    +0.000 C 
BRANCH  13  14
ATOM     14  C   UNL     1       5.949   4.862  15.664  0.00  0.00    +0.000 C 
BRANCH  14  15
ATOM     15  C   UNL     1       6.558   4.187  14.435  0.00  0.00    +0.000 C 
BRANCH  15  16
ATOM     16  C   UNL     1       5.489   3.661  13.482  0.00  0.00    +0.000 C 
BRANCH  16  17
ATOM     17  C   UNL     1       6.100   3.361  12.113  0.00  0.00    +0.000 C 
BRANCH  17  18
ATOM     18  C   UNL     1       5.397   2.190  11.435  0.00  0.00    +0.000 C 
BRANCH  18  20
ATOM     19  O   UNL     1       6.022  -0.119  10.990  0.00  0.00    +0.000 OA
ATOM     20  C   UNL     1       6.345   1.045  11.167  0.00  0.00    +0.000 C 
BRANCH  20  21
ATOM     21  O   UNL     1       7.637   1.448  11.138  0.00  0.00    +0.000 OA
ATOM     22  H   UNL     1       8.195   0.938  10.521  0.00  0.00    +0.000 HD
ENDBRANCH  20  21
ENDBRANCH  18  20
ENDBRANCH  17  18
ENDBRANCH  16  17
ENDBRANCH  15  16
ENDBRANCH  14  15
ENDBRANCH  13  14
ENDBRANCH   1  13
TORSDOF 10
ENDMDL
MODEL 2
REMARK VINA RESULT:      -6.6      4.600      7.247
REMARK  Name = 
REMARK  10 active torsions:
REMARK  status: ('A' for Active; 'I' for Inactive)
REMARK    1  A    between atoms: C_2  and  O_3
REMARK    2  A    between atoms: C_2  and  C_4
REMARK    3  A    between atoms: C_4  and  C_5
REMARK    4  A    between atoms: C_5  and  C_6
REMARK    5  A    between atoms: C_6  and  C_7
REMARK    6  A    between atoms: C_7  and  C_8
REMARK    7  A    between atoms: C_8  and  C_9
REMARK    8  A    between atoms: C_9  and  C_10
REMARK    9  A    between atoms: C_10  and  N_11
REMARK   10  A    between atoms: C_12  and  C_14
REMARK                            x       y       z     vdW  Elec       q    Type
REMARK                         _______ _______ _______ _____ _____    ______ ____
ROOT
ATOM      1  C   UNL     1       6.437   6.019  17.154  0.00  0.00    +0.000 C 
ENDROOT
BRANCH   1   2
ATOM      2  N   UNL     1       5.177   5.796  17.818  0.00  0.00    +0.000 N 
ATOM      3  C   UNL     1       4.995   4.712  18.643  0.00  0.00    +0.000 C 
ATOM      4  O   UNL     1       5.905   3.955  18.966  0.00  0.00    +0.000 OA
ATOM      5  H   UNL     1       4.355   6.247  17.435  0.00  0.00    +0.000 HD
BRANCH   3   6
ATOM      6  C   UNL     1       3.634   4.521  19.216  0.00  0.00    +0.000 A 
ATOM      7  C   UNL     1       3.149   5.605  19.971  0.00  0.00    +0.000 A 
ATOM      8  C   UNL     1       1.873   5.572  20.528  0.00  0.00    +0.000 A 
ATOM      9  C   UNL     1       1.065   4.457  20.346  0.00  0.00    +0.000 A 
ATOM     10  C   UNL     1       1.538   3.367  19.611  0.00  0.00    +0.000 A 
ATOM     11  C   UNL     1       2.824   3.389  19.051  0.00  0.00    +0.000 A 
ATOM     12 BR   UNL     1       3.360   1.801  18.151  0.00  0.00    +0.000 Br
ENDBRANCH   3   6
ENDBRANCH   1   2
BRANCH   1  13
ATOM     13  C   UNL     1       7.395   6.794  18.052  0.00  0.00    +0.000 C 
BRANCH  13  14
ATOM     14  C   UNL     1       7.497   8.269  17.661  0.00  0.00    +0.000 C 
BRANCH  14  15
ATOM     15  C   UNL     1       8.575   9.004  18.457  0.00  0.00    +0.000 C 
BRANCH  15  16
ATOM     16  C   UNL     1       8.745  10.447  17.992  0.00  0.00    +0.000 C 
BRANCH  16  17
ATOM     17  C   UNL     1       9.916  11.106  18.723  0.00  0.00    +0.000 C 
BRANCH  17  18
ATOM     18  C   UNL     1      10.128  12.541  18.253  0.00  0.00    +0.000 C 
BRANCH  18  20
ATOM     19  O   UNL     1      11.513  13.565  16.534  0.00  0.00    +0.000 OA
ATOM     20  C   UNL     1      11.319  12.660  17.331  0.00  0.00    +0.000 C 
BRANCH  20  21
ATOM     21  O   UNL     1      12.184  11.631  17.480  0.00  0.00    +0.000 OA
ATOM     22  H   UNL     1      12.109  11.175  18.341  0.00  0.00    +0.000 HD
ENDBRANCH  20  21
ENDBRANCH  18  20
ENDBRANCH  17  18
ENDBRANCH  16  17
ENDBRANCH  15  16
ENDBRANCH  14  15
ENDBRANCH  13  14
ENDBRANCH   1  13
TORSDOF 10
ENDMDL
MODEL 3
REMARK VINA RESULT:      -6.4      3.893      7.086
REMARK  Name = 
REMARK  10 active torsions:
REMARK  status: ('A' for Active; 'I' for Inactive)
REMARK    1  A    between atoms: C_2  and  O_3
REMARK    2  A    between atoms: C_2  and  C_4
REMARK    3  A    between atoms: C_4  and  C_5
REMARK    4  A    between atoms: C_5  and  C_6
REMARK    5  A    between atoms: C_6  and  C_7
REMARK    6  A    between atoms: C_7  and  C_8
REMARK    7  A    between atoms: C_8  and  C_9
REMARK    8  A    between atoms: C_9  and  C_10
REMARK    9  A    between atoms: C_10  and  N_11
REMARK   10  A    between atoms: C_12  and  C_14
REMARK                            x       y       z     vdW  Elec       q    Type
REMARK                         _______ _______ _______ _____ _____    ______ ____
ROOT
ATOM      1  C   UNL     1       7.122   4.665  17.781  0.00  0.00    +0.000 C 
ENDROOT
BRANCH   1   2
ATOM      2  N   UNL     1       5.813   4.241  18.213  0.00  0.00    +0.000 N 
ATOM      3  C   UNL     1       4.818   3.982  17.301  0.00  0.00    +0.000 C 
ATOM      4  O   UNL     1       5.006   3.966  16.089  0.00  0.00    +0.000 OA
ATOM      5  H   UNL     1       5.545   4.439  19.169  0.00  0.00    +0.000 HD
BRANCH   3   6
ATOM      6  C   UNL     1       3.478   3.632  17.848  0.00  0.00    +0.000 A 
ATOM      7  C   UNL     1       3.173   2.258  17.842  0.00  0.00    +0.000 A 
ATOM      8  C   UNL     1       1.968   1.792  18.362  0.00  0.00    +0.000 A 
ATOM      9  C   UNL     1       1.048   2.689  18.890  0.00  0.00    +0.000 A 
ATOM     10  C   UNL     1       1.330   4.058  18.890  0.00  0.00    +0.000 A 
ATOM     11  C   UNL     1       2.538   4.536  18.363  0.00  0.00    +0.000 A 
ATOM     12 BR   UNL     1       2.745   6.427  18.354  0.00  0.00    +0.000 Br
ENDBRANCH   3   6
ENDBRANCH   1   2
BRANCH   1  13
ATOM     13  C   UNL     1       7.927   5.220  18.951  0.00  0.00    +0.000 C 
BRANCH  13  14
ATOM     14  C   UNL     1       8.068   6.741  18.894  0.00  0.00    +0.000 C 
BRANCH  14  15
ATOM     15  C   UNL     1       7.580   7.316  17.564  0.00  0.00    +0.000 C 
BRANCH  15  16
ATOM     16  C   UNL     1       7.669   8.839  17.532  0.00  0.00    +0.000 C 
BRANCH  16  17
ATOM     17  C   UNL     1       8.723   9.330  18.525  0.00  0.00    +0.000 C 
BRANCH  17  18
ATOM     18  C   UNL     1       9.048  10.804  18.306  0.00  0.00    +0.000 C 
BRANCH  18  20
ATOM     19  O   UNL     1       9.412  11.916  20.440  0.00  0.00    +0.000 OA
ATOM     20  C   UNL     1       9.864  11.374  19.444  0.00  0.00    +0.000 C 
BRANCH  20  21
ATOM     21  O   UNL     1      11.193  11.217  19.246  0.00  0.00    +0.000 OA
ATOM     22  H   UNL     1      11.707  12.041  19.355  0.00  0.00    +0.000 HD
ENDBRANCH  20  21
ENDBRANCH  18  20
ENDBRANCH  17  18
ENDBRANCH  16  17
ENDBRANCH  15  16
ENDBRANCH  14  15
ENDBRANCH  13  14
ENDBRANCH   1  13
TORSDOF 10
ENDMDL
MODEL 4
REMARK VINA RESULT:      -6.4      4.149      7.068
REMARK  Name = 
REMARK  10 active torsions:
REMARK  status: ('A' for Active; 'I' for Inactive)
REMARK    1  A    between atoms: C_2  and  O_3
REMARK    2  A    between atoms: C_2  and  C_4
REMARK    3  A    between atoms: C_4  and  C_5
REMARK    4  A    between atoms: C_5  and  C_6
REMARK    5  A    between atoms: C_6  and  C_7
REMARK    6  A    between atoms: C_7  and  C_8
REMARK    7  A    between atoms: C_8  and  C_9
REMARK    8  A    between atoms: C_9  and  C_10
REMARK    9  A    between atoms: C_10  and  N_11
REMARK   10  A    between atoms: C_12  and  C_14
REMARK                            x       y       z     vdW  Elec       q    Type
REMARK                         _______ _______ _______ _____ _____    ______ ____
ROOT
ATOM      1  C   UNL     1       6.983   4.468  17.974  0.00  0.00    +0.000 C 
ENDROOT
BRANCH   1   2
ATOM      2  N   UNL     1       5.765   4.139  18.672  0.00  0.00    +0.000 N 
ATOM      3  C   UNL     1       4.545   4.234  18.047  0.00  0.00    +0.000 C 
ATOM      4  O   UNL     1       4.421   4.471  16.850  0.00  0.00    +0.000 OA
ATOM      5  H   UNL     1       5.785   4.147  19.684  0.00  0.00    +0.000 HD
BRANCH   3   6
ATOM      6  C   UNL     1       3.340   3.954  18.876  0.00  0.00    +0.000 A 
ATOM      7  C   UNL     1       3.119   2.595  19.165  0.00  0.00    +0.000 A 
ATOM      8  C   UNL     1       2.049   2.200  19.965  0.00  0.00    +0.000 A 
ATOM      9  C   UNL     1       1.182   3.153  20.483  0.00  0.00    +0.000 A 
ATOM     10  C   UNL     1       1.380   4.506  20.193  0.00  0.00    +0.000 A 
ATOM     11  C   UNL     1       2.451   4.912  19.383  0.00  0.00    +0.000 A 
ATOM     12 BR   UNL     1       2.542   6.774  19.008  0.00  0.00    +0.000 Br
ENDBRANCH   3   6
ENDBRANCH   1   2
BRANCH   1  13
ATOM     13  C   UNL     1       7.511   5.830  18.412  0.00  0.00    +0.000 C 
BRANCH  13  14
ATOM     14  C   UNL     1       6.855   6.983  17.651  0.00  0.00    +0.000 C 
BRANCH  14  15
ATOM     15  C   UNL     1       7.858   8.075  17.282  0.00  0.00    +0.000 C 
BRANCH  15  16
ATOM     16  C   UNL     1       8.574   8.633  18.508  0.00  0.00    +0.000 C 
BRANCH  16  17
ATOM     17  C   UNL     1       8.676  10.156  18.417  0.00  0.00    +0.000 C 
BRANCH  17  18
ATOM     18  C   UNL     1       9.713  10.704  19.392  0.00  0.00    +0.000 C 
BRANCH  18  20
ATOM     19  O   UNL     1      10.705  12.007  17.591  0.00  0.00    +0.000 OA
ATOM     20  C   UNL     1      10.810  11.460  18.678  0.00  0.00    +0.000 C 
BRANCH  20  21
ATOM     21  O   UNL     1      11.962  11.475  19.387  0.00  0.00    +0.000 OA
ATOM     22  H   UNL     1      11.890  11.054  20.265  0.00  0.00    +0.000 HD
ENDBRANCH  20  21
ENDBRANCH  18  20
ENDBRANCH  17  18
ENDBRANCH  16  17
ENDBRANCH  15  16
ENDBRANCH  14  15
ENDBRANCH  13  14
ENDBRANCH   1  13
TORSDOF 10
ENDMDL
MODEL 5
REMARK VINA RESULT:      -6.4      1.408      1.679
REMARK  Name = 
REMARK  10 active torsions:
REMARK  status: ('A' for Active; 'I' for Inactive)
REMARK    1  A    between atoms: C_2  and  O_3
REMARK    2  A    between atoms: C_2  and  C_4
REMARK    3  A    between atoms: C_4  and  C_5
REMARK    4  A    between atoms: C_5  and  C_6
REMARK    5  A    between atoms: C_6  and  C_7
REMARK    6  A    between atoms: C_7  and  C_8
REMARK    7  A    between atoms: C_8  and  C_9
REMARK    8  A    between atoms: C_9  and  C_10
REMARK    9  A    between atoms: C_10  and  N_11
REMARK   10  A    between atoms: C_12  and  C_14
REMARK                            x       y       z     vdW  Elec       q    Type
REMARK                         _______ _______ _______ _____ _____    ______ ____
ROOT
ATOM      1  C   UNL     1       6.417   6.166  18.592  0.00  0.00    +0.000 C 
ENDROOT
BRANCH   1   2
ATOM      2  N   UNL     1       5.301   5.373  19.045  0.00  0.00    +0.000 N 
ATOM      3  C   UNL     1       4.078   5.450  18.421  0.00  0.00    +0.000 C 
ATOM      4  O   UNL     1       3.893   6.081  17.386  0.00  0.00    +0.000 OA
ATOM      5  H   UNL     1       5.332   5.012  19.990  0.00  0.00    +0.000 HD
BRANCH   3   6
ATOM      6  C   UNL     1       2.968   4.656  19.015  0.00  0.00    +0.000 A 
ATOM      7  C   UNL     1       2.202   5.334  19.982  0.00  0.00    +0.000 A 
ATOM      8  C   UNL     1       1.109   4.718  20.586  0.00  0.00    +0.000 A 
ATOM      9  C   UNL     1       0.766   3.417  20.239  0.00  0.00    +0.000 A 
ATOM     10  C   UNL     1       1.526   2.726  19.291  0.00  0.00    +0.000 A 
ATOM     11  C   UNL     1       2.632   3.336  18.682  0.00  0.00    +0.000 A 
ATOM     12 BR   UNL     1       3.617   2.244  17.476  0.00  0.00    +0.000 Br
ENDBRANCH   3   6
ENDBRANCH   1   2
BRANCH   1  13
ATOM     13  C   UNL     1       7.531   5.277  18.050  0.00  0.00    +0.000 C 
BRANCH  13  14
ATOM     14  C   UNL     1       7.045   4.341  16.943  0.00  0.00    +0.000 C 
BRANCH  14  15
ATOM     15  C   UNL     1       7.365   4.881  15.549  0.00  0.00    +0.000 C 
BRANCH  15  16
ATOM     16  C   UNL     1       6.109   5.054  14.701  0.00  0.00    +0.000 C 
BRANCH  16  17
ATOM     17  C   UNL     1       5.720   3.725  14.051  0.00  0.00    +0.000 C 
BRANCH  17  18
ATOM     18  C   UNL     1       6.161   3.670  12.592  0.00  0.00    +0.000 C 
BRANCH  18  20
ATOM     19  O   UNL     1       4.309   2.818  11.262  0.00  0.00    +0.000 OA
ATOM     20  C   UNL     1       5.386   2.636  11.810  0.00  0.00    +0.000 C 
BRANCH  20  21
ATOM     21  O   UNL     1       6.023   1.443  11.771  0.00  0.00    +0.000 OA
ATOM     22  H   UNL     1       5.500   0.731  11.354  0.00  0.00    +0.000 HD
ENDBRANCH  20  21
ENDBRANCH  18  20
ENDBRANCH  17  18
ENDBRANCH  16  17
ENDBRANCH  15  16
ENDBRANCH  14  15
ENDBRANCH  13  14
ENDBRANCH   1  13
TORSDOF 10
ENDMDL
MODEL 6
REMARK VINA RESULT:      -6.3      4.004      6.836
REMARK  Name = 
REMARK  10 active torsions:
REMARK  status: ('A' for Active; 'I' for Inactive)
REMARK    1  A    between atoms: C_2  and  O_3
REMARK    2  A    between atoms: C_2  and  C_4
REMARK    3  A    between atoms: C_4  and  C_5
REMARK    4  A    between atoms: C_5  and  C_6
REMARK    5  A    between atoms: C_6  and  C_7
REMARK    6  A    between atoms: C_7  and  C_8
REMARK    7  A    between atoms: C_8  and  C_9
REMARK    8  A    between atoms: C_9  and  C_10
REMARK    9  A    between atoms: C_10  and  N_11
REMARK   10  A    between atoms: C_12  and  C_14
REMARK                            x       y       z     vdW  Elec       q    Type
REMARK                         _______ _______ _______ _____ _____    ______ ____
ROOT
ATOM      1  C   UNL     1       6.561   4.712  17.245  0.00  0.00    +0.000 C 
ENDROOT
BRANCH   1   2
ATOM      2  N   UNL     1       5.392   4.397  18.028  0.00  0.00    +0.000 N 
ATOM      3  C   UNL     1       4.253   5.162  17.937  0.00  0.00    +0.000 C 
ATOM      4  O   UNL     1       4.112   6.058  17.111  0.00  0.00    +0.000 OA
ATOM      5  H   UNL     1       5.517   3.825  18.853  0.00  0.00    +0.000 HD
BRANCH   3   6
ATOM      6  C   UNL     1       3.130   4.808  18.846  0.00  0.00    +0.000 A 
ATOM      7  C   UNL     1       2.821   5.779  19.818  0.00  0.00    +0.000 A 
ATOM      8  C   UNL     1       1.765   5.589  20.706  0.00  0.00    +0.000 A 
ATOM      9  C   UNL     1       1.006   4.428  20.643  0.00  0.00    +0.000 A 
ATOM     10  C   UNL     1       1.308   3.448  19.693  0.00  0.00    +0.000 A 
ATOM     11  C   UNL     1       2.373   3.628  18.799  0.00  0.00    +0.000 A 
ATOM     12 BR   UNL     1       2.717   2.174  17.621  0.00  0.00    +0.000 Br
ENDBRANCH   3   6
ENDBRANCH   1   2
BRANCH   1  13
ATOM     13  C   UNL     1       7.736   5.079  18.145  0.00  0.00    +0.000 C 
BRANCH  13  14
ATOM     14  C   UNL     1       7.706   6.546  18.574  0.00  0.00    +0.000 C 
BRANCH  14  15
ATOM     15  C   UNL     1       7.735   7.498  17.379  0.00  0.00    +0.000 C 
BRANCH  15  16
ATOM     16  C   UNL     1       7.610   8.957  17.807  0.00  0.00    +0.000 C 
BRANCH  16  17
ATOM     17  C   UNL     1       8.836   9.381  18.616  0.00  0.00    +0.000 C 
BRANCH  17  18
ATOM     18  C   UNL     1       9.267  10.802  18.269  0.00  0.00    +0.000 C 
BRANCH  18  20
ATOM     19  O   UNL     1      11.551  11.531  18.691  0.00  0.00    +0.000 OA
ATOM     20  C   UNL     1      10.438  11.255  19.111  0.00  0.00    +0.000 C 
BRANCH  20  21
ATOM     21  O   UNL     1      10.122  11.330  20.425  0.00  0.00    +0.000 OA
ATOM     22  H   UNL     1       9.413  11.970  20.623  0.00  0.00    +0.000 HD
ENDBRANCH  20  21
ENDBRANCH  18  20
ENDBRANCH  17  18
ENDBRANCH  16  17
ENDBRANCH  15  16
ENDBRANCH  14  15
ENDBRANCH  13  14
ENDBRANCH   1  13
TORSDOF 10
ENDMDL
MODEL 7
REMARK VINA RESULT:      -6.3      1.379      1.897
REMARK  Name = 
REMARK  10 active torsions:
REMARK  status: ('A' for Active; 'I' for Inactive)
REMARK    1  A    between atoms: C_2  and  O_3
REMARK    2  A    between atoms: C_2  and  C_4
REMARK    3  A    between atoms: C_4  and  C_5
REMARK    4  A    between atoms: C_5  and  C_6
REMARK    5  A    between atoms: C_6  and  C_7
REMARK    6  A    between atoms: C_7  and  C_8
REMARK    7  A    between atoms: C_8  and  C_9
REMARK    8  A    between atoms: C_9  and  C_10
REMARK    9  A    between atoms: C_10  and  N_11
REMARK   10  A    between atoms: C_12  and  C_14
REMARK                            x       y       z     vdW  Elec       q    Type
REMARK                         _______ _______ _______ _____ _____    ______ ____
ROOT
ATOM      1  C   UNL     1       6.221   5.636  17.201  0.00  0.00    +0.000 C 
ENDROOT
BRANCH   1   2
ATOM      2  N   UNL     1       4.917   5.185  17.621  0.00  0.00    +0.000 N 
ATOM      3  C   UNL     1       4.767   4.396  18.736  0.00  0.00    +0.000 C 
ATOM      4  O   UNL     1       5.689   4.137  19.503  0.00  0.00    +0.000 OA
ATOM      5  H   UNL     1       4.174   5.185  16.933  0.00  0.00    +0.000 HD
BRANCH   3   6
ATOM      6  C   UNL     1       3.393   3.912  19.040  0.00  0.00    +0.000 A 
ATOM      7  C   UNL     1       3.176   2.543  18.797  0.00  0.00    +0.000 A 
ATOM      8  C   UNL     1       1.944   1.955  19.077  0.00  0.00    +0.000 A 
ATOM      9  C   UNL     1       0.911   2.724  19.596  0.00  0.00    +0.000 A 
ATOM     10  C   UNL     1       1.106   4.088  19.829  0.00  0.00    +0.000 A 
ATOM     11  C   UNL     1       2.341   4.690  19.545  0.00  0.00    +0.000 A 
ATOM     12 BR   UNL     1       2.430   6.568  19.834  0.00  0.00    +0.000 Br
ENDBRANCH   3   6
ENDBRANCH   1   2
BRANCH   1  13
ATOM     13  C   UNL     1       6.977   4.522  16.486  0.00  0.00    +0.000 C 
BRANCH  13  14
ATOM     14  C   UNL     1       7.257   4.854  15.020  0.00  0.00    +0.000 C 
BRANCH  14  15
ATOM     15  C   UNL     1       5.972   4.977  14.200  0.00  0.00    +0.000 C 
BRANCH  15  16
ATOM     16  C   UNL     1       5.518   3.631  13.643  0.00  0.00    +0.000 C 
BRANCH  16  17
ATOM     17  C   UNL     1       5.728   3.585  12.129  0.00  0.00    +0.000 C 
BRANCH  17  18
ATOM     18  C   UNL     1       5.325   2.232  11.553  0.00  0.00    +0.000 C 
BRANCH  18  20
ATOM     19  O   UNL     1       7.647   1.781  10.982  0.00  0.00    +0.000 OA
ATOM     20  C   UNL     1       6.528   1.370  11.249  0.00  0.00    +0.000 C 
BRANCH  20  21
ATOM     21  O   UNL     1       6.237   0.050  11.304  0.00  0.00    +0.000 OA
ATOM     22  H   UNL     1       6.509  -0.378  12.139  0.00  0.00    +0.000 HD
ENDBRANCH  20  21
ENDBRANCH  18  20
ENDBRANCH  17  18
ENDBRANCH  16  17
ENDBRANCH  15  16
ENDBRANCH  14  15
ENDBRANCH  13  14
ENDBRANCH   1  13
TORSDOF 10
ENDMDL
MODEL 8
REMARK VINA RESULT:      -6.3      4.455      7.405
REMARK  Name = 
REMARK  10 active torsions:
REMARK  status: ('A' for Active; 'I' for Inactive)
REMARK    1  A    between atoms: C_2  and  O_3
REMARK    2  A    between atoms: C_2  and  C_4
REMARK    3  A    between atoms: C_4  and  C_5
REMARK    4  A    between atoms: C_5  and  C_6
REMARK    5  A    between atoms: C_6  and  C_7
REMARK    6  A    between atoms: C_7  and  C_8
REMARK    7  A    between atoms: C_8  and  C_9
REMARK    8  A    between atoms: C_9  and  C_10
REMARK    9  A    between atoms: C_10  and  N_11
REMARK   10  A    between atoms: C_12  and  C_14
REMARK                            x       y       z     vdW  Elec       q    Type
REMARK                         _______ _______ _______ _____ _____    ______ ____
ROOT
ATOM      1  C   UNL     1       7.332   4.669  17.489  0.00  0.00    +0.000 C 
ENDROOT
BRANCH   1   2
ATOM      2  N   UNL     1       5.945   4.278  17.528  0.00  0.00    +0.000 N 
ATOM      3  C   UNL     1       5.245   4.272  18.712  0.00  0.00    +0.000 C 
ATOM      4  O   UNL     1       5.701   4.711  19.762  0.00  0.00    +0.000 OA
ATOM      5  H   UNL     1       5.590   3.720  16.762  0.00  0.00    +0.000 HD
BRANCH   3   6
ATOM      6  C   UNL     1       3.844   3.773  18.663  0.00  0.00    +0.000 A 
ATOM      7  C   UNL     1       3.707   2.374  18.727  0.00  0.00    +0.000 A 
ATOM      8  C   UNL     1       2.448   1.779  18.731  0.00  0.00    +0.000 A 
ATOM      9  C   UNL     1       1.307   2.569  18.665  0.00  0.00    +0.000 A 
ATOM     10  C   UNL     1       1.427   3.960  18.586  0.00  0.00    +0.000 A 
ATOM     11  C   UNL     1       2.691   4.567  18.575  0.00  0.00    +0.000 A 
ATOM     12 BR   UNL     1       2.697   6.459  18.379  0.00  0.00    +0.000 Br
ENDBRANCH   3   6
ENDBRANCH   1   2
BRANCH   1  13
ATOM     13  C   UNL     1       7.504   5.994  16.754  0.00  0.00    +0.000 C 
BRANCH  13  14
ATOM     14  C   UNL     1       7.025   7.187  17.581  0.00  0.00    +0.000 C 
BRANCH  14  15
ATOM     15  C   UNL     1       8.189   8.016  18.125  0.00  0.00    +0.000 C 
BRANCH  15  16
ATOM     16  C   UNL     1       8.019   9.503  17.828  0.00  0.00    +0.000 C 
BRANCH  16  17
ATOM     17  C   UNL     1       9.253  10.281  18.287  0.00  0.00    +0.000 C 
BRANCH  17  18
ATOM     18  C   UNL     1       9.297  10.409  19.806  0.00  0.00    +0.000 C 
BRANCH  18  20
ATOM     19  O   UNL     1      11.135  11.855  20.477  0.00  0.00    +0.000 OA
ATOM     20  C   UNL     1       9.947  11.702  20.241  0.00  0.00    +0.000 C 
BRANCH  20  21
ATOM     21  O   UNL     1       9.053  12.712  20.347  0.00  0.00    +0.000 OA
ATOM     22  H   UNL     1       9.285  13.373  21.027  0.00  0.00    +0.000 HD
ENDBRANCH  20  21
ENDBRANCH  18  20
ENDBRANCH  17  18
ENDBRANCH  16  17
ENDBRANCH  15  16
ENDBRANCH  14  15
ENDBRANCH  13  14
ENDBRANCH   1  13
TORSDOF 10
ENDMDL
MODEL 9
REMARK VINA RESULT:      -6.3      1.921      2.692
REMARK  Name = 
REMARK  10 active torsions:
REMARK  status: ('A' for Active; 'I' for Inactive)
REMARK    1  A    between atoms: C_2  and  O_3
REMARK    2  A    between atoms: C_2  and  C_4
REMARK    3  A    between atoms: C_4  and  C_5
REMARK    4  A    between atoms: C_5  and  C_6
REMARK    5  A    between atoms: C_6  and  C_7
REMARK    6  A    between atoms: C_7  and  C_8
REMARK    7  A    between atoms: C_8  and  C_9
REMARK    8  A    between atoms: C_9  and  C_10
REMARK    9  A    between atoms: C_10  and  N_11
REMARK   10  A    between atoms: C_12  and  C_14
REMARK                            x       y       z     vdW  Elec       q    Type
REMARK                         _______ _______ _______ _____ _____    ______ ____
ROOT
ATOM      1  C   UNL     1       6.512   5.863  19.175  0.00  0.00    +0.000 C 
ENDROOT
BRANCH   1   2
ATOM      2  N   UNL     1       5.414   4.930  19.108  0.00  0.00    +0.000 N 
ATOM      3  C   UNL     1       4.163   5.338  18.708  0.00  0.00    +0.000 C 
ATOM      4  O   UNL     1       3.932   6.459  18.268  0.00  0.00    +0.000 OA
ATOM      5  H   UNL     1       5.488   4.076  19.645  0.00  0.00    +0.000 HD
BRANCH   3   6
ATOM      6  C   UNL     1       3.077   4.321  18.753  0.00  0.00    +0.000 A 
ATOM      7  C   UNL     1       3.216   3.261  17.838  0.00  0.00    +0.000 A 
ATOM      8  C   UNL     1       2.289   2.222  17.804  0.00  0.00    +0.000 A 
ATOM      9  C   UNL     1       1.209   2.227  18.677  0.00  0.00    +0.000 A 
ATOM     10  C   UNL     1       1.049   3.280  19.581  0.00  0.00    +0.000 A 
ATOM     11  C   UNL     1       1.974   4.334  19.619  0.00  0.00    +0.000 A 
ATOM     12 BR   UNL     1       1.579   5.736  20.842  0.00  0.00    +0.000 Br
ENDBRANCH   3   6
ENDBRANCH   1   2
BRANCH   1  13
ATOM     13  C   UNL     1       7.732   5.320  18.439  0.00  0.00    +0.000 C 
BRANCH  13  14
ATOM     14  C   UNL     1       7.351   4.478  17.221  0.00  0.00    +0.000 C 
BRANCH  14  15
ATOM     15  C   UNL     1       7.166   5.329  15.965  0.00  0.00    +0.000 C 
BRANCH  15  16
ATOM     16  C   UNL     1       5.704   5.403  15.535  0.00  0.00    +0.000 C 
BRANCH  16  17
ATOM     17  C   UNL     1       5.567   5.040  14.056  0.00  0.00    +0.000 C 
BRANCH  17  18
ATOM     18  C   UNL     1       6.022   3.608  13.791  0.00  0.00    +0.000 C 
BRANCH  18  20
ATOM     19  O   UNL     1       7.218   4.249  11.770  0.00  0.00    +0.000 OA
ATOM     20  C   UNL     1       6.542   3.436  12.382  0.00  0.00    +0.000 C 
BRANCH  20  21
ATOM     21  O   UNL     1       6.174   2.250  11.844  0.00  0.00    +0.000 OA
ATOM     22  H   UNL     1       6.877   1.573  11.869  0.00  0.00    +0.000 HD
ENDBRANCH  20  21
ENDBRANCH  18  20
ENDBRANCH  17  18
ENDBRANCH  16  17
ENDBRANCH  15  16
ENDBRANCH  14  15
ENDBRANCH  13  14
ENDBRANCH   1  13
TORSDOF 10
ENDMDL
