MODEL 1
REMARK VINA RESULT:      -8.5      0.000      0.000
REMARK  Name = 
REMARK  11 active torsions:
REMARK  status: ('A' for Active; 'I' for Inactive)
REMARK    1  A    between atoms: C_1  and  C_2
REMARK    2  A    between atoms: C_2  and  C_3
REMARK    3  A    between atoms: C_2  and  C_4
REMARK    4  A    between atoms: C_2  and  O_5
REMARK    5  A    between atoms: O_5  and  C_6
REMARK    6  A    between atoms: N_8  and  C_9
REMARK    7  A    between atoms: C_9  and  C_10
REMARK    8  A    between atoms: C_9  and  C_17
REMARK    9  A    between atoms: C_10  and  C_11
REMARK   10  A    between atoms: N_19  and  C_20
REMARK   11  A    between atoms: C_25  and  N_26
REMARK                            x       y       z     vdW  Elec       q    Type
REMARK                         _______ _______ _______ _____ _____    ______ ____
ROOT
ATOM      1  C   UNL     1       1.849   8.620  18.326  0.00  0.00    +0.000 C 
ATOM      2  O   UNL     1       2.029   9.320  17.332  0.00  0.00    +0.000 OA
ATOM      3  N   UNL     1       1.139   9.078  19.415  0.00  0.00    +0.000 N 
ATOM      4  H   UNL     1       1.214   8.548  20.275  0.00  0.00    +0.000 HD
ENDROOT
BRANCH   3   5
ATOM      5  C   UNL     1       0.542  10.414  19.465  0.00  0.00    +0.000 C 
ATOM      6  C   UNL     1       1.493  11.417  20.115  0.00  0.00    +0.000 C 
ATOM      7  O   UNL     1       1.280  11.333  21.537  0.00  0.00    +0.000 OA
ATOM      8  C   UNL     1      -0.002  10.719  21.767  0.00  0.00    +0.000 C 
ATOM      9  C   UNL     1      -0.938  11.689  22.439  0.00  0.00    +0.000 C 
ATOM     10  C   UNL     1      -1.416  12.517  21.257  0.00  0.00    +0.000 C 
ATOM     11  O   UNL     1      -1.494  11.615  20.134  0.00  0.00    +0.000 OA
ATOM     12  C   UNL     1      -0.650  10.475  20.414  0.00  0.00    +0.000 C 
BRANCH  10  13
ATOM     13  N   UNL     1      -2.690  13.176  21.499  0.00  0.00    +0.000 N 
ATOM     14  C   UNL     1      -3.686  12.575  22.243  0.00  0.00    +0.000 A 
ATOM     15  C   UNL     1      -4.844  13.185  22.501  0.00  0.00    +0.000 A 
ATOM     16  C   UNL     1      -5.065  14.547  21.978  0.00  0.00    +0.000 A 
ATOM     17  O   UNL     1      -6.112  15.142  22.183  0.00  0.00    +0.000 OA
ATOM     18  N   UNL     1      -4.028  15.080  21.275  0.00  0.00    +0.000 N 
ATOM     19  C   UNL     1      -2.826  14.475  21.018  0.00  0.00    +0.000 A 
ATOM     20  O   UNL     1      -1.949  15.079  20.408  0.00  0.00    +0.000 OA
ATOM     21  H   UNL     1      -4.145  16.017  20.922  0.00  0.00    +0.000 HD
ENDBRANCH  10  13
ENDBRANCH   3   5
BRANCH   1  22
ATOM     22  C   UNL     1       2.489   7.219  18.488  0.00  0.00    +0.000 C 
BRANCH  22  25
ATOM     23  C   UNL     1       4.467   6.185  17.402  0.00  0.00    +0.000 C 
ATOM     24  O   UNL     1       3.822   5.213  17.030  0.00  0.00    +0.000 OA
ATOM     25  N   UNL     1       3.909   7.220  18.093  0.00  0.00    +0.000 N 
ATOM     26  H   UNL     1       4.495   8.019  18.288  0.00  0.00    +0.000 HD
BRANCH  23  27
ATOM     27  O   UNL     1       5.766   6.433  17.113  0.00  0.00    +0.000 OA
BRANCH  27  29
ATOM     28  C   UNL     1       6.235   5.347  19.288  0.00  0.00    +0.000 C 
ATOM     29  C   UNL     1       6.814   5.899  17.977  0.00  0.00    +0.000 C 
ATOM     30  C   UNL     1       7.905   6.943  18.250  0.00  0.00    +0.000 C 
ATOM     31  C   UNL     1       7.452   4.722  17.217  0.00  0.00    +0.000 C 
ENDBRANCH  27  29
ENDBRANCH  23  27
ENDBRANCH  22  25
BRANCH  22  32
ATOM     32  C   UNL     1       2.275   6.742  19.941  0.00  0.00    +0.000 C 
BRANCH  32  33
ATOM     33  C   UNL     1       2.019   5.257  20.056  0.00  0.00    +0.000 A 
ATOM     34  C   UNL     1       1.452   4.556  18.983  0.00  0.00    +0.000 A 
ATOM     35  C   UNL     1       1.099   3.214  19.124  0.00  0.00    +0.000 A 
ATOM     36  C   UNL     1       1.317   2.559  20.334  0.00  0.00    +0.000 A 
ATOM     37  C   UNL     1       1.935   3.231  21.388  0.00  0.00    +0.000 A 
ATOM     38  C   UNL     1       2.301   4.569  21.244  0.00  0.00    +0.000 A 
ENDBRANCH  32  33
ENDBRANCH  22  32
ENDBRANCH   1  22
TORSDOF 8
ENDMDL
MODEL 2
REMARK VINA RESULT:      -8.3      0.658      1.051
REMARK  Name = 
REMARK  11 active torsions:
REMARK  status: ('A' for Active; 'I' for Inactive)
REMARK    1  A    between atoms: C_1  and  C_2
REMARK    2  A    between atoms: C_2  and  C_3
REMARK    3  A    between atoms: C_2  and  C_4
REMARK    4  A    between atoms: C_2  and  O_5
REMARK    5  A    between atoms: O_5  and  C_6
REMARK    6  A    between atoms: N_8  and  C_9
REMARK    7  A    between atoms: C_9  and  C_10
REMARK    8  A    between atoms: C_9  and  C_17
REMARK    9  A    between atoms: C_10  and  C_11
REMARK   10  A    between atoms: N_19  and  C_20
REMARK   11  A    between atoms: C_25  and  N_26
REMARK                            x       y       z     vdW  Elec       q    Type
REMARK                         _______ _______ _______ _____ _____    ______ ____
ROOT
ATOM      1  C   UNL     1       1.898   8.581  18.221  0.00  0.00    +0.000 C 
ATOM      2  O   UNL     1       2.080   9.236  17.196  0.00  0.00    +0.000 OA
ATOM      3  N   UNL     1       1.198   9.093  19.291  0.00  0.00    +0.000 N 
ATOM      4  H   UNL     1       1.272   8.600  20.173  0.00  0.00    +0.000 HD
ENDROOT
BRANCH   3   5
ATOM      5  C   UNL     1       0.611  10.434  19.285  0.00  0.00    +0.000 C 
ATOM      6  C   UNL     1       1.455  11.407  20.107  0.00  0.00    +0.000 C 
ATOM      7  O   UNL     1       1.018  11.286  21.475  0.00  0.00    +0.000 OA
ATOM      8  C   UNL     1      -0.290  10.682  21.480  0.00  0.00    +0.000 C 
ATOM      9  C   UNL     1      -1.312  11.646  22.023  0.00  0.00    +0.000 C 
ATOM     10  C   UNL     1      -1.589  12.512  20.805  0.00  0.00    +0.000 C 
ATOM     11  O   UNL     1      -1.495  11.643  19.658  0.00  0.00    +0.000 OA
ATOM     12  C   UNL     1      -0.716  10.485  20.035  0.00  0.00    +0.000 C 
BRANCH  10  13
ATOM     13  N   UNL     1      -2.880  13.181  20.861  0.00  0.00    +0.000 N 
ATOM     14  C   UNL     1      -4.018  12.602  20.334  0.00  0.00    +0.000 A 
ATOM     15  C   UNL     1      -5.213  13.190  20.413  0.00  0.00    +0.000 A 
ATOM     16  C   UNL     1      -5.322  14.498  21.086  0.00  0.00    +0.000 A 
ATOM     17  O   UNL     1      -6.394  15.077  21.175  0.00  0.00    +0.000 OA
ATOM     18  N   UNL     1      -4.161  14.992  21.600  0.00  0.00    +0.000 N 
ATOM     19  C   UNL     1      -2.930  14.391  21.545  0.00  0.00    +0.000 A 
ATOM     20  O   UNL     1      -1.963  14.918  22.087  0.00  0.00    +0.000 OA
ATOM     21  H   UNL     1      -4.210  15.875  22.082  0.00  0.00    +0.000 HD
ENDBRANCH  10  13
ENDBRANCH   3   5
BRANCH   1  22
ATOM     22  C   UNL     1       2.528   7.184  18.441  0.00  0.00    +0.000 C 
BRANCH  22  25
ATOM     23  C   UNL     1       4.496   6.100  17.385  0.00  0.00    +0.000 C 
ATOM     24  O   UNL     1       3.840   5.126  17.037  0.00  0.00    +0.000 OA
ATOM     25  N   UNL     1       3.949   7.158  18.049  0.00  0.00    +0.000 N 
ATOM     26  H   UNL     1       4.544   7.955  18.225  0.00  0.00    +0.000 HD
BRANCH  23  27
ATOM     27  O   UNL     1       5.798   6.326  17.093  0.00  0.00    +0.000 OA
BRANCH  27  29
ATOM     28  C   UNL     1       6.238   5.316  19.310  0.00  0.00    +0.000 C 
ATOM     29  C   UNL     1       6.836   5.843  17.998  0.00  0.00    +0.000 C 
ATOM     30  C   UNL     1       7.895   6.922  18.265  0.00  0.00    +0.000 C 
ATOM     31  C   UNL     1       7.522   4.660  17.289  0.00  0.00    +0.000 C 
ENDBRANCH  27  29
ENDBRANCH  23  27
ENDBRANCH  22  25
BRANCH  22  32
ATOM     32  C   UNL     1       2.308   6.769  19.912  0.00  0.00    +0.000 C 
BRANCH  32  33
ATOM     33  C   UNL     1       1.955   5.309  20.080  0.00  0.00    +0.000 A 
ATOM     34  C   UNL     1       2.270   4.641  21.271  0.00  0.00    +0.000 A 
ATOM     35  C   UNL     1       2.060   3.267  21.387  0.00  0.00    +0.000 A 
ATOM     36  C   UNL     1       1.525   2.550  20.318  0.00  0.00    +0.000 A 
ATOM     37  C   UNL     1       1.154   3.215  19.151  0.00  0.00    +0.000 A 
ATOM     38  C   UNL     1       1.350   4.592  19.039  0.00  0.00    +0.000 A 
ENDBRANCH  32  33
ENDBRANCH  22  32
ENDBRANCH   1  22
TORSDOF 8
ENDMDL
MODEL 3
REMARK VINA RESULT:      -8.1      1.552      3.653
REMARK  Name = 
REMARK  11 active torsions:
REMARK  status: ('A' for Active; 'I' for Inactive)
REMARK    1  A    between atoms: C_1  and  C_2
REMARK    2  A    between atoms: C_2  and  C_3
REMARK    3  A    between atoms: C_2  and  C_4
REMARK    4  A    between atoms: C_2  and  O_5
REMARK    5  A    between atoms: O_5  and  C_6
REMARK    6  A    between atoms: N_8  and  C_9
REMARK    7  A    between atoms: C_9  and  C_10
REMARK    8  A    between atoms: C_9  and  C_17
REMARK    9  A    between atoms: C_10  and  C_11
REMARK   10  A    between atoms: N_19  and  C_20
REMARK   11  A    between atoms: C_25  and  N_26
REMARK                            x       y       z     vdW  Elec       q    Type
REMARK                         _______ _______ _______ _____ _____    ______ ____
ROOT
ATOM      1  C   UNL     1       2.034   8.485  18.220  0.00  0.00    +0.000 C 
ATOM      2  O   UNL     1       1.764   9.003  17.138  0.00  0.00    +0.000 OA
ATOM      3  N   UNL     1       1.484   8.943  19.397  0.00  0.00    +0.000 N 
ATOM      4  H   UNL     1       1.908   8.627  20.261  0.00  0.00    +0.000 HD
ENDROOT
BRANCH   3   5
ATOM      5  C   UNL     1       0.538  10.059  19.448  0.00  0.00    +0.000 C 
ATOM      6  C   UNL     1       1.267  11.390  19.620  0.00  0.00    +0.000 C 
ATOM      7  O   UNL     1       1.470  11.575  21.034  0.00  0.00    +0.000 OA
ATOM      8  C   UNL     1       0.547  10.722  21.738  0.00  0.00    +0.000 C 
ATOM      9  C   UNL     1      -0.433  11.548  22.530  0.00  0.00    +0.000 C 
ATOM     10  C   UNL     1      -1.435  11.941  21.456  0.00  0.00    +0.000 C 
ATOM     11  O   UNL     1      -1.520  10.821  20.551  0.00  0.00    +0.000 OA
ATOM     12  C   UNL     1      -0.323  10.026  20.706  0.00  0.00    +0.000 C 
BRANCH  10  13
ATOM     13  N   UNL     1      -2.741  12.291  21.994  0.00  0.00    +0.000 N 
ATOM     14  C   UNL     1      -3.018  12.192  23.343  0.00  0.00    +0.000 A 
ATOM     15  C   UNL     1      -4.200  12.545  23.851  0.00  0.00    +0.000 A 
ATOM     16  C   UNL     1      -5.241  13.061  22.942  0.00  0.00    +0.000 A 
ATOM     17  O   UNL     1      -6.342  13.390  23.360  0.00  0.00    +0.000 OA
ATOM     18  N   UNL     1      -4.884  13.152  21.631  0.00  0.00    +0.000 N 
ATOM     19  C   UNL     1      -3.668  12.813  21.097  0.00  0.00    +0.000 A 
ATOM     20  O   UNL     1      -3.451  12.982  19.901  0.00  0.00    +0.000 OA
ATOM     21  H   UNL     1      -5.570  13.519  20.991  0.00  0.00    +0.000 HD
ENDBRANCH  10  13
ENDBRANCH   3   5
BRANCH   1  22
ATOM     22  C   UNL     1       3.087   7.359  18.367  0.00  0.00    +0.000 C 
BRANCH  22  25
ATOM     23  C   UNL     1       1.987   5.494  19.581  0.00  0.00    +0.000 C 
ATOM     24  O   UNL     1       2.016   6.098  20.646  0.00  0.00    +0.000 OA
ATOM     25  N   UNL     1       2.458   6.027  18.417  0.00  0.00    +0.000 N 
ATOM     26  H   UNL     1       2.319   5.494  17.571  0.00  0.00    +0.000 HD
BRANCH  23  27
ATOM     27  O   UNL     1       1.412   4.287  19.369  0.00  0.00    +0.000 OA
BRANCH  27  29
ATOM     28  C   UNL     1       1.668   2.810  21.340  0.00  0.00    +0.000 C 
ATOM     29  C   UNL     1       2.056   3.081  19.879  0.00  0.00    +0.000 C 
ATOM     30  C   UNL     1       3.581   3.144  19.713  0.00  0.00    +0.000 C 
ATOM     31  C   UNL     1       1.527   1.909  19.032  0.00  0.00    +0.000 C 
ENDBRANCH  27  29
ENDBRANCH  23  27
ENDBRANCH  22  25
BRANCH  22  32
ATOM     32  C   UNL     1       4.115   7.490  17.222  0.00  0.00    +0.000 C 
BRANCH  32  33
ATOM     33  C   UNL     1       5.107   6.351  17.170  0.00  0.00    +0.000 A 
ATOM     34  C   UNL     1       6.106   6.242  18.147  0.00  0.00    +0.000 A 
ATOM     35  C   UNL     1       7.098   5.268  18.037  0.00  0.00    +0.000 A 
ATOM     36  C   UNL     1       7.095   4.389  16.956  0.00  0.00    +0.000 A 
ATOM     37  C   UNL     1       6.072   4.450  16.011  0.00  0.00    +0.000 A 
ATOM     38  C   UNL     1       5.072   5.415  16.127  0.00  0.00    +0.000 A 
ENDBRANCH  32  33
ENDBRANCH  22  32
ENDBRANCH   1  22
TORSDOF 8
ENDMDL
MODEL 4
REMARK VINA RESULT:      -7.8      0.926      1.083
REMARK  Name = 
REMARK  11 active torsions:
REMARK  status: ('A' for Active; 'I' for Inactive)
REMARK    1  A    between atoms: C_1  and  C_2
REMARK    2  A    between atoms: C_2  and  C_3
REMARK    3  A    between atoms: C_2  and  C_4
REMARK    4  A    between atoms: C_2  and  O_5
REMARK    5  A    between atoms: O_5  and  C_6
REMARK    6  A    between atoms: N_8  and  C_9
REMARK    7  A    between atoms: C_9  and  C_10
REMARK    8  A    between atoms: C_9  and  C_17
REMARK    9  A    between atoms: C_10  and  C_11
REMARK   10  A    between atoms: N_19  and  C_20
REMARK   11  A    between atoms: C_25  and  N_26
REMARK                            x       y       z     vdW  Elec       q    Type
REMARK                         _______ _______ _______ _____ _____    ______ ____
ROOT
ATOM      1  C   UNL     1       1.692   8.505  18.478  0.00  0.00    +0.000 C 
ATOM      2  O   UNL     1       1.778   9.283  17.530  0.00  0.00    +0.000 OA
ATOM      3  N   UNL     1       0.986   8.828  19.616  0.00  0.00    +0.000 N 
ATOM      4  H   UNL     1       1.135   8.250  20.435  0.00  0.00    +0.000 HD
ENDROOT
BRANCH   3   5
ATOM      5  C   UNL     1       0.281  10.101  19.776  0.00  0.00    +0.000 C 
ATOM      6  C   UNL     1       1.220  11.188  20.296  0.00  0.00    +0.000 C 
ATOM      7  O   UNL     1       1.230  11.080  21.732  0.00  0.00    +0.000 OA
ATOM      8  C   UNL     1       0.059  10.346  22.138  0.00  0.00    +0.000 C 
ATOM      9  C   UNL     1      -0.854  11.222  22.957  0.00  0.00    +0.000 C 
ATOM     10  C   UNL     1      -1.576  12.004  21.872  0.00  0.00    +0.000 C 
ATOM     11  O   UNL     1      -1.736  11.102  20.759  0.00  0.00    +0.000 OA
ATOM     12  C   UNL     1      -0.757  10.046  20.892  0.00  0.00    +0.000 C 
BRANCH  10  13
ATOM     13  N   UNL     1      -2.857  12.539  22.311  0.00  0.00    +0.000 N 
ATOM     14  C   UNL     1      -3.331  12.324  23.590  0.00  0.00    +0.000 A 
ATOM     15  C   UNL     1      -4.486  12.840  24.013  0.00  0.00    +0.000 A 
ATOM     16  C   UNL     1      -5.279  13.670  23.086  0.00  0.00    +0.000 A 
ATOM     17  O   UNL     1      -6.346  14.157  23.427  0.00  0.00    +0.000 OA
ATOM     18  N   UNL     1      -4.733  13.855  21.852  0.00  0.00    +0.000 N 
ATOM     19  C   UNL     1      -3.539  13.349  21.409  0.00  0.00    +0.000 A 
ATOM     20  O   UNL     1      -3.132  13.625  20.284  0.00  0.00    +0.000 OA
ATOM     21  H   UNL     1      -5.245  14.434  21.204  0.00  0.00    +0.000 HD
ENDBRANCH  10  13
ENDBRANCH   3   5
BRANCH   1  22
ATOM     22  C   UNL     1       2.453   7.157  18.523  0.00  0.00    +0.000 C 
BRANCH  22  25
ATOM     23  C   UNL     1       4.346   6.227  17.214  0.00  0.00    +0.000 C 
ATOM     24  O   UNL     1       3.767   5.163  17.031  0.00  0.00    +0.000 OA
ATOM     25  N   UNL     1       3.786   7.262  17.902  0.00  0.00    +0.000 N 
ATOM     26  H   UNL     1       4.299   8.131  17.935  0.00  0.00    +0.000 HD
BRANCH  23  27
ATOM     27  O   UNL     1       5.548   6.575  16.698  0.00  0.00    +0.000 OA
BRANCH  27  29
ATOM     28  C   UNL     1       6.473   5.436  18.692  0.00  0.00    +0.000 C 
ATOM     29  C   UNL     1       6.773   6.132  17.356  0.00  0.00    +0.000 C 
ATOM     30  C   UNL     1       7.761   7.292  17.546  0.00  0.00    +0.000 C 
ATOM     31  C   UNL     1       7.422   5.093  16.424  0.00  0.00    +0.000 C 
ENDBRANCH  27  29
ENDBRANCH  23  27
ENDBRANCH  22  25
BRANCH  22  32
ATOM     32  C   UNL     1       2.514   6.673  19.988  0.00  0.00    +0.000 C 
BRANCH  32  33
ATOM     33  C   UNL     1       2.269   5.189  20.143  0.00  0.00    +0.000 A 
ATOM     34  C   UNL     1       3.352   4.303  20.227  0.00  0.00    +0.000 A 
ATOM     35  C   UNL     1       3.137   2.925  20.245  0.00  0.00    +0.000 A 
ATOM     36  C   UNL     1       1.839   2.421  20.189  0.00  0.00    +0.000 A 
ATOM     37  C   UNL     1       0.753   3.295  20.165  0.00  0.00    +0.000 A 
ATOM     38  C   UNL     1       0.967   4.674  20.160  0.00  0.00    +0.000 A 
ENDBRANCH  32  33
ENDBRANCH  22  32
ENDBRANCH   1  22
TORSDOF 8
ENDMDL
MODEL 5
REMARK VINA RESULT:      -7.8      1.646      3.487
REMARK  Name = 
REMARK  11 active torsions:
REMARK  status: ('A' for Active; 'I' for Inactive)
REMARK    1  A    between atoms: C_1  and  C_2
REMARK    2  A    between atoms: C_2  and  C_3
REMARK    3  A    between atoms: C_2  and  C_4
REMARK    4  A    between atoms: C_2  and  O_5
REMARK    5  A    between atoms: O_5  and  C_6
REMARK    6  A    between atoms: N_8  and  C_9
REMARK    7  A    between atoms: C_9  and  C_10
REMARK    8  A    between atoms: C_9  and  C_17
REMARK    9  A    between atoms: C_10  and  C_11
REMARK   10  A    between atoms: N_19  and  C_20
REMARK   11  A    between atoms: C_25  and  N_26
REMARK                            x       y       z     vdW  Elec       q    Type
REMARK                         _______ _______ _______ _____ _____    ______ ____
ROOT
ATOM      1  C   UNL     1       2.108   8.582  18.064  0.00  0.00    +0.000 C 
ATOM      2  O   UNL     1       1.930   9.207  17.020  0.00  0.00    +0.000 OA
ATOM      3  N   UNL     1       1.427   8.896  19.219  0.00  0.00    +0.000 N 
ATOM      4  H   UNL     1       1.773   8.500  20.085  0.00  0.00    +0.000 HD
ENDROOT
BRANCH   3   5
ATOM      5  C   UNL     1       0.440   9.976  19.289  0.00  0.00    +0.000 C 
ATOM      6  C   UNL     1       1.120  11.344  19.286  0.00  0.00    +0.000 C 
ATOM      7  O   UNL     1       1.458  11.644  20.654  0.00  0.00    +0.000 OA
ATOM      8  C   UNL     1       0.653  10.814  21.511  0.00  0.00    +0.000 C 
ATOM      9  C   UNL     1      -0.278  11.659  22.340  0.00  0.00    +0.000 C 
ATOM     10  C   UNL     1      -1.402  11.930  21.352  0.00  0.00    +0.000 C 
ATOM     11  O   UNL     1      -1.528  10.741  20.545  0.00  0.00    +0.000 OA
ATOM     12  C   UNL     1      -0.285  10.007  20.629  0.00  0.00    +0.000 C 
BRANCH  10  13
ATOM     13  N   UNL     1      -2.661  12.270  21.997  0.00  0.00    +0.000 N 
ATOM     14  C   UNL     1      -2.824  12.165  23.365  0.00  0.00    +0.000 A 
ATOM     15  C   UNL     1      -3.962  12.509  23.970  0.00  0.00    +0.000 A 
ATOM     16  C   UNL     1      -5.078  13.021  23.153  0.00  0.00    +0.000 A 
ATOM     17  O   UNL     1      -6.142  13.341  23.663  0.00  0.00    +0.000 OA
ATOM     18  N   UNL     1      -4.832  13.117  21.817  0.00  0.00    +0.000 N 
ATOM     19  C   UNL     1      -3.663  12.788  21.183  0.00  0.00    +0.000 A 
ATOM     20  O   UNL     1      -3.547  12.962  19.973  0.00  0.00    +0.000 OA
ATOM     21  H   UNL     1      -5.572  13.481  21.237  0.00  0.00    +0.000 HD
ENDBRANCH  10  13
ENDBRANCH   3   5
BRANCH   1  22
ATOM     22  C   UNL     1       3.181   7.475  18.201  0.00  0.00    +0.000 C 
BRANCH  22  25
ATOM     23  C   UNL     1       2.198   5.477  19.297  0.00  0.00    +0.000 C 
ATOM     24  O   UNL     1       2.284   5.978  20.411  0.00  0.00    +0.000 OA
ATOM     25  N   UNL     1       2.583   6.128  18.163  0.00  0.00    +0.000 N 
ATOM     26  H   UNL     1       2.401   5.673  17.280  0.00  0.00    +0.000 HD
BRANCH  23  27
ATOM     27  O   UNL     1       1.634   4.280  19.007  0.00  0.00    +0.000 OA
BRANCH  27  29
ATOM     28  C   UNL     1       3.813   3.227  19.532  0.00  0.00    +0.000 C 
ATOM     29  C   UNL     1       2.486   3.120  18.766  0.00  0.00    +0.000 C 
ATOM     30  C   UNL     1       2.729   2.902  17.266  0.00  0.00    +0.000 C 
ATOM     31  C   UNL     1       1.728   1.897  19.314  0.00  0.00    +0.000 C 
ENDBRANCH  27  29
ENDBRANCH  23  27
ENDBRANCH  22  25
BRANCH  22  32
ATOM     32  C   UNL     1       4.250   7.683  17.106  0.00  0.00    +0.000 C 
BRANCH  32  33
ATOM     33  C   UNL     1       5.220   6.530  16.983  0.00  0.00    +0.000 A 
ATOM     34  C   UNL     1       5.172   5.688  15.864  0.00  0.00    +0.000 A 
ATOM     35  C   UNL     1       5.979   4.551  15.802  0.00  0.00    +0.000 A 
ATOM     36  C   UNL     1       6.845   4.252  16.851  0.00  0.00    +0.000 A 
ATOM     37  C   UNL     1       6.943   5.116  17.941  0.00  0.00    +0.000 A 
ATOM     38  C   UNL     1       6.147   6.260  17.999  0.00  0.00    +0.000 A 
ENDBRANCH  32  33
ENDBRANCH  22  32
ENDBRANCH   1  22
TORSDOF 8
ENDMDL
MODEL 6
REMARK VINA RESULT:      -7.8      1.003      1.371
REMARK  Name = 
REMARK  11 active torsions:
REMARK  status: ('A' for Active; 'I' for Inactive)
REMARK    1  A    between atoms: C_1  and  C_2
REMARK    2  A    between atoms: C_2  and  C_3
REMARK    3  A    between atoms: C_2  and  C_4
REMARK    4  A    between atoms: C_2  and  O_5
REMARK    5  A    between atoms: O_5  and  C_6
REMARK    6  A    between atoms: N_8  and  C_9
REMARK    7  A    between atoms: C_9  and  C_10
REMARK    8  A    between atoms: C_9  and  C_17
REMARK    9  A    between atoms: C_10  and  C_11
REMARK   10  A    between atoms: N_19  and  C_20
REMARK   11  A    between atoms: C_25  and  N_26
REMARK                            x       y       z     vdW  Elec       q    Type
REMARK                         _______ _______ _______ _____ _____    ______ ____
ROOT
ATOM      1  C   UNL     1       1.896   8.583  18.272  0.00  0.00    +0.000 C 
ATOM      2  O   UNL     1       2.030   9.216  17.227  0.00  0.00    +0.000 OA
ATOM      3  N   UNL     1       1.266   9.128  19.370  0.00  0.00    +0.000 N 
ATOM      4  H   UNL     1       1.382   8.651  20.256  0.00  0.00    +0.000 HD
ENDROOT
BRANCH   3   5
ATOM      5  C   UNL     1       0.704  10.480  19.371  0.00  0.00    +0.000 C 
ATOM      6  C   UNL     1       1.451  11.385  20.348  0.00  0.00    +0.000 C 
ATOM      7  O   UNL     1       0.845  11.196  21.641  0.00  0.00    +0.000 OA
ATOM      8  C   UNL     1      -0.461  10.621  21.447  0.00  0.00    +0.000 C 
ATOM      9  C   UNL     1      -1.531  11.573  21.915  0.00  0.00    +0.000 C 
ATOM     10  C   UNL     1      -1.640  12.514  20.726  0.00  0.00    +0.000 C 
ATOM     11  O   UNL     1      -1.415  11.709  19.550  0.00  0.00    +0.000 OA
ATOM     12  C   UNL     1      -0.705  10.516  19.951  0.00  0.00    +0.000 C 
BRANCH  10  13
ATOM     13  N   UNL     1      -2.918  13.206  20.660  0.00  0.00    +0.000 N 
ATOM     14  C   UNL     1      -3.153  14.361  21.379  0.00  0.00    +0.000 A 
ATOM     15  C   UNL     1      -4.309  15.023  21.298  0.00  0.00    +0.000 A 
ATOM     16  C   UNL     1      -5.366  14.506  20.409  0.00  0.00    +0.000 A 
ATOM     17  O   UNL     1      -6.444  15.073  20.308  0.00  0.00    +0.000 OA
ATOM     18  N   UNL     1      -5.050  13.376  19.717  0.00  0.00    +0.000 N 
ATOM     19  C   UNL     1      -3.862  12.697  19.773  0.00  0.00    +0.000 A 
ATOM     20  O   UNL     1      -3.680  11.711  19.064  0.00  0.00    +0.000 OA
ATOM     21  H   UNL     1      -5.748  13.011  19.088  0.00  0.00    +0.000 HD
ENDBRANCH  10  13
ENDBRANCH   3   5
BRANCH   1  22
ATOM     22  C   UNL     1       2.512   7.179  18.484  0.00  0.00    +0.000 C 
BRANCH  22  25
ATOM     23  C   UNL     1       4.474   6.088  17.424  0.00  0.00    +0.000 C 
ATOM     24  O   UNL     1       3.810   5.125  17.060  0.00  0.00    +0.000 OA
ATOM     25  N   UNL     1       3.935   7.144  18.098  0.00  0.00    +0.000 N 
ATOM     26  H   UNL     1       4.536   7.932  18.286  0.00  0.00    +0.000 HD
BRANCH  23  27
ATOM     27  O   UNL     1       5.780   6.304  17.139  0.00  0.00    +0.000 OA
BRANCH  27  29
ATOM     28  C   UNL     1       7.545   4.575  17.289  0.00  0.00    +0.000 C 
ATOM     29  C   UNL     1       6.811   5.725  17.994  0.00  0.00    +0.000 C 
ATOM     30  C   UNL     1       6.234   5.270  19.342  0.00  0.00    +0.000 C 
ATOM     31  C   UNL     1       7.838   6.840  18.261  0.00  0.00    +0.000 C 
ENDBRANCH  27  29
ENDBRANCH  23  27
ENDBRANCH  22  25
BRANCH  22  32
ATOM     32  C   UNL     1       2.283   6.754  19.951  0.00  0.00    +0.000 C 
BRANCH  32  33
ATOM     33  C   UNL     1       2.024   5.274  20.116  0.00  0.00    +0.000 A 
ATOM     34  C   UNL     1       1.401   4.550  19.090  0.00  0.00    +0.000 A 
ATOM     35  C   UNL     1       1.048   3.214  19.282  0.00  0.00    +0.000 A 
ATOM     36  C   UNL     1       1.321   2.588  20.497  0.00  0.00    +0.000 A 
ATOM     37  C   UNL     1       1.993   3.282  21.502  0.00  0.00    +0.000 A 
ATOM     38  C   UNL     1       2.360   4.614  21.306  0.00  0.00    +0.000 A 
ENDBRANCH  32  33
ENDBRANCH  22  32
ENDBRANCH   1  22
TORSDOF 8
ENDMDL
MODEL 7
REMARK VINA RESULT:      -7.8      1.417      3.634
REMARK  Name = 
REMARK  11 active torsions:
REMARK  status: ('A' for Active; 'I' for Inactive)
REMARK    1  A    between atoms: C_1  and  C_2
REMARK    2  A    between atoms: C_2  and  C_3
REMARK    3  A    between atoms: C_2  and  C_4
REMARK    4  A    between atoms: C_2  and  O_5
REMARK    5  A    between atoms: O_5  and  C_6
REMARK    6  A    between atoms: N_8  and  C_9
REMARK    7  A    between atoms: C_9  and  C_10
REMARK    8  A    between atoms: C_9  and  C_17
REMARK    9  A    between atoms: C_10  and  C_11
REMARK   10  A    between atoms: N_19  and  C_20
REMARK   11  A    between atoms: C_25  and  N_26
REMARK                            x       y       z     vdW  Elec       q    Type
REMARK                         _______ _______ _______ _____ _____    ______ ____
ROOT
ATOM      1  C   UNL     1       2.094   8.660  18.322  0.00  0.00    +0.000 C 
ATOM      2  O   UNL     1       2.067   9.377  17.323  0.00  0.00    +0.000 OA
ATOM      3  N   UNL     1       1.374   8.972  19.454  0.00  0.00    +0.000 N 
ATOM      4  H   UNL     1       1.607   8.473  20.305  0.00  0.00    +0.000 HD
ENDROOT
BRANCH   3   5
ATOM      5  C   UNL     1       0.521  10.158  19.550  0.00  0.00    +0.000 C 
ATOM      6  C   UNL     1       1.329  11.383  19.974  0.00  0.00    +0.000 C 
ATOM      7  O   UNL     1       1.377  11.375  21.413  0.00  0.00    +0.000 OA
ATOM      8  C   UNL     1       0.312  10.534  21.896  0.00  0.00    +0.000 C 
ATOM      9  C   UNL     1      -0.686  11.346  22.679  0.00  0.00    +0.000 C 
ATOM     10  C   UNL     1      -1.518  11.961  21.565  0.00  0.00    +0.000 C 
ATOM     11  O   UNL     1      -1.585  10.972  20.517  0.00  0.00    +0.000 OA
ATOM     12  C   UNL     1      -0.483  10.054  20.693  0.00  0.00    +0.000 C 
BRANCH  10  13
ATOM     13  N   UNL     1      -2.846  12.365  22.001  0.00  0.00    +0.000 N 
ATOM     14  C   UNL     1      -3.198  12.373  23.336  0.00  0.00    +0.000 A 
ATOM     15  C   UNL     1      -4.401  12.777  23.748  0.00  0.00    +0.000 A 
ATOM     16  C   UNL     1      -5.383  13.233  22.746  0.00  0.00    +0.000 A 
ATOM     17  O   UNL     1      -6.500  13.604  23.076  0.00  0.00    +0.000 OA
ATOM     18  N   UNL     1      -4.953  13.217  21.454  0.00  0.00    +0.000 N 
ATOM     19  C   UNL     1      -3.715  12.825  21.016  0.00  0.00    +0.000 A 
ATOM     20  O   UNL     1      -3.431  12.899  19.824  0.00  0.00    +0.000 OA
ATOM     21  H   UNL     1      -5.598  13.541  20.750  0.00  0.00    +0.000 HD
ENDBRANCH  10  13
ENDBRANCH   3   5
BRANCH   1  22
ATOM     22  C   UNL     1       3.014   7.420  18.435  0.00  0.00    +0.000 C 
BRANCH  22  25
ATOM     23  C   UNL     1       3.193   5.480  19.972  0.00  0.00    +0.000 C 
ATOM     24  O   UNL     1       4.417   5.501  19.943  0.00  0.00    +0.000 OA
ATOM     25  N   UNL     1       2.423   6.380  19.295  0.00  0.00    +0.000 N 
ATOM     26  H   UNL     1       1.425   6.341  19.440  0.00  0.00    +0.000 HD
BRANCH  23  27
ATOM     27  O   UNL     1       2.431   4.656  20.730  0.00  0.00    +0.000 OA
BRANCH  27  29
ATOM     28  C   UNL     1       3.493   2.587  19.880  0.00  0.00    +0.000 C 
ATOM     29  C   UNL     1       2.188   3.287  20.289  0.00  0.00    +0.000 C 
ATOM     30  C   UNL     1       1.154   3.236  19.155  0.00  0.00    +0.000 C 
ATOM     31  C   UNL     1       1.613   2.530  21.501  0.00  0.00    +0.000 C 
ENDBRANCH  27  29
ENDBRANCH  23  27
ENDBRANCH  22  25
BRANCH  22  32
ATOM     32  C   UNL     1       3.331   6.909  17.013  0.00  0.00    +0.000 C 
BRANCH  32  33
ATOM     33  C   UNL     1       4.696   6.270  16.893  0.00  0.00    +0.000 A 
ATOM     34  C   UNL     1       4.812   4.927  16.508  0.00  0.00    +0.000 A 
ATOM     35  C   UNL     1       6.056   4.296  16.515  0.00  0.00    +0.000 A 
ATOM     36  C   UNL     1       7.195   5.003  16.896  0.00  0.00    +0.000 A 
ATOM     37  C   UNL     1       7.098   6.355  17.222  0.00  0.00    +0.000 A 
ATOM     38  C   UNL     1       5.856   6.991  17.203  0.00  0.00    +0.000 A 
ENDBRANCH  32  33
ENDBRANCH  22  32
ENDBRANCH   1  22
TORSDOF 8
ENDMDL
MODEL 8
REMARK VINA RESULT:      -7.8      0.978      1.382
REMARK  Name = 
REMARK  11 active torsions:
REMARK  status: ('A' for Active; 'I' for Inactive)
REMARK    1  A    between atoms: C_1  and  C_2
REMARK    2  A    between atoms: C_2  and  C_3
REMARK    3  A    between atoms: C_2  and  C_4
REMARK    4  A    between atoms: C_2  and  O_5
REMARK    5  A    between atoms: O_5  and  C_6
REMARK    6  A    between atoms: N_8  and  C_9
REMARK    7  A    between atoms: C_9  and  C_10
REMARK    8  A    between atoms: C_9  and  C_17
REMARK    9  A    between atoms: C_10  and  C_11
REMARK   10  A    between atoms: N_19  and  C_20
REMARK   11  A    between atoms: C_25  and  N_26
REMARK                            x       y       z     vdW  Elec       q    Type
REMARK                         _______ _______ _______ _____ _____    ______ ____
ROOT
ATOM      1  C   UNL     1       1.891   8.524  18.242  0.00  0.00    +0.000 C 
ATOM      2  O   UNL     1       2.018   9.158  17.196  0.00  0.00    +0.000 OA
ATOM      3  N   UNL     1       1.268   9.066  19.344  0.00  0.00    +0.000 N 
ATOM      4  H   UNL     1       1.389   8.587  20.229  0.00  0.00    +0.000 HD
ENDROOT
BRANCH   3   5
ATOM      5  C   UNL     1       0.704  10.417  19.351  0.00  0.00    +0.000 C 
ATOM      6  C   UNL     1       1.478  11.331  20.300  0.00  0.00    +0.000 C 
ATOM      7  O   UNL     1       0.909  11.151  21.610  0.00  0.00    +0.000 OA
ATOM      8  C   UNL     1      -0.402  10.573  21.458  0.00  0.00    +0.000 C 
ATOM      9  C   UNL     1      -1.458  11.528  21.949  0.00  0.00    +0.000 C 
ATOM     10  C   UNL     1      -1.602  12.460  20.756  0.00  0.00    +0.000 C 
ATOM     11  O   UNL     1      -1.410  11.647  19.581  0.00  0.00    +0.000 OA
ATOM     12  C   UNL     1      -0.688  10.457  19.971  0.00  0.00    +0.000 C 
BRANCH  10  13
ATOM     13  N   UNL     1      -2.883  13.150  20.722  0.00  0.00    +0.000 N 
ATOM     14  C   UNL     1      -3.134  14.249  21.520  0.00  0.00    +0.000 A 
ATOM     15  C   UNL     1      -4.291  14.911  21.469  0.00  0.00    +0.000 A 
ATOM     16  C   UNL     1      -5.333  14.456  20.529  0.00  0.00    +0.000 A 
ATOM     17  O   UNL     1      -6.411  15.026  20.453  0.00  0.00    +0.000 OA
ATOM     18  N   UNL     1      -5.001  13.382  19.760  0.00  0.00    +0.000 N 
ATOM     19  C   UNL     1      -3.810  12.704  19.785  0.00  0.00    +0.000 A 
ATOM     20  O   UNL     1      -3.613  11.774  19.008  0.00  0.00    +0.000 OA
ATOM     21  H   UNL     1      -5.687  13.061  19.095  0.00  0.00    +0.000 HD
ENDBRANCH  10  13
ENDBRANCH   3   5
BRANCH   1  22
ATOM     22  C   UNL     1       2.510   7.119  18.447  0.00  0.00    +0.000 C 
BRANCH  22  25
ATOM     23  C   UNL     1       4.464   6.026  17.377  0.00  0.00    +0.000 C 
ATOM     24  O   UNL     1       3.799   5.058  17.027  0.00  0.00    +0.000 OA
ATOM     25  N   UNL     1       3.928   7.085  18.048  0.00  0.00    +0.000 N 
ATOM     26  H   UNL     1       4.530   7.877  18.224  0.00  0.00    +0.000 HD
BRANCH  23  27
ATOM     27  O   UNL     1       5.766   6.243  17.078  0.00  0.00    +0.000 OA
BRANCH  27  29
ATOM     28  C   UNL     1       6.203   5.255  19.306  0.00  0.00    +0.000 C 
ATOM     29  C   UNL     1       6.804   5.785  17.996  0.00  0.00    +0.000 C 
ATOM     30  C   UNL     1       7.841   6.884  18.266  0.00  0.00    +0.000 C 
ATOM     31  C   UNL     1       7.517   4.610  17.301  0.00  0.00    +0.000 C 
ENDBRANCH  27  29
ENDBRANCH  23  27
ENDBRANCH  22  25
BRANCH  22  32
ATOM     32  C   UNL     1       2.294   6.694  19.916  0.00  0.00    +0.000 C 
BRANCH  32  33
ATOM     33  C   UNL     1       1.960   5.228  20.076  0.00  0.00    +0.000 A 
ATOM     34  C   UNL     1       2.297   4.555  21.259  0.00  0.00    +0.000 A 
ATOM     35  C   UNL     1       2.106   3.178  21.366  0.00  0.00    +0.000 A 
ATOM     36  C   UNL     1       1.567   2.463  20.298  0.00  0.00    +0.000 A 
ATOM     37  C   UNL     1       1.174   3.133  19.140  0.00  0.00    +0.000 A 
ATOM     38  C   UNL     1       1.352   4.513  19.036  0.00  0.00    +0.000 A 
ENDBRANCH  32  33
ENDBRANCH  22  32
ENDBRANCH   1  22
TORSDOF 8
ENDMDL
MODEL 9
REMARK VINA RESULT:      -7.8      0.931      1.472
REMARK  Name = 
REMARK  11 active torsions:
REMARK  status: ('A' for Active; 'I' for Inactive)
REMARK    1  A    between atoms: C_1  and  C_2
REMARK    2  A    between atoms: C_2  and  C_3
REMARK    3  A    between atoms: C_2  and  C_4
REMARK    4  A    between atoms: C_2  and  O_5
REMARK    5  A    between atoms: O_5  and  C_6
REMARK    6  A    between atoms: N_8  and  C_9
REMARK    7  A    between atoms: C_9  and  C_10
REMARK    8  A    between atoms: C_9  and  C_17
REMARK    9  A    between atoms: C_10  and  C_11
REMARK   10  A    between atoms: N_19  and  C_20
REMARK   11  A    between atoms: C_25  and  N_26
REMARK                            x       y       z     vdW  Elec       q    Type
REMARK                         _______ _______ _______ _____ _____    ______ ____
ROOT
ATOM      1  C   UNL     1       1.990   8.537  18.251  0.00  0.00    +0.000 C 
ATOM      2  O   UNL     1       2.253   9.402  17.418  0.00  0.00    +0.000 OA
ATOM      3  N   UNL     1       1.263   8.824  19.385  0.00  0.00    +0.000 N 
ATOM      4  H   UNL     1       1.270   8.135  20.128  0.00  0.00    +0.000 HD
ENDROOT
BRANCH   3   5
ATOM      5  C   UNL     1       0.742  10.161  19.675  0.00  0.00    +0.000 C 
ATOM      6  C   UNL     1       1.705  10.946  20.564  0.00  0.00    +0.000 C 
ATOM      7  O   UNL     1       1.395  10.595  21.927  0.00  0.00    +0.000 OA
ATOM      8  C   UNL     1       0.067  10.038  21.959  0.00  0.00    +0.000 C 
ATOM      9  C   UNL     1      -0.853  10.917  22.765  0.00  0.00    +0.000 C 
ATOM     10  C   UNL     1      -1.203  11.996  21.753  0.00  0.00    +0.000 C 
ATOM     11  O   UNL     1      -1.261  11.344  20.468  0.00  0.00    +0.000 OA
ATOM     12  C   UNL     1      -0.504  10.115  20.554  0.00  0.00    +0.000 C 
BRANCH  10  13
ATOM     13  N   UNL     1      -2.451  12.681  22.057  0.00  0.00    +0.000 N 
ATOM     14  C   UNL     1      -3.261  12.279  23.100  0.00  0.00    +0.000 A 
ATOM     15  C   UNL     1      -4.388  12.922  23.410  0.00  0.00    +0.000 A 
ATOM     16  C   UNL     1      -4.777  14.102  22.615  0.00  0.00    +0.000 A 
ATOM     17  O   UNL     1      -5.805  14.718  22.857  0.00  0.00    +0.000 OA
ATOM     18  N   UNL     1      -3.915  14.450  21.620  0.00  0.00    +0.000 N 
ATOM     19  C   UNL     1      -2.745  13.813  21.302  0.00  0.00    +0.000 A 
ATOM     20  O   UNL     1      -2.027  14.250  20.407  0.00  0.00    +0.000 OA
ATOM     21  H   UNL     1      -4.147  15.264  21.073  0.00  0.00    +0.000 HD
ENDBRANCH  10  13
ENDBRANCH   3   5
BRANCH   1  22
ATOM     22  C   UNL     1       2.541   7.093  18.158  0.00  0.00    +0.000 C 
BRANCH  22  25
ATOM     23  C   UNL     1       4.823   6.590  17.320  0.00  0.00    +0.000 C 
ATOM     24  O   UNL     1       4.399   6.209  16.236  0.00  0.00    +0.000 OA
ATOM     25  N   UNL     1       4.007   7.058  18.308  0.00  0.00    +0.000 N 
ATOM     26  H   UNL     1       4.447   7.428  19.138  0.00  0.00    +0.000 HD
BRANCH  23  27
ATOM     27  O   UNL     1       6.127   6.701  17.668  0.00  0.00    +0.000 OA
BRANCH  27  29
ATOM     28  C   UNL     1       7.449   4.680  17.122  0.00  0.00    +0.000 C 
ATOM     29  C   UNL     1       6.827   5.548  18.225  0.00  0.00    +0.000 C 
ATOM     30  C   UNL     1       5.909   4.717  19.133  0.00  0.00    +0.000 C 
ATOM     31  C   UNL     1       7.977   6.106  19.084  0.00  0.00    +0.000 C 
ENDBRANCH  27  29
ENDBRANCH  23  27
ENDBRANCH  22  25
BRANCH  22  32
ATOM     32  C   UNL     1       1.814   6.218  19.203  0.00  0.00    +0.000 C 
BRANCH  32  33
ATOM     33  C   UNL     1       2.059   4.737  19.023  0.00  0.00    +0.000 A 
ATOM     34  C   UNL     1       2.392   3.941  20.128  0.00  0.00    +0.000 A 
ATOM     35  C   UNL     1       2.739   2.601  19.953  0.00  0.00    +0.000 A 
ATOM     36  C   UNL     1       2.749   2.044  18.676  0.00  0.00    +0.000 A 
ATOM     37  C   UNL     1       2.362   2.812  17.578  0.00  0.00    +0.000 A 
ATOM     38  C   UNL     1       2.001   4.148  17.753  0.00  0.00    +0.000 A 
ENDBRANCH  32  33
ENDBRANCH  22  32
ENDBRANCH   1  22
TORSDOF 8
ENDMDL
