MODEL 1
REMARK VINA RESULT:      -6.9      0.000      0.000
REMARK  Name = 
REMARK  8 active torsions:
REMARK  status: ('A' for Active; 'I' for Inactive)
REMARK    1  A    between atoms: C_1  and  C_2
REMARK    2  A    between atoms: C_2  and  O_3
REMARK    3  A    between atoms: O_3  and  C_4
REMARK    4  A    between atoms: C_4  and  C_6
REMARK    5  A    between atoms: C_6  and  C_7
REMARK    6  A    between atoms: C_10  and  N_11
REMARK    7  A    between atoms: C_16  and  C_17
REMARK    8  A    between atoms: C_17  and  C_18
REMARK                            x       y       z     vdW  Elec       q    Type
REMARK                         _______ _______ _______ _____ _____    ______ ____
ROOT
ATOM      1  N   UNL     1       0.074   9.867  20.944  0.00  0.00    +0.000 N 
ATOM      2  C   UNL     1       0.274  11.213  21.374  0.00  0.00    +0.000 C 
ATOM      3  O   UNL     1       1.372  11.768  21.309  0.00  0.00    +0.000 OA
ATOM      4  N   UNL     1      -0.999  11.986  21.487  0.00  0.00    +0.000 N 
ATOM      5  C   UNL     1      -0.819  13.177  20.605  0.00  0.00    +0.000 C 
ATOM      6  C   UNL     1      -2.110  13.994  20.580  0.00  0.00    +0.000 C 
ATOM      7  O   UNL     1      -2.129  14.736  21.809  0.00  0.00    +0.000 OA
ATOM      8  C   UNL     1      -1.695  13.977  22.945  0.00  0.00    +0.000 A 
ATOM      9  C   UNL     1      -2.215  14.652  24.069  0.00  0.00    +0.000 A 
ATOM     10  C   UNL     1      -3.290  14.048  24.677  0.00  0.00    +0.000 A 
ATOM     11  C   UNL     1      -3.607  12.749  24.267  0.00  0.00    +0.000 A 
ATOM     12  C   UNL     1      -2.739  11.986  23.399  0.00  0.00    +0.000 A 
ATOM     13  C   UNL     1      -1.612  12.561  22.778  0.00  0.00    +0.000 A 
ATOM     14  H   UNL     1      -0.753   9.441  21.333  0.00  0.00    +0.000 HD
ENDROOT
BRANCH   1  18
ATOM     15  C   UNL     1       2.597   6.786  18.897  0.00  0.00    +0.000 A 
ATOM     16  C   UNL     1       2.249   7.988  18.258  0.00  0.00    +0.000 A 
ATOM     17  C   UNL     1       1.475   9.049  18.910  0.00  0.00    +0.000 A 
ATOM     18  C   UNL     1       0.972   8.931  20.224  0.00  0.00    +0.000 A 
ATOM     19  C   UNL     1       1.287   7.706  20.836  0.00  0.00    +0.000 A 
ATOM     20  C   UNL     1       2.101   6.678  20.216  0.00  0.00    +0.000 A 
BRANCH  15  21
ATOM     21  C   UNL     1       3.300   5.556  18.261  0.00  0.00    +0.000 C 
BRANCH  21  22
ATOM     22  C   UNL     1       2.552   4.226  18.033  0.00  0.00    +0.000 C 
ATOM     23  O   UNL     1       1.585   4.068  17.303  0.00  0.00    +0.000 OA
BRANCH  22  24
ATOM     24  O   UNL     1       3.156   3.218  18.745  0.00  0.00    +0.000 OA
BRANCH  24  26
ATOM     25  C   UNL     1       1.472   2.958  20.562  0.00  0.00    +0.000 C 
ATOM     26  C   UNL     1       2.939   3.162  20.205  0.00  0.00    +0.000 C 
ENDBRANCH  24  26
ENDBRANCH  22  24
ENDBRANCH  21  22
ENDBRANCH  15  21
ENDBRANCH   1  18
BRANCH   6  27
ATOM     27  C   UNL     1      -3.320  13.076  20.247  0.00  0.00    +0.000 C 
ATOM     28  C   UNL     1      -4.711  13.509  20.660  0.00  0.00    +0.000 C 
ENDBRANCH   6  27
TORSDOF 6
ENDMDL
MODEL 2
REMARK VINA RESULT:      -6.9      2.622      4.216
REMARK  Name = 
REMARK  8 active torsions:
REMARK  status: ('A' for Active; 'I' for Inactive)
REMARK    1  A    between atoms: C_1  and  C_2
REMARK    2  A    between atoms: C_2  and  O_3
REMARK    3  A    between atoms: O_3  and  C_4
REMARK    4  A    between atoms: C_4  and  C_6
REMARK    5  A    between atoms: C_6  and  C_7
REMARK    6  A    between atoms: C_10  and  N_11
REMARK    7  A    between atoms: C_16  and  C_17
REMARK    8  A    between atoms: C_17  and  C_18
REMARK                            x       y       z     vdW  Elec       q    Type
REMARK                         _______ _______ _______ _____ _____    ______ ____
ROOT
ATOM      1  N   UNL     1       1.470   8.441  18.647  0.00  0.00    +0.000 N 
ATOM      2  C   UNL     1       1.164   8.944  19.947  0.00  0.00    +0.000 C 
ATOM      3  O   UNL     1       1.551   8.386  20.976  0.00  0.00    +0.000 OA
ATOM      4  N   UNL     1       0.733  10.373  19.935  0.00  0.00    +0.000 N 
ATOM      5  C   UNL     1       1.675  11.079  20.853  0.00  0.00    +0.000 C 
ATOM      6  C   UNL     1       1.374  12.577  20.842  0.00  0.00    +0.000 C 
ATOM      7  O   UNL     1       0.216  12.750  21.674  0.00  0.00    +0.000 OA
ATOM      8  C   UNL     1      -0.783  11.741  21.485  0.00  0.00    +0.000 A 
ATOM      9  C   UNL     1      -1.981  12.301  21.977  0.00  0.00    +0.000 A 
ATOM     10  C   UNL     1      -2.885  12.699  21.022  0.00  0.00    +0.000 A 
ATOM     11  C   UNL     1      -2.629  12.312  19.702  0.00  0.00    +0.000 A 
ATOM     12  C   UNL     1      -1.584  11.370  19.369  0.00  0.00    +0.000 A 
ATOM     13  C   UNL     1      -0.655  10.917  20.326  0.00  0.00    +0.000 A 
ATOM     14  H   UNL     1       0.851   8.785  17.929  0.00  0.00    +0.000 HD
ENDROOT
BRANCH   1  18
ATOM     15  C   UNL     1       4.457   5.357  17.375  0.00  0.00    +0.000 A 
ATOM     16  C   UNL     1       3.378   5.029  18.213  0.00  0.00    +0.000 A 
ATOM     17  C   UNL     1       2.345   5.991  18.606  0.00  0.00    +0.000 A 
ATOM     18  C   UNL     1       2.374   7.347  18.214  0.00  0.00    +0.000 A 
ATOM     19  C   UNL     1       3.483   7.675  17.415  0.00  0.00    +0.000 A 
ATOM     20  C   UNL     1       4.476   6.713  16.976  0.00  0.00    +0.000 A 
BRANCH  15  21
ATOM     21  C   UNL     1       5.664   4.453  17.002  0.00  0.00    +0.000 C 
BRANCH  21  22
ATOM     22  C   UNL     1       7.071   4.704  17.583  0.00  0.00    +0.000 C 
ATOM     23  O   UNL     1       8.113   4.229  17.158  0.00  0.00    +0.000 OA
BRANCH  22  24
ATOM     24  O   UNL     1       6.995   5.582  18.638  0.00  0.00    +0.000 OA
BRANCH  24  26
ATOM     25  C   UNL     1       7.776   7.735  17.659  0.00  0.00    +0.000 C 
ATOM     26  C   UNL     1       7.993   6.666  18.723  0.00  0.00    +0.000 C 
ENDBRANCH  24  26
ENDBRANCH  22  24
ENDBRANCH  21  22
ENDBRANCH  15  21
ENDBRANCH   1  18
BRANCH   6  27
ATOM     27  C   UNL     1       1.323  13.103  19.379  0.00  0.00    +0.000 C 
ATOM     28  C   UNL     1       0.560  14.377  19.079  0.00  0.00    +0.000 C 
ENDBRANCH   6  27
TORSDOF 6
ENDMDL
MODEL 3
REMARK VINA RESULT:      -6.8      2.732      4.132
REMARK  Name = 
REMARK  8 active torsions:
REMARK  status: ('A' for Active; 'I' for Inactive)
REMARK    1  A    between atoms: C_1  and  C_2
REMARK    2  A    between atoms: C_2  and  O_3
REMARK    3  A    between atoms: O_3  and  C_4
REMARK    4  A    between atoms: C_4  and  C_6
REMARK    5  A    between atoms: C_6  and  C_7
REMARK    6  A    between atoms: C_10  and  N_11
REMARK    7  A    between atoms: C_16  and  C_17
REMARK    8  A    between atoms: C_17  and  C_18
REMARK                            x       y       z     vdW  Elec       q    Type
REMARK                         _______ _______ _______ _____ _____    ______ ____
ROOT
ATOM      1  N   UNL     1       1.444   8.640  18.881  0.00  0.00    +0.000 N 
ATOM      2  C   UNL     1       0.986   9.242  20.091  0.00  0.00    +0.000 C 
ATOM      3  O   UNL     1       1.331   8.832  21.201  0.00  0.00    +0.000 OA
ATOM      4  N   UNL     1       0.434  10.614  19.890  0.00  0.00    +0.000 N 
ATOM      5  C   UNL     1       1.229  11.498  20.792  0.00  0.00    +0.000 C 
ATOM      6  C   UNL     1       0.800  12.951  20.594  0.00  0.00    +0.000 C 
ATOM      7  O   UNL     1      -0.435  13.097  21.312  0.00  0.00    +0.000 OA
ATOM      8  C   UNL     1      -1.323  11.982  21.161  0.00  0.00    +0.000 A 
ATOM      9  C   UNL     1      -2.603  12.472  21.496  0.00  0.00    +0.000 A 
ATOM     10  C   UNL     1      -3.453  12.681  20.437  0.00  0.00    +0.000 A 
ATOM     11  C   UNL     1      -3.052  12.187  19.192  0.00  0.00    +0.000 A 
ATOM     12  C   UNL     1      -1.905  11.321  19.044  0.00  0.00    +0.000 A 
ATOM     13  C   UNL     1      -1.024  11.059  20.112  0.00  0.00    +0.000 A 
ATOM     14  H   UNL     1       0.861   8.847  18.085  0.00  0.00    +0.000 HD
ENDROOT
BRANCH   1  18
ATOM     15  C   UNL     1       4.766   5.749  18.067  0.00  0.00    +0.000 A 
ATOM     16  C   UNL     1       3.901   5.581  19.162  0.00  0.00    +0.000 A 
ATOM     17  C   UNL     1       2.766   6.468  19.433  0.00  0.00    +0.000 A 
ATOM     18  C   UNL     1       2.474   7.599  18.640  0.00  0.00    +0.000 A 
ATOM     19  C   UNL     1       3.373   7.784  17.576  0.00  0.00    +0.000 A 
ATOM     20  C   UNL     1       4.462   6.876  17.271  0.00  0.00    +0.000 A 
BRANCH  15  21
ATOM     21  C   UNL     1       6.061   4.947  17.764  0.00  0.00    +0.000 C 
BRANCH  21  22
ATOM     22  C   UNL     1       6.689   4.930  16.355  0.00  0.00    +0.000 C 
ATOM     23  O   UNL     1       7.550   5.695  15.949  0.00  0.00    +0.000 OA
BRANCH  22  24
ATOM     24  O   UNL     1       6.166   3.894  15.619  0.00  0.00    +0.000 OA
BRANCH  24  26
ATOM     25  C   UNL     1       6.307   3.795  13.134  0.00  0.00    +0.000 C 
ATOM     26  C   UNL     1       5.484   4.208  14.348  0.00  0.00    +0.000 C 
ENDBRANCH  24  26
ENDBRANCH  22  24
ENDBRANCH  21  22
ENDBRANCH  15  21
ENDBRANCH   1  18
BRANCH   6  27
ATOM     27  C   UNL     1       0.828  13.317  19.083  0.00  0.00    +0.000 C 
ATOM     28  C   UNL     1      -0.048  14.445  18.580  0.00  0.00    +0.000 C 
ENDBRANCH   6  27
TORSDOF 6
ENDMDL
MODEL 4
REMARK VINA RESULT:      -6.8      0.741      1.013
REMARK  Name = 
REMARK  8 active torsions:
REMARK  status: ('A' for Active; 'I' for Inactive)
REMARK    1  A    between atoms: C_1  and  C_2
REMARK    2  A    between atoms: C_2  and  O_3
REMARK    3  A    between atoms: O_3  and  C_4
REMARK    4  A    between atoms: C_4  and  C_6
REMARK    5  A    between atoms: C_6  and  C_7
REMARK    6  A    between atoms: C_10  and  N_11
REMARK    7  A    between atoms: C_16  and  C_17
REMARK    8  A    between atoms: C_17  and  C_18
REMARK                            x       y       z     vdW  Elec       q    Type
REMARK                         _______ _______ _______ _____ _____    ______ ____
ROOT
ATOM      1  N   UNL     1      -0.054  10.105  20.896  0.00  0.00    +0.000 N 
ATOM      2  C   UNL     1       0.092  11.444  21.365  0.00  0.00    +0.000 C 
ATOM      3  O   UNL     1       1.162  12.052  21.297  0.00  0.00    +0.000 OA
ATOM      4  N   UNL     1      -1.212  12.153  21.529  0.00  0.00    +0.000 N 
ATOM      5  C   UNL     1      -1.107  13.378  20.683  0.00  0.00    +0.000 C 
ATOM      6  C   UNL     1      -2.434  14.133  20.709  0.00  0.00    +0.000 C 
ATOM      7  O   UNL     1      -2.462  14.834  21.962  0.00  0.00    +0.000 OA
ATOM      8  C   UNL     1      -1.969  14.061  23.064  0.00  0.00    +0.000 A 
ATOM      9  C   UNL     1      -2.497  14.675  24.220  0.00  0.00    +0.000 A 
ATOM     10  C   UNL     1      -3.529  14.003  24.829  0.00  0.00    +0.000 A 
ATOM     11  C   UNL     1      -3.794  12.704  24.383  0.00  0.00    +0.000 A 
ATOM     12  C   UNL     1      -2.910  12.011  23.473  0.00  0.00    +0.000 A 
ATOM     13  C   UNL     1      -1.824  12.657  22.850  0.00  0.00    +0.000 A 
ATOM     14  H   UNL     1      -0.852   9.628  21.288  0.00  0.00    +0.000 HD
ENDROOT
BRANCH   1  18
ATOM     15  C   UNL     1       2.579   7.212  18.716  0.00  0.00    +0.000 A 
ATOM     16  C   UNL     1       2.105   8.381  18.096  0.00  0.00    +0.000 A 
ATOM     17  C   UNL     1       1.291   9.384  18.789  0.00  0.00    +0.000 A 
ATOM     18  C   UNL     1       0.872   9.235  20.128  0.00  0.00    +0.000 A 
ATOM     19  C   UNL     1       1.311   8.040  20.724  0.00  0.00    +0.000 A 
ATOM     20  C   UNL     1       2.165   7.073  20.060  0.00  0.00    +0.000 A 
BRANCH  15  21
ATOM     21  C   UNL     1       3.336   6.035  18.043  0.00  0.00    +0.000 C 
BRANCH  21  22
ATOM     22  C   UNL     1       4.196   5.052  18.865  0.00  0.00    +0.000 C 
ATOM     23  O   UNL     1       5.188   5.344  19.515  0.00  0.00    +0.000 OA
BRANCH  22  24
ATOM     24  O   UNL     1       3.661   3.787  18.795  0.00  0.00    +0.000 OA
BRANCH  24  26
ATOM     25  C   UNL     1       2.044   3.517  20.670  0.00  0.00    +0.000 C 
ATOM     26  C   UNL     1       3.368   3.078  20.057  0.00  0.00    +0.000 C 
ENDBRANCH  24  26
ENDBRANCH  22  24
ENDBRANCH  21  22
ENDBRANCH  15  21
ENDBRANCH   1  18
BRANCH   6  27
ATOM     27  C   UNL     1      -3.607  13.170  20.371  0.00  0.00    +0.000 C 
ATOM     28  C   UNL     1      -5.032  13.632  20.598  0.00  0.00    +0.000 C 
ENDBRANCH   6  27
TORSDOF 6
ENDMDL
MODEL 5
REMARK VINA RESULT:      -6.8      2.924      4.305
REMARK  Name = 
REMARK  8 active torsions:
REMARK  status: ('A' for Active; 'I' for Inactive)
REMARK    1  A    between atoms: C_1  and  C_2
REMARK    2  A    between atoms: C_2  and  O_3
REMARK    3  A    between atoms: O_3  and  C_4
REMARK    4  A    between atoms: C_4  and  C_6
REMARK    5  A    between atoms: C_6  and  C_7
REMARK    6  A    between atoms: C_10  and  N_11
REMARK    7  A    between atoms: C_16  and  C_17
REMARK    8  A    between atoms: C_17  and  C_18
REMARK                            x       y       z     vdW  Elec       q    Type
REMARK                         _______ _______ _______ _____ _____    ______ ____
ROOT
ATOM      1  N   UNL     1       1.597   8.719  18.398  0.00  0.00    +0.000 N 
ATOM      2  C   UNL     1       1.158   9.198  19.669  0.00  0.00    +0.000 C 
ATOM      3  O   UNL     1       1.541   8.697  20.728  0.00  0.00    +0.000 OA
ATOM      4  N   UNL     1       0.573  10.570  19.607  0.00  0.00    +0.000 N 
ATOM      5  C   UNL     1       1.373  11.386  20.567  0.00  0.00    +0.000 C 
ATOM      6  C   UNL     1       0.910  12.841  20.511  0.00  0.00    +0.000 C 
ATOM      7  O   UNL     1      -0.309  12.893  21.270  0.00  0.00    +0.000 OA
ATOM      8  C   UNL     1      -1.177  11.776  21.040  0.00  0.00    +0.000 A 
ATOM      9  C   UNL     1      -2.457  12.205  21.450  0.00  0.00    +0.000 A 
ATOM     10  C   UNL     1      -3.340  12.489  20.435  0.00  0.00    +0.000 A 
ATOM     11  C   UNL     1      -2.962  12.119  19.140  0.00  0.00    +0.000 A 
ATOM     12  C   UNL     1      -1.801  11.297  18.886  0.00  0.00    +0.000 A 
ATOM     13  C   UNL     1      -0.887  10.959  19.905  0.00  0.00    +0.000 A 
ATOM     14  H   UNL     1       0.988   8.984  17.639  0.00  0.00    +0.000 HD
ENDROOT
BRANCH   1  18
ATOM     15  C   UNL     1       4.497   5.521  17.210  0.00  0.00    +0.000 A 
ATOM     16  C   UNL     1       4.763   6.878  16.961  0.00  0.00    +0.000 A 
ATOM     17  C   UNL     1       3.870   7.961  17.385  0.00  0.00    +0.000 A 
ATOM     18  C   UNL     1       2.641   7.727  18.038  0.00  0.00    +0.000 A 
ATOM     19  C   UNL     1       2.364   6.364  18.239  0.00  0.00    +0.000 A 
ATOM     20  C   UNL     1       3.271   5.293  17.873  0.00  0.00    +0.000 A 
BRANCH  15  21
ATOM     21  C   UNL     1       5.307   4.298  16.697  0.00  0.00    +0.000 C 
BRANCH  21  22
ATOM     22  C   UNL     1       6.721   4.457  16.102  0.00  0.00    +0.000 C 
ATOM     23  O   UNL     1       7.771   4.318  16.710  0.00  0.00    +0.000 OA
BRANCH  22  24
ATOM     24  O   UNL     1       6.637   4.746  14.760  0.00  0.00    +0.000 OA
BRANCH  24  26
ATOM     25  C   UNL     1       6.439   3.674  12.521  0.00  0.00    +0.000 C 
ATOM     26  C   UNL     1       5.823   3.863  13.902  0.00  0.00    +0.000 C 
ENDBRANCH  24  26
ENDBRANCH  22  24
ENDBRANCH  21  22
ENDBRANCH  15  21
ENDBRANCH   1  18
BRANCH   6  27
ATOM     27  C   UNL     1       0.890  13.343  19.040  0.00  0.00    +0.000 C 
ATOM     28  C   UNL     1      -0.009  14.503  18.667  0.00  0.00    +0.000 C 
ENDBRANCH   6  27
TORSDOF 6
ENDMDL
MODEL 6
REMARK VINA RESULT:      -6.8      3.323      9.730
REMARK  Name = 
REMARK  8 active torsions:
REMARK  status: ('A' for Active; 'I' for Inactive)
REMARK    1  A    between atoms: C_1  and  C_2
REMARK    2  A    between atoms: C_2  and  O_3
REMARK    3  A    between atoms: O_3  and  C_4
REMARK    4  A    between atoms: C_4  and  C_6
REMARK    5  A    between atoms: C_6  and  C_7
REMARK    6  A    between atoms: C_10  and  N_11
REMARK    7  A    between atoms: C_16  and  C_17
REMARK    8  A    between atoms: C_17  and  C_18
REMARK                            x       y       z     vdW  Elec       q    Type
REMARK                         _______ _______ _______ _____ _____    ______ ____
ROOT
ATOM      1  N   UNL     1       1.220   8.764  18.177  0.00  0.00    +0.000 N 
ATOM      2  C   UNL     1       2.036   8.106  19.144  0.00  0.00    +0.000 C 
ATOM      3  O   UNL     1       1.998   8.394  20.342  0.00  0.00    +0.000 OA
ATOM      4  N   UNL     1       2.584   6.804  18.660  0.00  0.00    +0.000 N 
ATOM      5  C   UNL     1       2.128   5.788  19.653  0.00  0.00    +0.000 C 
ATOM      6  C   UNL     1       2.563   4.396  19.198  0.00  0.00    +0.000 C 
ATOM      7  O   UNL     1       3.958   4.294  19.526  0.00  0.00    +0.000 OA
ATOM      8  C   UNL     1       4.702   5.486  19.249  0.00  0.00    +0.000 A 
ATOM      9  C   UNL     1       6.050   5.077  19.165  0.00  0.00    +0.000 A 
ATOM     10  C   UNL     1       6.575   5.026  17.896  0.00  0.00    +0.000 A 
ATOM     11  C   UNL     1       5.810   5.585  16.867  0.00  0.00    +0.000 A 
ATOM     12  C   UNL     1       4.621   6.363  17.131  0.00  0.00    +0.000 A 
ATOM     13  C   UNL     1       4.067   6.464  18.423  0.00  0.00    +0.000 A 
ATOM     14  H   UNL     1       1.564   8.671  17.233  0.00  0.00    +0.000 HD
ENDROOT
BRANCH   1  18
ATOM     15  C   UNL     1      -2.351  11.431  18.607  0.00  0.00    +0.000 A 
ATOM     16  C   UNL     1      -1.232  11.566  19.446  0.00  0.00    +0.000 A 
ATOM     17  C   UNL     1      -0.019  10.755  19.303  0.00  0.00    +0.000 A 
ATOM     18  C   UNL     1       0.108   9.734  18.337  0.00  0.00    +0.000 A 
ATOM     19  C   UNL     1      -1.035   9.576  17.535  0.00  0.00    +0.000 A 
ATOM     20  C   UNL     1      -2.215  10.414  17.635  0.00  0.00    +0.000 A 
BRANCH  15  21
ATOM     21  C   UNL     1      -3.722  12.147  18.751  0.00  0.00    +0.000 C 
BRANCH  21  22
ATOM     22  C   UNL     1      -4.940  11.739  17.896  0.00  0.00    +0.000 C 
ATOM     23  O   UNL     1      -5.325  12.308  16.886  0.00  0.00    +0.000 OA
BRANCH  22  24
ATOM     24  O   UNL     1      -5.521  10.606  18.414  0.00  0.00    +0.000 OA
BRANCH  24  26
ATOM     25  C   UNL     1      -7.209  11.504  20.010  0.00  0.00    +0.000 C 
ATOM     26  C   UNL     1      -6.952  10.652  18.773  0.00  0.00    +0.000 C 
ENDBRANCH  24  26
ENDBRANCH  22  24
ENDBRANCH  21  22
ENDBRANCH  15  21
ENDBRANCH   1  18
BRANCH   6  27
ATOM     27  C   UNL     1       2.128   4.153  17.725  0.00  0.00    +0.000 C 
ATOM     28  C   UNL     1       2.837   3.090  16.911  0.00  0.00    +0.000 C 
ENDBRANCH   6  27
TORSDOF 6
ENDMDL
MODEL 7
REMARK VINA RESULT:      -6.7      1.808      2.161
REMARK  Name = 
REMARK  8 active torsions:
REMARK  status: ('A' for Active; 'I' for Inactive)
REMARK    1  A    between atoms: C_1  and  C_2
REMARK    2  A    between atoms: C_2  and  O_3
REMARK    3  A    between atoms: O_3  and  C_4
REMARK    4  A    between atoms: C_4  and  C_6
REMARK    5  A    between atoms: C_6  and  C_7
REMARK    6  A    between atoms: C_10  and  N_11
REMARK    7  A    between atoms: C_16  and  C_17
REMARK    8  A    between atoms: C_17  and  C_18
REMARK                            x       y       z     vdW  Elec       q    Type
REMARK                         _______ _______ _______ _____ _____    ______ ____
ROOT
ATOM      1  N   UNL     1       0.085  10.131  20.581  0.00  0.00    +0.000 N 
ATOM      2  C   UNL     1       0.237  11.429  21.153  0.00  0.00    +0.000 C 
ATOM      3  O   UNL     1       1.317  12.023  21.157  0.00  0.00    +0.000 OA
ATOM      4  N   UNL     1      -1.061  12.144  21.337  0.00  0.00    +0.000 N 
ATOM      5  C   UNL     1      -0.917  13.427  20.589  0.00  0.00    +0.000 C 
ATOM      6  C   UNL     1      -2.234  14.199  20.639  0.00  0.00    +0.000 C 
ATOM      7  O   UNL     1      -2.284  14.804  21.940  0.00  0.00    +0.000 OA
ATOM      8  C   UNL     1      -1.830  13.943  22.992  0.00  0.00    +0.000 A 
ATOM      9  C   UNL     1      -2.379  14.478  24.178  0.00  0.00    +0.000 A 
ATOM     10  C   UNL     1      -3.435  13.777  24.709  0.00  0.00    +0.000 A 
ATOM     11  C   UNL     1      -3.707  12.520  24.160  0.00  0.00    +0.000 A 
ATOM     12  C   UNL     1      -2.809  11.883  23.223  0.00  0.00    +0.000 A 
ATOM     13  C   UNL     1      -1.699  12.557  22.677  0.00  0.00    +0.000 A 
ATOM     14  H   UNL     1      -0.729   9.639  20.916  0.00  0.00    +0.000 HD
ENDROOT
BRANCH   1  18
ATOM     15  C   UNL     1       2.768   7.368  18.296  0.00  0.00    +0.000 A 
ATOM     16  C   UNL     1       2.173   8.484  17.683  0.00  0.00    +0.000 A 
ATOM     17  C   UNL     1       1.337   9.446  18.405  0.00  0.00    +0.000 A 
ATOM     18  C   UNL     1       1.018   9.306  19.773  0.00  0.00    +0.000 A 
ATOM     19  C   UNL     1       1.579   8.162  20.365  0.00  0.00    +0.000 A 
ATOM     20  C   UNL     1       2.454   7.238  19.668  0.00  0.00    +0.000 A 
BRANCH  15  21
ATOM     21  C   UNL     1       3.562   6.228  17.601  0.00  0.00    +0.000 C 
BRANCH  21  22
ATOM     22  C   UNL     1       4.929   6.485  16.935  0.00  0.00    +0.000 C 
ATOM     23  O   UNL     1       5.123   6.622  15.737  0.00  0.00    +0.000 OA
BRANCH  22  24
ATOM     24  O   UNL     1       5.910   6.578  17.893  0.00  0.00    +0.000 OA
BRANCH  24  26
ATOM     25  C   UNL     1       7.457   4.656  17.556  0.00  0.00    +0.000 C 
ATOM     26  C   UNL     1       6.446   5.331  18.473  0.00  0.00    +0.000 C 
ENDBRANCH  24  26
ENDBRANCH  22  24
ENDBRANCH  21  22
ENDBRANCH  15  21
ENDBRANCH   1  18
BRANCH   6  27
ATOM     27  C   UNL     1      -3.411  13.282  20.201  0.00  0.00    +0.000 C 
ATOM     28  C   UNL     1      -4.824  13.652  20.602  0.00  0.00    +0.000 C 
ENDBRANCH   6  27
TORSDOF 6
ENDMDL
MODEL 8
REMARK VINA RESULT:      -6.7      1.671      2.702
REMARK  Name = 
REMARK  8 active torsions:
REMARK  status: ('A' for Active; 'I' for Inactive)
REMARK    1  A    between atoms: C_1  and  C_2
REMARK    2  A    between atoms: C_2  and  O_3
REMARK    3  A    between atoms: O_3  and  C_4
REMARK    4  A    between atoms: C_4  and  C_6
REMARK    5  A    between atoms: C_6  and  C_7
REMARK    6  A    between atoms: C_10  and  N_11
REMARK    7  A    between atoms: C_16  and  C_17
REMARK    8  A    between atoms: C_17  and  C_18
REMARK                            x       y       z     vdW  Elec       q    Type
REMARK                         _______ _______ _______ _____ _____    ______ ____
ROOT
ATOM      1  N   UNL     1       1.153   9.121  19.231  0.00  0.00    +0.000 N 
ATOM      2  C   UNL     1       0.828   9.780  20.454  0.00  0.00    +0.000 C 
ATOM      3  O   UNL     1       1.296   9.424  21.537  0.00  0.00    +0.000 OA
ATOM      4  N   UNL     1       0.249  11.141  20.250  0.00  0.00    +0.000 N 
ATOM      5  C   UNL     1       1.134  12.067  21.016  0.00  0.00    +0.000 C 
ATOM      6  C   UNL     1       0.678  13.508  20.797  0.00  0.00    +0.000 C 
ATOM      7  O   UNL     1      -0.471  13.688  21.640  0.00  0.00    +0.000 OA
ATOM      8  C   UNL     1      -1.364  12.567  21.642  0.00  0.00    +0.000 A 
ATOM      9  C   UNL     1      -2.601  13.072  22.093  0.00  0.00    +0.000 A 
ATOM     10  C   UNL     1      -3.565  13.230  21.126  0.00  0.00    +0.000 A 
ATOM     11  C   UNL     1      -3.302  12.677  19.869  0.00  0.00    +0.000 A 
ATOM     12  C   UNL     1      -2.173  11.805  19.636  0.00  0.00    +0.000 A 
ATOM     13  C   UNL     1      -1.178  11.595  20.612  0.00  0.00    +0.000 A 
ATOM     14  H   UNL     1       0.484   9.289  18.496  0.00  0.00    +0.000 HD
ENDROOT
BRANCH   1  18
ATOM     15  C   UNL     1       3.949   5.719  18.417  0.00  0.00    +0.000 A 
ATOM     16  C   UNL     1       3.861   6.819  17.546  0.00  0.00    +0.000 A 
ATOM     17  C   UNL     1       3.004   7.980  17.803  0.00  0.00    +0.000 A 
ATOM     18  C   UNL     1       2.156   8.069  18.927  0.00  0.00    +0.000 A 
ATOM     19  C   UNL     1       2.217   6.944  19.766  0.00  0.00    +0.000 A 
ATOM     20  C   UNL     1       3.106   5.819  19.546  0.00  0.00    +0.000 A 
BRANCH  15  21
ATOM     21  C   UNL     1       4.723   4.394  18.178  0.00  0.00    +0.000 C 
BRANCH  21  22
ATOM     22  C   UNL     1       4.337   3.090  18.907  0.00  0.00    +0.000 C 
ATOM     23  O   UNL     1       4.877   2.647  19.909  0.00  0.00    +0.000 OA
BRANCH  22  24
ATOM     24  O   UNL     1       3.260   2.505  18.286  0.00  0.00    +0.000 OA
BRANCH  24  26
ATOM     25  C   UNL     1       0.852   2.710  18.888  0.00  0.00    +0.000 C 
ATOM     26  C   UNL     1       2.166   1.977  19.126  0.00  0.00    +0.000 C 
ENDBRANCH  24  26
ENDBRANCH  22  24
ENDBRANCH  21  22
ENDBRANCH  15  21
ENDBRANCH   1  18
BRANCH   6  27
ATOM     27  C   UNL     1       0.536  13.802  19.276  0.00  0.00    +0.000 C 
ATOM     28  C   UNL     1      -0.155  15.074  18.831  0.00  0.00    +0.000 C 
ENDBRANCH   6  27
TORSDOF 6
ENDMDL
MODEL 9
REMARK VINA RESULT:      -6.7      3.081      4.521
REMARK  Name = 
REMARK  8 active torsions:
REMARK  status: ('A' for Active; 'I' for Inactive)
REMARK    1  A    between atoms: C_1  and  C_2
REMARK    2  A    between atoms: C_2  and  O_3
REMARK    3  A    between atoms: O_3  and  C_4
REMARK    4  A    between atoms: C_4  and  C_6
REMARK    5  A    between atoms: C_6  and  C_7
REMARK    6  A    between atoms: C_10  and  N_11
REMARK    7  A    between atoms: C_16  and  C_17
REMARK    8  A    between atoms: C_17  and  C_18
REMARK                            x       y       z     vdW  Elec       q    Type
REMARK                         _______ _______ _______ _____ _____    ______ ____
ROOT
ATOM      1  N   UNL     1       2.448   8.908  18.625  0.00  0.00    +0.000 N 
ATOM      2  C   UNL     1       1.255   9.636  18.340  0.00  0.00    +0.000 C 
ATOM      3  O   UNL     1       0.492   9.316  17.426  0.00  0.00    +0.000 OA
ATOM      4  N   UNL     1       0.815  10.505  19.471  0.00  0.00    +0.000 N 
ATOM      5  C   UNL     1      -0.579  10.074  19.784  0.00  0.00    +0.000 C 
ATOM      6  C   UNL     1      -1.093  10.847  20.998  0.00  0.00    +0.000 C 
ATOM      7  O   UNL     1      -1.458  12.146  20.508  0.00  0.00    +0.000 OA
ATOM      8  C   UNL     1      -0.528  12.687  19.562  0.00  0.00    +0.000 A 
ATOM      9  C   UNL     1      -0.758  14.079  19.562  0.00  0.00    +0.000 A 
ATOM     10  C   UNL     1       0.192  14.836  20.206  0.00  0.00    +0.000 A 
ATOM     11  C   UNL     1       1.370  14.187  20.590  0.00  0.00    +0.000 A 
ATOM     12  C   UNL     1       1.680  12.843  20.159  0.00  0.00    +0.000 A 
ATOM     13  C   UNL     1       0.744  12.044  19.472  0.00  0.00    +0.000 A 
ATOM     14  H   UNL     1       3.122   9.436  19.158  0.00  0.00    +0.000 HD
ENDROOT
BRANCH   1  18
ATOM     15  C   UNL     1       4.292   5.154  17.025  0.00  0.00    +0.000 A 
ATOM     16  C   UNL     1       3.235   5.113  17.950  0.00  0.00    +0.000 A 
ATOM     17  C   UNL     1       2.563   6.314  18.455  0.00  0.00    +0.000 A 
ATOM     18  C   UNL     1       2.956   7.620  18.089  0.00  0.00    +0.000 A 
ATOM     19  C   UNL     1       4.044   7.650  17.201  0.00  0.00    +0.000 A 
ATOM     20  C   UNL     1       4.674   6.463  16.654  0.00  0.00    +0.000 A 
BRANCH  15  21
ATOM     21  C   UNL     1       5.149   3.958  16.526  0.00  0.00    +0.000 C 
BRANCH  21  22
ATOM     22  C   UNL     1       6.327   4.158  15.551  0.00  0.00    +0.000 C 
ATOM     23  O   UNL     1       6.340   3.838  14.373  0.00  0.00    +0.000 OA
BRANCH  22  24
ATOM     24  O   UNL     1       7.365   4.792  16.191  0.00  0.00    +0.000 OA
BRANCH  24  26
ATOM     25  C   UNL     1       7.672   5.663  18.504  0.00  0.00    +0.000 C 
ATOM     26  C   UNL     1       7.644   4.439  17.598  0.00  0.00    +0.000 C 
ENDBRANCH  24  26
ENDBRANCH  22  24
ENDBRANCH  21  22
ENDBRANCH  15  21
ENDBRANCH   1  18
BRANCH   6  27
ATOM     27  C   UNL     1      -0.071  10.754  22.166  0.00  0.00    +0.000 C 
ATOM     28  C   UNL     1      -0.135   9.573  23.112  0.00  0.00    +0.000 C 
ENDBRANCH   6  27
TORSDOF 6
ENDMDL
