MODEL 1
REMARK VINA RESULT:      -7.6      0.000      0.000
REMARK  Name = 
REMARK  12 active torsions:
REMARK  status: ('A' for Active; 'I' for Inactive)
REMARK    1  A    between atoms: C_1  and  N_2
REMARK    2  A    between atoms: N_2  and  N_3
REMARK    3  A    between atoms: N_2  and  C_21
REMARK    4  A    between atoms: C_4  and  C_6
REMARK    5  A    between atoms: C_6  and  C_7
REMARK    6  A    between atoms: N_9  and  N_10
REMARK    7  A    between atoms: N_10  and  C_11
REMARK    8  A    between atoms: N_10  and  C_12
REMARK    9  A    between atoms: C_12  and  C_14
REMARK   10  A    between atoms: C_17  and  N_18
REMARK   11  A    between atoms: C_21  and  C_23
REMARK   12  A    between atoms: C_26  and  N_27
REMARK                            x       y       z     vdW  Elec       q    Type
REMARK                         _______ _______ _______ _____ _____    ______ ____
ROOT
ATOM      1  C   UNL     1       2.572   7.572  17.905  0.00  0.00    +0.000 C 
ENDROOT
BRANCH   1   3
ATOM      2  N   UNL     1       1.751   9.894  18.266  0.00  0.00    +0.000 N 
ATOM      3  C   UNL     1       2.012   8.653  18.830  0.00  0.00    +0.000 C 
ATOM      4  O   UNL     1       1.855   8.393  20.022  0.00  0.00    +0.000 OA
ATOM      5  H   UNL     1       1.784   9.989  17.248  0.00  0.00    +0.000 HD
BRANCH   2   7
ATOM      6  C   UNL     1       1.743  12.277  18.794  0.00  0.00    +0.000 C 
ATOM      7  N   UNL     1       1.127  10.961  18.986  0.00  0.00    +0.000 N 
BRANCH   7   8
ATOM      8  C   UNL     1      -0.156  10.793  19.546  0.00  0.00    +0.000 C 
ATOM      9  S   UNL     1      -0.369  10.517  21.212  0.00  0.00    +0.000 S 
BRANCH   8  10
ATOM     10  C   UNL     1      -1.342  10.699  18.610  0.00  0.00    +0.000 A 
ATOM     11  C   UNL     1      -2.429  11.572  18.750  0.00  0.00    +0.000 A 
ATOM     12  C   UNL     1      -3.454  11.604  17.790  0.00  0.00    +0.000 A 
ATOM     13  C   UNL     1      -3.383  10.821  16.636  0.00  0.00    +0.000 A 
ATOM     14  C   UNL     1      -2.330   9.915  16.517  0.00  0.00    +0.000 A 
ATOM     15  C   UNL     1      -1.315   9.861  17.481  0.00  0.00    +0.000 A 
BRANCH  13  16
ATOM     16  N   UNL     1      -4.448  10.783  15.735  0.00  0.00    +0.000 N 
ATOM     17  H   UNL     1      -5.354  10.977  16.155  0.00  0.00    +0.000 HD
ATOM     18  H   UNL     1      -4.297  11.344  14.897  0.00  0.00    +0.000 HD
ENDBRANCH  13  16
ENDBRANCH   8  10
ENDBRANCH   7   8
ENDBRANCH   2   7
ENDBRANCH   1   3
BRANCH   1  19
ATOM     19  C   UNL     1       2.370   6.130  18.303  0.00  0.00    +0.000 C 
ATOM     20  O   UNL     1       1.563   5.405  17.724  0.00  0.00    +0.000 OA
ATOM     21  N   UNL     1       3.142   5.718  19.388  0.00  0.00    +0.000 N 
ATOM     22  H   UNL     1       4.013   6.205  19.608  0.00  0.00    +0.000 HD
BRANCH  21  23
ATOM     23  N   UNL     1       3.137   4.335  19.770  0.00  0.00    +0.000 N 
ATOM     24  C   UNL     1       2.314   4.060  20.948  0.00  0.00    +0.000 C 
BRANCH  23  25
ATOM     25  C   UNL     1       4.193   3.490  19.374  0.00  0.00    +0.000 C 
ATOM     26  S   UNL     1       4.542   2.047  20.187  0.00  0.00    +0.000 S 
BRANCH  25  27
ATOM     27  C   UNL     1       5.038   3.962  18.215  0.00  0.00    +0.000 A 
ATOM     28  C   UNL     1       6.247   4.615  18.483  0.00  0.00    +0.000 A 
ATOM     29  C   UNL     1       7.068   5.067  17.438  0.00  0.00    +0.000 A 
ATOM     30  C   UNL     1       6.737   4.813  16.110  0.00  0.00    +0.000 A 
ATOM     31  C   UNL     1       5.517   4.189  15.836  0.00  0.00    +0.000 A 
ATOM     32  C   UNL     1       4.680   3.751  16.876  0.00  0.00    +0.000 A 
BRANCH  30  33
ATOM     33  N   UNL     1       7.499   5.373  15.078  0.00  0.00    +0.000 N 
ATOM     34  H   UNL     1       7.226   6.319  14.826  0.00  0.00    +0.000 HD
ATOM     35  H   UNL     1       8.502   5.287  15.207  0.00  0.00    +0.000 HD
ENDBRANCH  30  33
ENDBRANCH  25  27
ENDBRANCH  23  25
ENDBRANCH  21  23
ENDBRANCH   1  19
TORSDOF 10
ENDMDL
MODEL 2
REMARK VINA RESULT:      -7.6      1.374      9.183
REMARK  Name = 
REMARK  12 active torsions:
REMARK  status: ('A' for Active; 'I' for Inactive)
REMARK    1  A    between atoms: C_1  and  N_2
REMARK    2  A    between atoms: N_2  and  N_3
REMARK    3  A    between atoms: N_2  and  C_21
REMARK    4  A    between atoms: C_4  and  C_6
REMARK    5  A    between atoms: C_6  and  C_7
REMARK    6  A    between atoms: N_9  and  N_10
REMARK    7  A    between atoms: N_10  and  C_11
REMARK    8  A    between atoms: N_10  and  C_12
REMARK    9  A    between atoms: C_12  and  C_14
REMARK   10  A    between atoms: C_17  and  N_18
REMARK   11  A    between atoms: C_21  and  C_23
REMARK   12  A    between atoms: C_26  and  N_27
REMARK                            x       y       z     vdW  Elec       q    Type
REMARK                         _______ _______ _______ _____ _____    ______ ____
ROOT
ATOM      1  C   UNL     1       2.044   7.950  17.610  0.00  0.00    +0.000 C 
ENDROOT
BRANCH   1   3
ATOM      2  N   UNL     1       2.217   5.515  18.096  0.00  0.00    +0.000 N 
ATOM      3  C   UNL     1       2.304   6.809  18.593  0.00  0.00    +0.000 C 
ATOM      4  O   UNL     1       2.537   7.079  19.770  0.00  0.00    +0.000 OA
ATOM      5  H   UNL     1       2.149   5.380  17.085  0.00  0.00    +0.000 HD
BRANCH   2   7
ATOM      6  C   UNL     1       1.398   3.726  19.540  0.00  0.00    +0.000 C 
ATOM      7  N   UNL     1       2.540   4.359  18.874  0.00  0.00    +0.000 N 
BRANCH   7   8
ATOM      8  C   UNL     1       3.787   3.719  18.723  0.00  0.00    +0.000 C 
ATOM      9  S   UNL     1       4.289   2.488  19.786  0.00  0.00    +0.000 S 
BRANCH   8  10
ATOM     10  C   UNL     1       4.752   4.259  17.689  0.00  0.00    +0.000 A 
ATOM     11  C   UNL     1       5.908   4.943  18.086  0.00  0.00    +0.000 A 
ATOM     12  C   UNL     1       6.889   5.301  17.147  0.00  0.00    +0.000 A 
ATOM     13  C   UNL     1       6.776   4.923  15.808  0.00  0.00    +0.000 A 
ATOM     14  C   UNL     1       5.605   4.286  15.399  0.00  0.00    +0.000 A 
ATOM     15  C   UNL     1       4.610   3.946  16.326  0.00  0.00    +0.000 A 
BRANCH  13  16
ATOM     16  N   UNL     1       7.702   5.363  14.862  0.00  0.00    +0.000 N 
ATOM     17  H   UNL     1       8.672   5.256  15.151  0.00  0.00    +0.000 HD
ATOM     18  H   UNL     1       7.547   4.986  13.928  0.00  0.00    +0.000 HD
ENDBRANCH  13  16
ENDBRANCH   8  10
ENDBRANCH   7   8
ENDBRANCH   2   7
ENDBRANCH   1   3
BRANCH   1  19
ATOM     19  C   UNL     1       1.892   9.343  18.171  0.00  0.00    +0.000 C 
ATOM     20  O   UNL     1       2.513  10.299  17.711  0.00  0.00    +0.000 OA
ATOM     21  N   UNL     1       1.027   9.434  19.261  0.00  0.00    +0.000 N 
ATOM     22  H   UNL     1       0.293   8.735  19.388  0.00  0.00    +0.000 HD
BRANCH  21  23
ATOM     23  N   UNL     1       0.698  10.726  19.792  0.00  0.00    +0.000 N 
ATOM     24  C   UNL     1       0.598  10.746  21.251  0.00  0.00    +0.000 C 
BRANCH  23  25
ATOM     25  C   UNL     1       0.054  11.680  18.978  0.00  0.00    +0.000 C 
ATOM     26  S   UNL     1       0.813  13.118  18.510  0.00  0.00    +0.000 S 
BRANCH  25  27
ATOM     27  C   UNL     1      -1.373  11.380  18.586  0.00  0.00    +0.000 A 
ATOM     28  C   UNL     1      -2.405  12.123  19.173  0.00  0.00    +0.000 A 
ATOM     29  C   UNL     1      -3.745  11.883  18.835  0.00  0.00    +0.000 A 
ATOM     30  C   UNL     1      -4.080  10.953  17.855  0.00  0.00    +0.000 A 
ATOM     31  C   UNL     1      -3.057  10.189  17.287  0.00  0.00    +0.000 A 
ATOM     32  C   UNL     1      -1.713  10.408  17.635  0.00  0.00    +0.000 A 
BRANCH  30  33
ATOM     33  N   UNL     1      -5.422  10.639  17.614  0.00  0.00    +0.000 N 
ATOM     34  H   UNL     1      -5.954  10.424  18.453  0.00  0.00    +0.000 HD
ATOM     35  H   UNL     1      -5.905  11.300  17.016  0.00  0.00    +0.000 HD
ENDBRANCH  30  33
ENDBRANCH  25  27
ENDBRANCH  23  25
ENDBRANCH  21  23
ENDBRANCH   1  19
TORSDOF 10
ENDMDL
MODEL 3
REMARK VINA RESULT:      -7.5      0.646      9.230
REMARK  Name = 
REMARK  12 active torsions:
REMARK  status: ('A' for Active; 'I' for Inactive)
REMARK    1  A    between atoms: C_1  and  N_2
REMARK    2  A    between atoms: N_2  and  N_3
REMARK    3  A    between atoms: N_2  and  C_21
REMARK    4  A    between atoms: C_4  and  C_6
REMARK    5  A    between atoms: C_6  and  C_7
REMARK    6  A    between atoms: N_9  and  N_10
REMARK    7  A    between atoms: N_10  and  C_11
REMARK    8  A    between atoms: N_10  and  C_12
REMARK    9  A    between atoms: C_12  and  C_14
REMARK   10  A    between atoms: C_17  and  N_18
REMARK   11  A    between atoms: C_21  and  C_23
REMARK   12  A    between atoms: C_26  and  N_27
REMARK                            x       y       z     vdW  Elec       q    Type
REMARK                         _______ _______ _______ _____ _____    ______ ____
ROOT
ATOM      1  C   UNL     1       2.279   8.046  17.849  0.00  0.00    +0.000 C 
ENDROOT
BRANCH   1   3
ATOM      2  N   UNL     1       3.277   6.275  19.285  0.00  0.00    +0.000 N 
ATOM      3  C   UNL     1       2.379   6.580  18.272  0.00  0.00    +0.000 C 
ATOM      4  O   UNL     1       1.700   5.743  17.680  0.00  0.00    +0.000 OA
ATOM      5  H   UNL     1       3.704   7.041  19.811  0.00  0.00    +0.000 HD
BRANCH   2   7
ATOM      6  C   UNL     1       2.401   4.651  20.883  0.00  0.00    +0.000 C 
ATOM      7  N   UNL     1       3.395   4.967  19.853  0.00  0.00    +0.000 N 
BRANCH   7   8
ATOM      8  C   UNL     1       4.184   3.982  19.226  0.00  0.00    +0.000 C 
ATOM      9  S   UNL     1       4.312   2.408  19.862  0.00  0.00    +0.000 S 
BRANCH   8  10
ATOM     10  C   UNL     1       5.054   4.394  18.057  0.00  0.00    +0.000 A 
ATOM     11  C   UNL     1       6.354   4.868  18.272  0.00  0.00    +0.000 A 
ATOM     12  C   UNL     1       7.225   5.094  17.193  0.00  0.00    +0.000 A 
ATOM     13  C   UNL     1       6.845   4.785  15.887  0.00  0.00    +0.000 A 
ATOM     14  C   UNL     1       5.537   4.360  15.662  0.00  0.00    +0.000 A 
ATOM     15  C   UNL     1       4.655   4.153  16.731  0.00  0.00    +0.000 A 
BRANCH  13  16
ATOM     16  N   UNL     1       7.675   5.101  14.810  0.00  0.00    +0.000 N 
ATOM     17  H   UNL     1       7.223   5.022  13.901  0.00  0.00    +0.000 HD
ATOM     18  H   UNL     1       8.157   5.993  14.910  0.00  0.00    +0.000 HD
ENDBRANCH  13  16
ENDBRANCH   8  10
ENDBRANCH   7   8
ENDBRANCH   2   7
ENDBRANCH   1   3
BRANCH   1  19
ATOM     19  C   UNL     1       1.647   9.017  18.816  0.00  0.00    +0.000 C 
ATOM     20  O   UNL     1       1.531   8.757  20.013  0.00  0.00    +0.000 OA
ATOM     21  N   UNL     1       1.184  10.194  18.230  0.00  0.00    +0.000 N 
ATOM     22  H   UNL     1       1.591  10.520  17.351  0.00  0.00    +0.000 HD
BRANCH  21  23
ATOM     23  N   UNL     1       0.688  11.249  19.068  0.00  0.00    +0.000 N 
ATOM     24  C   UNL     1       1.727  12.183  19.502  0.00  0.00    +0.000 C 
BRANCH  23  25
ATOM     25  C   UNL     1      -0.518  11.078  19.776  0.00  0.00    +0.000 C 
ATOM     26  S   UNL     1      -0.547  10.818  21.448  0.00  0.00    +0.000 S 
BRANCH  25  27
ATOM     27  C   UNL     1      -1.788  11.085  18.960  0.00  0.00    +0.000 A 
ATOM     28  C   UNL     1      -2.791  12.008  19.280  0.00  0.00    +0.000 A 
ATOM     29  C   UNL     1      -3.986  12.055  18.546  0.00  0.00    +0.000 A 
ATOM     30  C   UNL     1      -4.176  11.235  17.436  0.00  0.00    +0.000 A 
ATOM     31  C   UNL     1      -3.190  10.292  17.131  0.00  0.00    +0.000 A 
ATOM     32  C   UNL     1      -2.000  10.225  17.873  0.00  0.00    +0.000 A 
BRANCH  30  33
ATOM     33  N   UNL     1      -5.416  11.207  16.788  0.00  0.00    +0.000 N 
ATOM     34  H   UNL     1      -5.390  10.793  15.861  0.00  0.00    +0.000 HD
ATOM     35  H   UNL     1      -6.172  10.833  17.352  0.00  0.00    +0.000 HD
ENDBRANCH  30  33
ENDBRANCH  25  27
ENDBRANCH  23  25
ENDBRANCH  21  23
ENDBRANCH   1  19
TORSDOF 10
ENDMDL
MODEL 4
REMARK VINA RESULT:      -7.5      1.356      1.800
REMARK  Name = 
REMARK  12 active torsions:
REMARK  status: ('A' for Active; 'I' for Inactive)
REMARK    1  A    between atoms: C_1  and  N_2
REMARK    2  A    between atoms: N_2  and  N_3
REMARK    3  A    between atoms: N_2  and  C_21
REMARK    4  A    between atoms: C_4  and  C_6
REMARK    5  A    between atoms: C_6  and  C_7
REMARK    6  A    between atoms: N_9  and  N_10
REMARK    7  A    between atoms: N_10  and  C_11
REMARK    8  A    between atoms: N_10  and  C_12
REMARK    9  A    between atoms: C_12  and  C_14
REMARK   10  A    between atoms: C_17  and  N_18
REMARK   11  A    between atoms: C_21  and  C_23
REMARK   12  A    between atoms: C_26  and  N_27
REMARK                            x       y       z     vdW  Elec       q    Type
REMARK                         _______ _______ _______ _____ _____    ______ ____
ROOT
ATOM      1  C   UNL     1       1.664   7.347  21.085  0.00  0.00    +0.000 C 
ENDROOT
BRANCH   1   3
ATOM      2  N   UNL     1       0.973   9.482  20.009  0.00  0.00    +0.000 N 
ATOM      3  C   UNL     1       1.444   8.858  21.156  0.00  0.00    +0.000 C 
ATOM      4  O   UNL     1       1.726   9.452  22.195  0.00  0.00    +0.000 OA
ATOM      5  H   UNL     1       0.641   8.903  19.234  0.00  0.00    +0.000 HD
BRANCH   2   7
ATOM      6  C   UNL     1       1.537  11.712  19.193  0.00  0.00    +0.000 C 
ATOM      7  N   UNL     1       0.621  10.868  19.965  0.00  0.00    +0.000 N 
BRANCH   7   8
ATOM      8  C   UNL     1      -0.667  11.293  20.351  0.00  0.00    +0.000 C 
ATOM      9  S   UNL     1      -1.057  11.578  21.983  0.00  0.00    +0.000 S 
BRANCH   8  10
ATOM     10  C   UNL     1      -1.755  11.336  19.299  0.00  0.00    +0.000 A 
ATOM     11  C   UNL     1      -1.712  10.472  18.197  0.00  0.00    +0.000 A 
ATOM     12  C   UNL     1      -2.796  10.387  17.307  0.00  0.00    +0.000 A 
ATOM     13  C   UNL     1      -3.971  11.104  17.536  0.00  0.00    +0.000 A 
ATOM     14  C   UNL     1      -4.001  12.001  18.602  0.00  0.00    +0.000 A 
ATOM     15  C   UNL     1      -2.915  12.109  19.481  0.00  0.00    +0.000 A 
BRANCH  13  16
ATOM     16  N   UNL     1      -5.006  11.092  16.600  0.00  0.00    +0.000 N 
ATOM     17  H   UNL     1      -4.795  10.564  15.755  0.00  0.00    +0.000 HD
ATOM     18  H   UNL     1      -5.910  10.827  16.990  0.00  0.00    +0.000 HD
ENDBRANCH  13  16
ENDBRANCH   8  10
ENDBRANCH   7   8
ENDBRANCH   2   7
ENDBRANCH   1   3
BRANCH   1  19
ATOM     19  C   UNL     1       2.130   6.763  19.774  0.00  0.00    +0.000 C 
ATOM     20  O   UNL     1       2.570   7.471  18.868  0.00  0.00    +0.000 OA
ATOM     21  N   UNL     1       1.985   5.380  19.675  0.00  0.00    +0.000 N 
ATOM     22  H   UNL     1       1.955   4.810  20.522  0.00  0.00    +0.000 HD
BRANCH  21  23
ATOM     23  N   UNL     1       2.518   4.697  18.531  0.00  0.00    +0.000 N 
ATOM     24  C   UNL     1       1.499   4.323  17.550  0.00  0.00    +0.000 C 
BRANCH  23  25
ATOM     25  C   UNL     1       3.759   4.033  18.622  0.00  0.00    +0.000 C 
ATOM     26  S   UNL     1       4.097   2.928  19.858  0.00  0.00    +0.000 S 
BRANCH  25  27
ATOM     27  C   UNL     1       4.796   4.396  17.587  0.00  0.00    +0.000 A 
ATOM     28  C   UNL     1       5.626   5.499  17.822  0.00  0.00    +0.000 A 
ATOM     29  C   UNL     1       6.608   5.870  16.891  0.00  0.00    +0.000 A 
ATOM     30  C   UNL     1       6.832   5.110  15.746  0.00  0.00    +0.000 A 
ATOM     31  C   UNL     1       5.987   4.026  15.493  0.00  0.00    +0.000 A 
ATOM     32  C   UNL     1       4.988   3.659  16.409  0.00  0.00    +0.000 A 
BRANCH  30  33
ATOM     33  N   UNL     1       7.729   5.559  14.770  0.00  0.00    +0.000 N 
ATOM     34  H   UNL     1       8.651   5.792  15.130  0.00  0.00    +0.000 HD
ATOM     35  H   UNL     1       7.779   4.969  13.946  0.00  0.00    +0.000 HD
ENDBRANCH  30  33
ENDBRANCH  25  27
ENDBRANCH  23  25
ENDBRANCH  21  23
ENDBRANCH   1  19
TORSDOF 10
ENDMDL
MODEL 5
REMARK VINA RESULT:      -7.4      1.581      1.850
REMARK  Name = 
REMARK  12 active torsions:
REMARK  status: ('A' for Active; 'I' for Inactive)
REMARK    1  A    between atoms: C_1  and  N_2
REMARK    2  A    between atoms: N_2  and  N_3
REMARK    3  A    between atoms: N_2  and  C_21
REMARK    4  A    between atoms: C_4  and  C_6
REMARK    5  A    between atoms: C_6  and  C_7
REMARK    6  A    between atoms: N_9  and  N_10
REMARK    7  A    between atoms: N_10  and  C_11
REMARK    8  A    between atoms: N_10  and  C_12
REMARK    9  A    between atoms: C_12  and  C_14
REMARK   10  A    between atoms: C_17  and  N_18
REMARK   11  A    between atoms: C_21  and  C_23
REMARK   12  A    between atoms: C_26  and  N_27
REMARK                            x       y       z     vdW  Elec       q    Type
REMARK                         _______ _______ _______ _____ _____    ______ ____
ROOT
ATOM      1  C   UNL     1       1.779   7.417  21.163  0.00  0.00    +0.000 C 
ENDROOT
BRANCH   1   3
ATOM      2  N   UNL     1       1.058   9.780  20.864  0.00  0.00    +0.000 N 
ATOM      3  C   UNL     1       0.683   8.482  21.183  0.00  0.00    +0.000 C 
ATOM      4  O   UNL     1      -0.456   8.157  21.513  0.00  0.00    +0.000 OA
ATOM      5  H   UNL     1       1.990   9.942  20.476  0.00  0.00    +0.000 HD
BRANCH   2   7
ATOM      6  C   UNL     1      -0.285  11.467  22.007  0.00  0.00    +0.000 C 
ATOM      7  N   UNL     1       0.120  10.853  20.739  0.00  0.00    +0.000 N 
BRANCH   7   8
ATOM      8  C   UNL     1      -0.113  11.460  19.488  0.00  0.00    +0.000 C 
ATOM      9  S   UNL     1       0.991  12.569  18.819  0.00  0.00    +0.000 S 
BRANCH   8  10
ATOM     10  C   UNL     1      -1.450  11.232  18.817  0.00  0.00    +0.000 A 
ATOM     11  C   UNL     1      -2.569  11.988  19.188  0.00  0.00    +0.000 A 
ATOM     12  C   UNL     1      -3.768  11.902  18.461  0.00  0.00    +0.000 A 
ATOM     13  C   UNL     1      -3.856  11.121  17.309  0.00  0.00    +0.000 A 
ATOM     14  C   UNL     1      -2.762  10.329  16.963  0.00  0.00    +0.000 A 
ATOM     15  C   UNL     1      -1.570  10.391  17.697  0.00  0.00    +0.000 A 
BRANCH  13  16
ATOM     16  N   UNL     1      -5.074  10.962  16.646  0.00  0.00    +0.000 N 
ATOM     17  H   UNL     1      -5.889  11.049  17.250  0.00  0.00    +0.000 HD
ATOM     18  H   UNL     1      -5.165  11.539  15.811  0.00  0.00    +0.000 HD
ENDBRANCH  13  16
ENDBRANCH   8  10
ENDBRANCH   7   8
ENDBRANCH   2   7
ENDBRANCH   1   3
BRANCH   1  19
ATOM     19  C   UNL     1       2.155   6.818  19.829  0.00  0.00    +0.000 C 
ATOM     20  O   UNL     1       2.454   7.520  18.864  0.00  0.00    +0.000 OA
ATOM     21  N   UNL     1       2.097   5.426  19.785  0.00  0.00    +0.000 N 
ATOM     22  H   UNL     1       2.189   4.885  20.647  0.00  0.00    +0.000 HD
BRANCH  21  23
ATOM     23  N   UNL     1       2.563   4.739  18.615  0.00  0.00    +0.000 N 
ATOM     24  C   UNL     1       1.495   4.411  17.670  0.00  0.00    +0.000 C 
BRANCH  23  25
ATOM     25  C   UNL     1       3.783   4.033  18.650  0.00  0.00    +0.000 C 
ATOM     26  S   UNL     1       4.122   2.888  19.849  0.00  0.00    +0.000 S 
BRANCH  25  27
ATOM     27  C   UNL     1       4.799   4.387  17.592  0.00  0.00    +0.000 A 
ATOM     28  C   UNL     1       5.715   5.413  17.852  0.00  0.00    +0.000 A 
ATOM     29  C   UNL     1       6.681   5.773  16.900  0.00  0.00    +0.000 A 
ATOM     30  C   UNL     1       6.801   5.072  15.703  0.00  0.00    +0.000 A 
ATOM     31  C   UNL     1       5.871   4.067  15.426  0.00  0.00    +0.000 A 
ATOM     32  C   UNL     1       4.888   3.713  16.365  0.00  0.00    +0.000 A 
BRANCH  30  33
ATOM     33  N   UNL     1       7.687   5.517  14.715  0.00  0.00    +0.000 N 
ATOM     34  H   UNL     1       8.129   6.408  14.925  0.00  0.00    +0.000 HD
ATOM     35  H   UNL     1       8.358   4.820  14.412  0.00  0.00    +0.000 HD
ENDBRANCH  30  33
ENDBRANCH  25  27
ENDBRANCH  23  25
ENDBRANCH  21  23
ENDBRANCH   1  19
TORSDOF 10
ENDMDL
MODEL 6
REMARK VINA RESULT:      -7.4      1.345      1.968
REMARK  Name = 
REMARK  12 active torsions:
REMARK  status: ('A' for Active; 'I' for Inactive)
REMARK    1  A    between atoms: C_1  and  N_2
REMARK    2  A    between atoms: N_2  and  N_3
REMARK    3  A    between atoms: N_2  and  C_21
REMARK    4  A    between atoms: C_4  and  C_6
REMARK    5  A    between atoms: C_6  and  C_7
REMARK    6  A    between atoms: N_9  and  N_10
REMARK    7  A    between atoms: N_10  and  C_11
REMARK    8  A    between atoms: N_10  and  C_12
REMARK    9  A    between atoms: C_12  and  C_14
REMARK   10  A    between atoms: C_17  and  N_18
REMARK   11  A    between atoms: C_21  and  C_23
REMARK   12  A    between atoms: C_26  and  N_27
REMARK                            x       y       z     vdW  Elec       q    Type
REMARK                         _______ _______ _______ _____ _____    ______ ____
ROOT
ATOM      1  C   UNL     1       1.485   7.425  21.171  0.00  0.00    +0.000 C 
ENDROOT
BRANCH   1   3
ATOM      2  N   UNL     1       0.800   9.580  20.130  0.00  0.00    +0.000 N 
ATOM      3  C   UNL     1       1.295   8.940  21.258  0.00  0.00    +0.000 C 
ATOM      4  O   UNL     1       1.619   9.521  22.292  0.00  0.00    +0.000 OA
ATOM      5  H   UNL     1       0.434   9.012  19.362  0.00  0.00    +0.000 HD
BRANCH   2   7
ATOM      6  C   UNL     1       1.555  11.852  19.658  0.00  0.00    +0.000 C 
ATOM      7  N   UNL     1       0.472  10.972  20.106  0.00  0.00    +0.000 N 
BRANCH   7   8
ATOM      8  C   UNL     1      -0.871  11.393  20.185  0.00  0.00    +0.000 C 
ATOM      9  S   UNL     1      -1.568  11.871  21.662  0.00  0.00    +0.000 S 
BRANCH   8  10
ATOM     10  C   UNL     1      -1.741  11.258  18.953  0.00  0.00    +0.000 A 
ATOM     11  C   UNL     1      -1.364  10.405  17.907  0.00  0.00    +0.000 A 
ATOM     12  C   UNL     1      -2.239  10.146  16.840  0.00  0.00    +0.000 A 
ATOM     13  C   UNL     1      -3.532  10.669  16.827  0.00  0.00    +0.000 A 
ATOM     14  C   UNL     1      -3.895  11.557  17.839  0.00  0.00    +0.000 A 
ATOM     15  C   UNL     1      -3.019  11.839  18.895  0.00  0.00    +0.000 A 
BRANCH  13  16
ATOM     16  N   UNL     1      -4.363  10.489  15.720  0.00  0.00    +0.000 N 
ATOM     17  H   UNL     1      -5.356  10.556  15.933  0.00  0.00    +0.000 HD
ATOM     18  H   UNL     1      -4.113  11.068  14.920  0.00  0.00    +0.000 HD
ENDBRANCH  13  16
ENDBRANCH   8  10
ENDBRANCH   7   8
ENDBRANCH   2   7
ENDBRANCH   1   3
BRANCH   1  19
ATOM     19  C   UNL     1       1.990   6.852  19.869  0.00  0.00    +0.000 C 
ATOM     20  O   UNL     1       2.399   7.571  18.958  0.00  0.00    +0.000 OA
ATOM     21  N   UNL     1       1.918   5.462  19.785  0.00  0.00    +0.000 N 
ATOM     22  H   UNL     1       1.912   4.900  20.638  0.00  0.00    +0.000 HD
BRANCH  21  23
ATOM     23  N   UNL     1       2.494   4.795  18.652  0.00  0.00    +0.000 N 
ATOM     24  C   UNL     1       1.508   4.406  17.644  0.00  0.00    +0.000 C 
BRANCH  23  25
ATOM     25  C   UNL     1       3.744   4.155  18.772  0.00  0.00    +0.000 C 
ATOM     26  S   UNL     1       4.079   3.068  20.025  0.00  0.00    +0.000 S 
BRANCH  25  27
ATOM     27  C   UNL     1       4.794   4.528  17.753  0.00  0.00    +0.000 A 
ATOM     28  C   UNL     1       4.903   3.764  16.585  0.00  0.00    +0.000 A 
ATOM     29  C   UNL     1       5.861   4.077  15.608  0.00  0.00    +0.000 A 
ATOM     30  C   UNL     1       6.678   5.196  15.741  0.00  0.00    +0.000 A 
ATOM     31  C   UNL     1       6.593   5.944  16.918  0.00  0.00    +0.000 A 
ATOM     32  C   UNL     1       5.651   5.627  17.911  0.00  0.00    +0.000 A 
BRANCH  30  33
ATOM     33  N   UNL     1       7.707   5.427  14.821  0.00  0.00    +0.000 N 
ATOM     34  H   UNL     1       8.420   4.703  14.806  0.00  0.00    +0.000 HD
ATOM     35  H   UNL     1       7.387   5.666  13.889  0.00  0.00    +0.000 HD
ENDBRANCH  30  33
ENDBRANCH  25  27
ENDBRANCH  23  25
ENDBRANCH  21  23
ENDBRANCH   1  19
TORSDOF 10
ENDMDL
MODEL 7
REMARK VINA RESULT:      -7.2      1.875      2.871
REMARK  Name = 
REMARK  12 active torsions:
REMARK  status: ('A' for Active; 'I' for Inactive)
REMARK    1  A    between atoms: C_1  and  N_2
REMARK    2  A    between atoms: N_2  and  N_3
REMARK    3  A    between atoms: N_2  and  C_21
REMARK    4  A    between atoms: C_4  and  C_6
REMARK    5  A    between atoms: C_6  and  C_7
REMARK    6  A    between atoms: N_9  and  N_10
REMARK    7  A    between atoms: N_10  and  C_11
REMARK    8  A    between atoms: N_10  and  C_12
REMARK    9  A    between atoms: C_12  and  C_14
REMARK   10  A    between atoms: C_17  and  N_18
REMARK   11  A    between atoms: C_21  and  C_23
REMARK   12  A    between atoms: C_26  and  N_27
REMARK                            x       y       z     vdW  Elec       q    Type
REMARK                         _______ _______ _______ _____ _____    ______ ____
ROOT
ATOM      1  C   UNL     1       2.694   7.671  17.877  0.00  0.00    +0.000 C 
ENDROOT
BRANCH   1   3
ATOM      2  N   UNL     1       1.646   9.923  18.017  0.00  0.00    +0.000 N 
ATOM      3  C   UNL     1       1.925   8.729  18.667  0.00  0.00    +0.000 C 
ATOM      4  O   UNL     1       1.625   8.496  19.837  0.00  0.00    +0.000 OA
ATOM      5  H   UNL     1       1.813   9.987  17.011  0.00  0.00    +0.000 HD
BRANCH   2   7
ATOM      6  C   UNL     1       1.479  12.275  18.648  0.00  0.00    +0.000 C 
ATOM      7  N   UNL     1       0.843  10.956  18.597  0.00  0.00    +0.000 N 
BRANCH   7   8
ATOM      8  C   UNL     1      -0.542  10.768  18.782  0.00  0.00    +0.000 C 
ATOM      9  S   UNL     1      -1.533  10.176  17.531  0.00  0.00    +0.000 S 
BRANCH   8  10
ATOM     10  C   UNL     1      -1.169  11.260  20.069  0.00  0.00    +0.000 A 
ATOM     11  C   UNL     1      -0.648  10.866  21.308  0.00  0.00    +0.000 A 
ATOM     12  C   UNL     1      -1.115  11.445  22.501  0.00  0.00    +0.000 A 
ATOM     13  C   UNL     1      -2.054  12.477  22.480  0.00  0.00    +0.000 A 
ATOM     14  C   UNL     1      -2.611  12.837  21.254  0.00  0.00    +0.000 A 
ATOM     15  C   UNL     1      -2.168  12.249  20.062  0.00  0.00    +0.000 A 
BRANCH  13  16
ATOM     16  N   UNL     1      -2.585  12.981  23.668  0.00  0.00    +0.000 N 
ATOM     17  H   UNL     1      -2.278  13.925  23.891  0.00  0.00    +0.000 HD
ATOM     18  H   UNL     1      -3.598  12.891  23.735  0.00  0.00    +0.000 HD
ENDBRANCH  13  16
ENDBRANCH   8  10
ENDBRANCH   7   8
ENDBRANCH   2   7
ENDBRANCH   1   3
BRANCH   1  19
ATOM     19  C   UNL     1       2.413   6.219  18.182  0.00  0.00    +0.000 C 
ATOM     20  O   UNL     1       1.493   5.609  17.640  0.00  0.00    +0.000 OA
ATOM     21  N   UNL     1       3.254   5.659  19.143  0.00  0.00    +0.000 N 
ATOM     22  H   UNL     1       4.180   6.059  19.304  0.00  0.00    +0.000 HD
BRANCH  21  23
ATOM     23  N   UNL     1       3.171   4.253  19.417  0.00  0.00    +0.000 N 
ATOM     24  C   UNL     1       2.785   3.951  20.795  0.00  0.00    +0.000 C 
BRANCH  23  25
ATOM     25  C   UNL     1       3.875   3.335  18.611  0.00  0.00    +0.000 C 
ATOM     26  S   UNL     1       3.631   1.665  18.731  0.00  0.00    +0.000 S 
BRANCH  25  27
ATOM     27  C   UNL     1       4.904   3.913  17.669  0.00  0.00    +0.000 A 
ATOM     28  C   UNL     1       4.589   4.018  16.309  0.00  0.00    +0.000 A 
ATOM     29  C   UNL     1       5.511   4.554  15.397  0.00  0.00    +0.000 A 
ATOM     30  C   UNL     1       6.733   5.061  15.831  0.00  0.00    +0.000 A 
ATOM     31  C   UNL     1       7.063   4.932  17.182  0.00  0.00    +0.000 A 
ATOM     32  C   UNL     1       6.155   4.378  18.099  0.00  0.00    +0.000 A 
BRANCH  30  33
ATOM     33  N   UNL     1       7.689   5.481  14.899  0.00  0.00    +0.000 N 
ATOM     34  H   UNL     1       8.074   6.403  15.086  0.00  0.00    +0.000 HD
ATOM     35  H   UNL     1       8.413   4.797  14.708  0.00  0.00    +0.000 HD
ENDBRANCH  30  33
ENDBRANCH  25  27
ENDBRANCH  23  25
ENDBRANCH  21  23
ENDBRANCH   1  19
TORSDOF 10
ENDMDL
MODEL 8
REMARK VINA RESULT:      -7.2      2.226      3.048
REMARK  Name = 
REMARK  12 active torsions:
REMARK  status: ('A' for Active; 'I' for Inactive)
REMARK    1  A    between atoms: C_1  and  N_2
REMARK    2  A    between atoms: N_2  and  N_3
REMARK    3  A    between atoms: N_2  and  C_21
REMARK    4  A    between atoms: C_4  and  C_6
REMARK    5  A    between atoms: C_6  and  C_7
REMARK    6  A    between atoms: N_9  and  N_10
REMARK    7  A    between atoms: N_10  and  C_11
REMARK    8  A    between atoms: N_10  and  C_12
REMARK    9  A    between atoms: C_12  and  C_14
REMARK   10  A    between atoms: C_17  and  N_18
REMARK   11  A    between atoms: C_21  and  C_23
REMARK   12  A    between atoms: C_26  and  N_27
REMARK                            x       y       z     vdW  Elec       q    Type
REMARK                         _______ _______ _______ _____ _____    ______ ____
ROOT
ATOM      1  C   UNL     1       3.117   8.300  18.159  0.00  0.00    +0.000 C 
ENDROOT
BRANCH   1   3
ATOM      2  N   UNL     1       0.972   9.349  18.861  0.00  0.00    +0.000 N 
ATOM      3  C   UNL     1       2.079   9.414  18.026  0.00  0.00    +0.000 C 
ATOM      4  O   UNL     1       2.246  10.284  17.173  0.00  0.00    +0.000 OA
ATOM      5  H   UNL     1       0.973   8.672  19.628  0.00  0.00    +0.000 HD
BRANCH   2   7
ATOM      6  C   UNL     1      -1.265  10.075  18.207  0.00  0.00    +0.000 C 
ATOM      7  N   UNL     1      -0.020  10.378  18.920  0.00  0.00    +0.000 N 
BRANCH   7   8
ATOM      8  C   UNL     1       0.085  11.423  19.860  0.00  0.00    +0.000 C 
ATOM      9  S   UNL     1       1.454  12.434  19.915  0.00  0.00    +0.000 S 
BRANCH   8  10
ATOM     10  C   UNL     1      -0.973  11.532  20.937  0.00  0.00    +0.000 A 
ATOM     11  C   UNL     1      -0.782  10.926  22.185  0.00  0.00    +0.000 A 
ATOM     12  C   UNL     1      -1.677  11.159  23.242  0.00  0.00    +0.000 A 
ATOM     13  C   UNL     1      -2.738  12.055  23.101  0.00  0.00    +0.000 A 
ATOM     14  C   UNL     1      -2.962  12.622  21.847  0.00  0.00    +0.000 A 
ATOM     15  C   UNL     1      -2.086  12.376  20.781  0.00  0.00    +0.000 A 
BRANCH  13  16
ATOM     16  N   UNL     1      -3.680  12.209  24.120  0.00  0.00    +0.000 N 
ATOM     17  H   UNL     1      -3.675  13.130  24.552  0.00  0.00    +0.000 HD
ATOM     18  H   UNL     1      -4.622  11.927  23.854  0.00  0.00    +0.000 HD
ENDBRANCH  13  16
ENDBRANCH   8  10
ENDBRANCH   7   8
ENDBRANCH   2   7
ENDBRANCH   1   3
BRANCH   1  19
ATOM     19  C   UNL     1       2.624   6.913  18.495  0.00  0.00    +0.000 C 
ATOM     20  O   UNL     1       1.664   6.408  17.915  0.00  0.00    +0.000 OA
ATOM     21  N   UNL     1       3.322   6.287  19.526  0.00  0.00    +0.000 N 
ATOM     22  H   UNL     1       4.283   6.567  19.734  0.00  0.00    +0.000 HD
BRANCH  21  23
ATOM     23  N   UNL     1       3.034   4.917  19.841  0.00  0.00    +0.000 N 
ATOM     24  C   UNL     1       2.178   4.759  21.017  0.00  0.00    +0.000 C 
BRANCH  23  25
ATOM     25  C   UNL     1       3.891   3.894  19.388  0.00  0.00    +0.000 C 
ATOM     26  S   UNL     1       3.927   2.367  20.116  0.00  0.00    +0.000 S 
BRANCH  25  27
ATOM     27  C   UNL     1       4.819   4.244  18.250  0.00  0.00    +0.000 A 
ATOM     28  C   UNL     1       6.100   4.726  18.547  0.00  0.00    +0.000 A 
ATOM     29  C   UNL     1       6.998   5.060  17.523  0.00  0.00    +0.000 A 
ATOM     30  C   UNL     1       6.667   4.852  16.186  0.00  0.00    +0.000 A 
ATOM     31  C   UNL     1       5.380   4.399  15.884  0.00  0.00    +0.000 A 
ATOM     32  C   UNL     1       4.467   4.082  16.903  0.00  0.00    +0.000 A 
BRANCH  30  33
ATOM     33  N   UNL     1       7.523   5.300  15.173  0.00  0.00    +0.000 N 
ATOM     34  H   UNL     1       7.129   6.036  14.593  0.00  0.00    +0.000 HD
ATOM     35  H   UNL     1       8.461   5.522  15.488  0.00  0.00    +0.000 HD
ENDBRANCH  30  33
ENDBRANCH  25  27
ENDBRANCH  23  25
ENDBRANCH  21  23
ENDBRANCH   1  19
TORSDOF 10
ENDMDL
MODEL 9
REMARK VINA RESULT:      -7.2      1.198      9.494
REMARK  Name = 
REMARK  12 active torsions:
REMARK  status: ('A' for Active; 'I' for Inactive)
REMARK    1  A    between atoms: C_1  and  N_2
REMARK    2  A    between atoms: N_2  and  N_3
REMARK    3  A    between atoms: N_2  and  C_21
REMARK    4  A    between atoms: C_4  and  C_6
REMARK    5  A    between atoms: C_6  and  C_7
REMARK    6  A    between atoms: N_9  and  N_10
REMARK    7  A    between atoms: N_10  and  C_11
REMARK    8  A    between atoms: N_10  and  C_12
REMARK    9  A    between atoms: C_12  and  C_14
REMARK   10  A    between atoms: C_17  and  N_18
REMARK   11  A    between atoms: C_21  and  C_23
REMARK   12  A    between atoms: C_26  and  N_27
REMARK                            x       y       z     vdW  Elec       q    Type
REMARK                         _______ _______ _______ _____ _____    ______ ____
ROOT
ATOM      1  C   UNL     1       2.280   7.922  18.130  0.00  0.00    +0.000 C 
ENDROOT
BRANCH   1   3
ATOM      2  N   UNL     1       3.249   6.101  19.523  0.00  0.00    +0.000 N 
ATOM      3  C   UNL     1       2.409   6.437  18.470  0.00  0.00    +0.000 C 
ATOM      4  O   UNL     1       1.804   5.615  17.784  0.00  0.00    +0.000 OA
ATOM      5  H   UNL     1       3.610   6.846  20.122  0.00  0.00    +0.000 HD
BRANCH   2   7
ATOM      6  C   UNL     1       2.383   4.379  21.020  0.00  0.00    +0.000 C 
ATOM      7  N   UNL     1       3.380   4.765  20.018  0.00  0.00    +0.000 N 
BRANCH   7   8
ATOM      8  C   UNL     1       4.186   3.826  19.343  0.00  0.00    +0.000 C 
ATOM      9  S   UNL     1       4.351   2.228  19.905  0.00  0.00    +0.000 S 
BRANCH   8  10
ATOM     10  C   UNL     1       5.042   4.309  18.191  0.00  0.00    +0.000 A 
ATOM     11  C   UNL     1       6.297   4.882  18.430  0.00  0.00    +0.000 A 
ATOM     12  C   UNL     1       7.166   5.180  17.368  0.00  0.00    +0.000 A 
ATOM     13  C   UNL     1       6.835   4.848  16.053  0.00  0.00    +0.000 A 
ATOM     14  C   UNL     1       5.567   4.324  15.804  0.00  0.00    +0.000 A 
ATOM     15  C   UNL     1       4.686   4.045  16.857  0.00  0.00    +0.000 A 
BRANCH  13  16
ATOM     16  N   UNL     1       7.656   5.233  14.992  0.00  0.00    +0.000 N 
ATOM     17  H   UNL     1       8.324   5.963  15.229  0.00  0.00    +0.000 HD
ATOM     18  H   UNL     1       8.108   4.452  14.519  0.00  0.00    +0.000 HD
ENDBRANCH  13  16
ENDBRANCH   8  10
ENDBRANCH   7   8
ENDBRANCH   2   7
ENDBRANCH   1   3
BRANCH   1  19
ATOM     19  C   UNL     1       1.568   8.812  19.120  0.00  0.00    +0.000 C 
ATOM     20  O   UNL     1       1.799   8.756  20.326  0.00  0.00    +0.000 OA
ATOM     21  N   UNL     1       0.618   9.660  18.552  0.00  0.00    +0.000 N 
ATOM     22  H   UNL     1       0.695   9.926  17.569  0.00  0.00    +0.000 HD
BRANCH  21  23
ATOM     23  N   UNL     1      -0.025  10.646  19.372  0.00  0.00    +0.000 N 
ATOM     24  C   UNL     1      -0.484  10.122  20.659  0.00  0.00    +0.000 C 
BRANCH  23  25
ATOM     25  C   UNL     1      -0.586  11.797  18.782  0.00  0.00    +0.000 C 
ATOM     26  S   UNL     1       0.284  13.241  18.629  0.00  0.00    +0.000 S 
BRANCH  25  27
ATOM     27  C   UNL     1      -2.025  11.697  18.339  0.00  0.00    +0.000 A 
ATOM     28  C   UNL     1      -3.033  12.107  19.220  0.00  0.00    +0.000 A 
ATOM     29  C   UNL     1      -4.384  12.036  18.849  0.00  0.00    +0.000 A 
ATOM     30  C   UNL     1      -4.754  11.626  17.571  0.00  0.00    +0.000 A 
ATOM     31  C   UNL     1      -3.755  11.188  16.699  0.00  0.00    +0.000 A 
ATOM     32  C   UNL     1      -2.401  11.236  17.069  0.00  0.00    +0.000 A 
BRANCH  30  33
ATOM     33  N   UNL     1      -6.106  11.446  17.256  0.00  0.00    +0.000 N 
ATOM     34  H   UNL     1      -6.546  12.260  16.835  0.00  0.00    +0.000 HD
ATOM     35  H   UNL     1      -6.304  10.595  16.740  0.00  0.00    +0.000 HD
ENDBRANCH  30  33
ENDBRANCH  25  27
ENDBRANCH  23  25
ENDBRANCH  21  23
ENDBRANCH   1  19
TORSDOF 10
ENDMDL
