MODEL 1
REMARK VINA RESULT:      -7.9      0.000      0.000
REMARK  Name = 
REMARK  9 active torsions:
REMARK  status: ('A' for Active; 'I' for Inactive)
REMARK    1  A    between atoms: C_1  and  C_2
REMARK    2  A    between atoms: C_2  and  C_3
REMARK    3  A    between atoms: C_4  and  C_5
REMARK    4  A    between atoms: C_5  and  N_6
REMARK    5  A    between atoms: N_9  and  C_10
REMARK    6  A    between atoms: C_10  and  C_11
REMARK    7  A    between atoms: C_23  and  C_24
REMARK    8  A    between atoms: C_24  and  C_25
REMARK    9  A    between atoms: C_25  and  O_26
REMARK                            x       y       z     vdW  Elec       q    Type
REMARK                         _______ _______ _______ _____ _____    ______ ____
ROOT
ATOM      1  N   UNL     1       6.389   5.543  15.265  0.00  0.00    +0.000 NA
ATOM      2  C   UNL     1       4.930   5.546  15.529  0.00  0.00    +0.000 C 
ATOM      3  C   UNL     1       4.399   4.380  16.408  0.00  0.00    +0.000 C 
ATOM      4  N   UNL     1       5.121   4.159  17.685  0.00  0.00    +0.000 NA
ATOM      5  C   UNL     1       6.568   4.202  17.414  0.00  0.00    +0.000 C 
ATOM      6  C   UNL     1       7.126   5.381  16.560  0.00  0.00    +0.000 C 
ENDROOT
BRANCH   1   7
ATOM      7  C   UNL     1       6.785   4.473  14.329  0.00  0.00    +0.000 C 
BRANCH   7  11
ATOM      8  C   UNL     1       4.635   2.968  11.429  0.00  0.00    +0.000 C 
ATOM      9  C   UNL     1       5.830   3.352  12.258  0.00  0.00    +0.000 C 
ATOM     10  C   UNL     1       7.182   3.085  11.653  0.00  0.00    +0.000 C 
ATOM     11  C   UNL     1       5.671   3.956  13.456  0.00  0.00    +0.000 C 
ENDBRANCH   7  11
ENDBRANCH   1   7
BRANCH   4  12
ATOM     12  C   UNL     1       4.617   5.092  18.715  0.00  0.00    +0.000 C 
BRANCH  12  13
ATOM     13  C   UNL     1       3.603   4.538  19.683  0.00  0.00    +0.000 A 
ATOM     14  C   UNL     1       3.459   3.253  20.190  0.00  0.00    +0.000 A 
ATOM     15  C   UNL     1       2.480   3.282  21.199  0.00  0.00    +0.000 A 
ATOM     16  C   UNL     1       1.970   4.557  21.225  0.00  0.00    +0.000 A 
ATOM     17  N   UNL     1       2.592   5.328  20.253  0.00  0.00    +0.000 N 
ATOM     18  C   UNL     1       2.230   6.677  19.897  0.00  0.00    +0.000 A 
ATOM     19  C   UNL     1       1.286   7.379  20.648  0.00  0.00    +0.000 A 
ATOM     20  C   UNL     1       0.918   8.664  20.254  0.00  0.00    +0.000 A 
ATOM     21  C   UNL     1       1.491   9.226  19.122  0.00  0.00    +0.000 A 
ATOM     22  C   UNL     1       2.423   8.473  18.432  0.00  0.00    +0.000 A 
ATOM     23  N   UNL     1       2.795   7.226  18.787  0.00  0.00    +0.000 NA
ENDBRANCH  12  13
ENDBRANCH   4  12
BRANCH   6  24
ATOM     24  C   UNL     1       7.216   6.737  17.296  0.00  0.00    +0.000 C 
BRANCH  24  25
ATOM     25  C   UNL     1       7.861   6.652  18.678  0.00  0.00    +0.000 C 
BRANCH  25  26
ATOM     26  O   UNL     1       8.676   7.796  18.914  0.00  0.00    +0.000 OA
ATOM     27  H   UNL     1       8.183   8.389  19.504  0.00  0.00    +0.000 HD
ENDBRANCH  25  26
ENDBRANCH  24  25
ENDBRANCH   6  24
TORSDOF 7
ENDMDL
MODEL 2
REMARK VINA RESULT:      -7.1      1.291      3.000
REMARK  Name = 
REMARK  9 active torsions:
REMARK  status: ('A' for Active; 'I' for Inactive)
REMARK    1  A    between atoms: C_1  and  C_2
REMARK    2  A    between atoms: C_2  and  C_3
REMARK    3  A    between atoms: C_4  and  C_5
REMARK    4  A    between atoms: C_5  and  N_6
REMARK    5  A    between atoms: N_9  and  C_10
REMARK    6  A    between atoms: C_10  and  C_11
REMARK    7  A    between atoms: C_23  and  C_24
REMARK    8  A    between atoms: C_24  and  C_25
REMARK    9  A    between atoms: C_25  and  O_26
REMARK                            x       y       z     vdW  Elec       q    Type
REMARK                         _______ _______ _______ _____ _____    ______ ____
ROOT
ATOM      1  N   UNL     1       6.452   5.686  15.510  0.00  0.00    +0.000 NA
ATOM      2  C   UNL     1       5.053   5.485  15.960  0.00  0.00    +0.000 C 
ATOM      3  C   UNL     1       4.838   4.378  17.028  0.00  0.00    +0.000 C 
ATOM      4  N   UNL     1       5.723   4.452  18.216  0.00  0.00    +0.000 NA
ATOM      5  C   UNL     1       7.101   4.694  17.756  0.00  0.00    +0.000 C 
ATOM      6  C   UNL     1       7.343   5.822  16.706  0.00  0.00    +0.000 C 
ENDROOT
BRANCH   1   7
ATOM      7  C   UNL     1       6.928   4.578  14.658  0.00  0.00    +0.000 C 
BRANCH   7  11
ATOM      8  C   UNL     1       4.773   3.080  11.758  0.00  0.00    +0.000 C 
ATOM      9  C   UNL     1       5.948   3.651  12.505  0.00  0.00    +0.000 C 
ATOM     10  C   UNL     1       7.177   3.955  11.693  0.00  0.00    +0.000 C 
ATOM     11  C   UNL     1       5.859   3.919  13.826  0.00  0.00    +0.000 C 
ENDBRANCH   7  11
ENDBRANCH   1   7
BRANCH   4  12
ATOM     12  C   UNL     1       5.176   5.421  19.190  0.00  0.00    +0.000 C 
BRANCH  12  13
ATOM     13  C   UNL     1       3.918   6.143  18.781  0.00  0.00    +0.000 A 
ATOM     14  C   UNL     1       3.754   7.361  18.134  0.00  0.00    +0.000 A 
ATOM     15  C   UNL     1       2.395   7.512  17.810  0.00  0.00    +0.000 A 
ATOM     16  C   UNL     1       1.733   6.436  18.351  0.00  0.00    +0.000 A 
ATOM     17  N   UNL     1       2.636   5.618  19.015  0.00  0.00    +0.000 N 
ATOM     18  C   UNL     1       2.293   4.468  19.812  0.00  0.00    +0.000 A 
ATOM     19  C   UNL     1       0.982   3.991  19.842  0.00  0.00    +0.000 A 
ATOM     20  C   UNL     1       0.667   2.907  20.658  0.00  0.00    +0.000 A 
ATOM     21  C   UNL     1       1.659   2.318  21.431  0.00  0.00    +0.000 A 
ATOM     22  C   UNL     1       2.935   2.841  21.345  0.00  0.00    +0.000 A 
ATOM     23  N   UNL     1       3.268   3.891  20.567  0.00  0.00    +0.000 NA
ENDBRANCH  12  13
ENDBRANCH   4  12
BRANCH   6  24
ATOM     24  C   UNL     1       7.270   7.261  17.265  0.00  0.00    +0.000 C 
BRANCH  24  25
ATOM     25  C   UNL     1       8.294   7.557  18.359  0.00  0.00    +0.000 C 
BRANCH  25  26
ATOM     26  O   UNL     1       8.355   6.475  19.284  0.00  0.00    +0.000 OA
ATOM     27  H   UNL     1       8.264   6.849  20.176  0.00  0.00    +0.000 HD
ENDBRANCH  25  26
ENDBRANCH  24  25
ENDBRANCH   6  24
TORSDOF 7
ENDMDL
MODEL 3
REMARK VINA RESULT:      -7.0      0.768      1.053
REMARK  Name = 
REMARK  9 active torsions:
REMARK  status: ('A' for Active; 'I' for Inactive)
REMARK    1  A    between atoms: C_1  and  C_2
REMARK    2  A    between atoms: C_2  and  C_3
REMARK    3  A    between atoms: C_4  and  C_5
REMARK    4  A    between atoms: C_5  and  N_6
REMARK    5  A    between atoms: N_9  and  C_10
REMARK    6  A    between atoms: C_10  and  C_11
REMARK    7  A    between atoms: C_23  and  C_24
REMARK    8  A    between atoms: C_24  and  C_25
REMARK    9  A    between atoms: C_25  and  O_26
REMARK                            x       y       z     vdW  Elec       q    Type
REMARK                         _______ _______ _______ _____ _____    ______ ____
ROOT
ATOM      1  N   UNL     1       6.510   5.715  15.580  0.00  0.00    +0.000 NA
ATOM      2  C   UNL     1       5.066   5.389  15.676  0.00  0.00    +0.000 C 
ATOM      3  C   UNL     1       4.699   4.211  16.618  0.00  0.00    +0.000 C 
ATOM      4  N   UNL     1       5.271   4.281  17.986  0.00  0.00    +0.000 NA
ATOM      5  C   UNL     1       6.693   4.647  17.877  0.00  0.00    +0.000 C 
ATOM      6  C   UNL     1       7.080   5.847  16.959  0.00  0.00    +0.000 C 
ENDROOT
BRANCH   1   7
ATOM      7  C   UNL     1       7.263   4.694  14.825  0.00  0.00    +0.000 C 
BRANCH   7  11
ATOM      8  C   UNL     1       7.356   4.797  10.916  0.00  0.00    +0.000 C 
ATOM      9  C   UNL     1       6.947   4.433  12.317  0.00  0.00    +0.000 C 
ATOM     10  C   UNL     1       5.930   3.333  12.456  0.00  0.00    +0.000 C 
ATOM     11  C   UNL     1       7.519   5.039  13.381  0.00  0.00    +0.000 C 
ENDBRANCH   7  11
ENDBRANCH   1   7
BRANCH   4  12
ATOM     12  C   UNL     1       4.432   5.152  18.837  0.00  0.00    +0.000 C 
BRANCH  12  13
ATOM     13  C   UNL     1       3.471   4.455  19.766  0.00  0.00    +0.000 A 
ATOM     14  C   UNL     1       3.388   3.117  20.131  0.00  0.00    +0.000 A 
ATOM     15  C   UNL     1       2.444   2.997  21.164  0.00  0.00    +0.000 A 
ATOM     16  C   UNL     1       1.890   4.241  21.347  0.00  0.00    +0.000 A 
ATOM     17  N   UNL     1       2.452   5.138  20.450  0.00  0.00    +0.000 N 
ATOM     18  C   UNL     1       2.031   6.503  20.258  0.00  0.00    +0.000 A 
ATOM     19  C   UNL     1       1.089   7.081  21.110  0.00  0.00    +0.000 A 
ATOM     20  C   UNL     1       0.663   8.386  20.873  0.00  0.00    +0.000 A 
ATOM     21  C   UNL     1       1.178   9.091  19.794  0.00  0.00    +0.000 A 
ATOM     22  C   UNL     1       2.112   8.456  18.997  0.00  0.00    +0.000 A 
ATOM     23  N   UNL     1       2.539   7.193  19.200  0.00  0.00    +0.000 NA
ENDBRANCH  12  13
ENDBRANCH   4  12
BRANCH   6  24
ATOM     24  C   UNL     1       6.758   7.243  17.538  0.00  0.00    +0.000 C 
BRANCH  24  25
ATOM     25  C   UNL     1       7.967   8.173  17.626  0.00  0.00    +0.000 C 
BRANCH  25  26
ATOM     26  O   UNL     1       8.662   7.966  18.852  0.00  0.00    +0.000 OA
ATOM     27  H   UNL     1       9.434   8.554  18.852  0.00  0.00    +0.000 HD
ENDBRANCH  25  26
ENDBRANCH  24  25
ENDBRANCH   6  24
TORSDOF 7
ENDMDL
MODEL 4
REMARK VINA RESULT:      -6.6      0.947      1.234
REMARK  Name = 
REMARK  9 active torsions:
REMARK  status: ('A' for Active; 'I' for Inactive)
REMARK    1  A    between atoms: C_1  and  C_2
REMARK    2  A    between atoms: C_2  and  C_3
REMARK    3  A    between atoms: C_4  and  C_5
REMARK    4  A    between atoms: C_5  and  N_6
REMARK    5  A    between atoms: N_9  and  C_10
REMARK    6  A    between atoms: C_10  and  C_11
REMARK    7  A    between atoms: C_23  and  C_24
REMARK    8  A    between atoms: C_24  and  C_25
REMARK    9  A    between atoms: C_25  and  O_26
REMARK                            x       y       z     vdW  Elec       q    Type
REMARK                         _______ _______ _______ _____ _____    ______ ____
ROOT
ATOM      1  N   UNL     1       5.855   5.155  15.607  0.00  0.00    +0.000 NA
ATOM      2  C   UNL     1       4.507   4.889  16.167  0.00  0.00    +0.000 C 
ATOM      3  C   UNL     1       4.456   3.909  17.370  0.00  0.00    +0.000 C 
ATOM      4  N   UNL     1       5.391   4.209  18.483  0.00  0.00    +0.000 NA
ATOM      5  C   UNL     1       6.713   4.513  17.909  0.00  0.00    +0.000 C 
ATOM      6  C   UNL     1       6.790   5.518  16.719  0.00  0.00    +0.000 C 
ENDROOT
BRANCH   1   7
ATOM      7  C   UNL     1       6.389   3.996  14.865  0.00  0.00    +0.000 C 
BRANCH   7  11
ATOM      8  C   UNL     1       7.396   4.305  11.098  0.00  0.00    +0.000 C 
ATOM      9  C   UNL     1       6.594   3.993  12.332  0.00  0.00    +0.000 C 
ATOM     10  C   UNL     1       5.311   3.235  12.126  0.00  0.00    +0.000 C 
ATOM     11  C   UNL     1       7.052   4.338  13.555  0.00  0.00    +0.000 C 
ENDBRANCH   7  11
ENDBRANCH   1   7
BRANCH   4  12
ATOM     12  C   UNL     1       4.806   5.240  19.367  0.00  0.00    +0.000 C 
BRANCH  12  13
ATOM     13  C   UNL     1       3.465   4.916  19.975  0.00  0.00    +0.000 A 
ATOM     14  C   UNL     1       3.028   3.766  20.619  0.00  0.00    +0.000 A 
ATOM     15  C   UNL     1       1.761   4.021  21.171  0.00  0.00    +0.000 A 
ATOM     16  C   UNL     1       1.398   5.285  20.773  0.00  0.00    +0.000 A 
ATOM     17  N   UNL     1       2.397   5.828  19.976  0.00  0.00    +0.000 N 
ATOM     18  C   UNL     1       2.315   7.082  19.272  0.00  0.00    +0.000 A 
ATOM     19  C   UNL     1       1.236   7.943  19.479  0.00  0.00    +0.000 A 
ATOM     20  C   UNL     1       1.157   9.127  18.749  0.00  0.00    +0.000 A 
ATOM     21  C   UNL     1       2.148   9.433  17.826  0.00  0.00    +0.000 A 
ATOM     22  C   UNL     1       3.189   8.535  17.680  0.00  0.00    +0.000 A 
ATOM     23  N   UNL     1       3.289   7.381  18.369  0.00  0.00    +0.000 NA
ENDBRANCH  12  13
ENDBRANCH   4  12
BRANCH   6  24
ATOM     24  C   UNL     1       6.609   7.004  17.105  0.00  0.00    +0.000 C 
BRANCH  24  25
ATOM     25  C   UNL     1       7.861   7.651  17.694  0.00  0.00    +0.000 C 
BRANCH  25  26
ATOM     26  O   UNL     1       7.680   9.058  17.813  0.00  0.00    +0.000 OA
ATOM     27  H   UNL     1       6.913   9.301  17.269  0.00  0.00    +0.000 HD
ENDBRANCH  25  26
ENDBRANCH  24  25
ENDBRANCH   6  24
TORSDOF 7
ENDMDL
MODEL 5
REMARK VINA RESULT:      -6.5      0.908      1.252
REMARK  Name = 
REMARK  9 active torsions:
REMARK  status: ('A' for Active; 'I' for Inactive)
REMARK    1  A    between atoms: C_1  and  C_2
REMARK    2  A    between atoms: C_2  and  C_3
REMARK    3  A    between atoms: C_4  and  C_5
REMARK    4  A    between atoms: C_5  and  N_6
REMARK    5  A    between atoms: N_9  and  C_10
REMARK    6  A    between atoms: C_10  and  C_11
REMARK    7  A    between atoms: C_23  and  C_24
REMARK    8  A    between atoms: C_24  and  C_25
REMARK    9  A    between atoms: C_25  and  O_26
REMARK                            x       y       z     vdW  Elec       q    Type
REMARK                         _______ _______ _______ _____ _____    ______ ____
ROOT
ATOM      1  N   UNL     1       6.216   5.503  15.406  0.00  0.00    +0.000 NA
ATOM      2  C   UNL     1       5.299   6.405  16.144  0.00  0.00    +0.000 C 
ATOM      3  C   UNL     1       3.966   5.768  16.626  0.00  0.00    +0.000 C 
ATOM      4  N   UNL     1       4.098   4.494  17.375  0.00  0.00    +0.000 NA
ATOM      5  C   UNL     1       5.045   3.626  16.653  0.00  0.00    +0.000 C 
ATOM      6  C   UNL     1       6.401   4.238  16.187  0.00  0.00    +0.000 C 
ENDROOT
BRANCH   1   7
ATOM      7  C   UNL     1       5.717   5.185  14.054  0.00  0.00    +0.000 C 
BRANCH   7  11
ATOM      8  C   UNL     1       7.003   2.351  11.684  0.00  0.00    +0.000 C 
ATOM      9  C   UNL     1       6.101   3.385  12.302  0.00  0.00    +0.000 C 
ATOM     10  C   UNL     1       4.684   3.427  11.798  0.00  0.00    +0.000 C 
ATOM     11  C   UNL     1       6.549   4.184  13.294  0.00  0.00    +0.000 C 
ENDBRANCH   7  11
ENDBRANCH   1   7
BRANCH   4  12
ATOM     12  C   UNL     1       4.414   4.774  18.792  0.00  0.00    +0.000 C 
BRANCH  12  13
ATOM     13  C   UNL     1       3.510   4.138  19.818  0.00  0.00    +0.000 A 
ATOM     14  C   UNL     1       3.428   2.819  20.245  0.00  0.00    +0.000 A 
ATOM     15  C   UNL     1       2.560   2.763  21.348  0.00  0.00    +0.000 A 
ATOM     16  C   UNL     1       2.046   4.026  21.517  0.00  0.00    +0.000 A 
ATOM     17  N   UNL     1       2.558   4.873  20.544  0.00  0.00    +0.000 N 
ATOM     18  C   UNL     1       2.151   6.237  20.323  0.00  0.00    +0.000 A 
ATOM     19  C   UNL     1       1.285   6.872  21.216  0.00  0.00    +0.000 A 
ATOM     20  C   UNL     1       0.869   8.175  20.954  0.00  0.00    +0.000 A 
ATOM     21  C   UNL     1       1.318   8.823  19.811  0.00  0.00    +0.000 A 
ATOM     22  C   UNL     1       2.178   8.134  18.977  0.00  0.00    +0.000 A 
ATOM     23  N   UNL     1       2.594   6.871  19.203  0.00  0.00    +0.000 NA
ENDBRANCH  12  13
ENDBRANCH   4  12
BRANCH   6  24
ATOM     24  C   UNL     1       7.442   4.451  17.309  0.00  0.00    +0.000 C 
BRANCH  24  25
ATOM     25  C   UNL     1       7.595   5.906  17.747  0.00  0.00    +0.000 C 
BRANCH  25  26
ATOM     26  O   UNL     1       7.681   5.988  19.166  0.00  0.00    +0.000 OA
ATOM     27  H   UNL     1       6.779   6.112  19.506  0.00  0.00    +0.000 HD
ENDBRANCH  25  26
ENDBRANCH  24  25
ENDBRANCH   6  24
TORSDOF 7
ENDMDL
MODEL 6
REMARK VINA RESULT:      -6.5      2.065      2.778
REMARK  Name = 
REMARK  9 active torsions:
REMARK  status: ('A' for Active; 'I' for Inactive)
REMARK    1  A    between atoms: C_1  and  C_2
REMARK    2  A    between atoms: C_2  and  C_3
REMARK    3  A    between atoms: C_4  and  C_5
REMARK    4  A    between atoms: C_5  and  N_6
REMARK    5  A    between atoms: N_9  and  C_10
REMARK    6  A    between atoms: C_10  and  C_11
REMARK    7  A    between atoms: C_23  and  C_24
REMARK    8  A    between atoms: C_24  and  C_25
REMARK    9  A    between atoms: C_25  and  O_26
REMARK                            x       y       z     vdW  Elec       q    Type
REMARK                         _______ _______ _______ _____ _____    ______ ____
ROOT
ATOM      1  N   UNL     1       5.775   4.073  15.756  0.00  0.00    +0.000 NA
ATOM      2  C   UNL     1       6.457   5.196  16.446  0.00  0.00    +0.000 C 
ATOM      3  C   UNL     1       5.579   6.444  16.738  0.00  0.00    +0.000 C 
ATOM      4  N   UNL     1       4.286   6.175  17.414  0.00  0.00    +0.000 NA
ATOM      5  C   UNL     1       3.641   5.031  16.746  0.00  0.00    +0.000 C 
ATOM      6  C   UNL     1       4.497   3.757  16.470  0.00  0.00    +0.000 C 
ENDROOT
BRANCH   1   7
ATOM      7  C   UNL     1       5.491   4.378  14.340  0.00  0.00    +0.000 C 
BRANCH   7  11
ATOM      8  C   UNL     1       6.866   2.317  11.313  0.00  0.00    +0.000 C 
ATOM      9  C   UNL     1       5.934   3.126  12.173  0.00  0.00    +0.000 C 
ATOM     10  C   UNL     1       4.521   3.273  11.679  0.00  0.00    +0.000 C 
ATOM     11  C   UNL     1       6.354   3.638  13.351  0.00  0.00    +0.000 C 
ENDBRANCH   7  11
ENDBRANCH   1   7
BRANCH   4  12
ATOM     12  C   UNL     1       4.498   6.050  18.872  0.00  0.00    +0.000 C 
BRANCH  12  13
ATOM     13  C   UNL     1       3.313   5.594  19.684  0.00  0.00    +0.000 A 
ATOM     14  C   UNL     1       3.046   4.361  20.266  0.00  0.00    +0.000 A 
ATOM     15  C   UNL     1       1.903   4.490  21.074  0.00  0.00    +0.000 A 
ATOM     16  C   UNL     1       1.430   5.768  20.897  0.00  0.00    +0.000 A 
ATOM     17  N   UNL     1       2.237   6.443  19.991  0.00  0.00    +0.000 N 
ATOM     18  C   UNL     1       1.980   7.758  19.461  0.00  0.00    +0.000 A 
ATOM     19  C   UNL     1       0.936   8.535  19.965  0.00  0.00    +0.000 A 
ATOM     20  C   UNL     1       0.678   9.782  19.402  0.00  0.00    +0.000 A 
ATOM     21  C   UNL     1       1.461  10.235  18.348  0.00  0.00    +0.000 A 
ATOM     22  C   UNL     1       2.481   9.414  17.906  0.00  0.00    +0.000 A 
ATOM     23  N   UNL     1       2.750   8.200  18.429  0.00  0.00    +0.000 NA
ENDBRANCH  12  13
ENDBRANCH   4  12
BRANCH   6  24
ATOM     24  C   UNL     1       4.782   2.880  17.711  0.00  0.00    +0.000 C 
BRANCH  24  25
ATOM     25  C   UNL     1       3.715   1.821  17.982  0.00  0.00    +0.000 C 
BRANCH  25  26
ATOM     26  O   UNL     1       4.300   0.677  18.596  0.00  0.00    +0.000 OA
ATOM     27  H   UNL     1       4.776   0.187  17.905  0.00  0.00    +0.000 HD
ENDBRANCH  25  26
ENDBRANCH  24  25
ENDBRANCH   6  24
TORSDOF 7
ENDMDL
MODEL 7
REMARK VINA RESULT:      -6.4      1.059      1.316
REMARK  Name = 
REMARK  9 active torsions:
REMARK  status: ('A' for Active; 'I' for Inactive)
REMARK    1  A    between atoms: C_1  and  C_2
REMARK    2  A    between atoms: C_2  and  C_3
REMARK    3  A    between atoms: C_4  and  C_5
REMARK    4  A    between atoms: C_5  and  N_6
REMARK    5  A    between atoms: N_9  and  C_10
REMARK    6  A    between atoms: C_10  and  C_11
REMARK    7  A    between atoms: C_23  and  C_24
REMARK    8  A    between atoms: C_24  and  C_25
REMARK    9  A    between atoms: C_25  and  O_26
REMARK                            x       y       z     vdW  Elec       q    Type
REMARK                         _______ _______ _______ _____ _____    ______ ____
ROOT
ATOM      1  N   UNL     1       5.215   4.710  15.603  0.00  0.00    +0.000 NA
ATOM      2  C   UNL     1       4.047   4.139  16.318  0.00  0.00    +0.000 C 
ATOM      3  C   UNL     1       4.377   3.219  17.526  0.00  0.00    +0.000 C 
ATOM      4  N   UNL     1       5.325   3.781  18.520  0.00  0.00    +0.000 NA
ATOM      5  C   UNL     1       6.457   4.383  17.794  0.00  0.00    +0.000 C 
ATOM      6  C   UNL     1       6.147   5.332  16.597  0.00  0.00    +0.000 C 
ENDROOT
BRANCH   1   7
ATOM      7  C   UNL     1       5.936   3.694  14.812  0.00  0.00    +0.000 C 
BRANCH   7  11
ATOM      8  C   UNL     1       7.368   4.380  11.237  0.00  0.00    +0.000 C 
ATOM      9  C   UNL     1       6.499   3.836  12.338  0.00  0.00    +0.000 C 
ATOM     10  C   UNL     1       5.486   2.796  11.942  0.00  0.00    +0.000 C 
ATOM     11  C   UNL     1       6.676   4.236  13.616  0.00  0.00    +0.000 C 
ENDBRANCH   7  11
ENDBRANCH   1   7
BRANCH   4  12
ATOM     12  C   UNL     1       4.602   4.665  19.459  0.00  0.00    +0.000 C 
BRANCH  12  13
ATOM     13  C   UNL     1       3.481   4.034  20.245  0.00  0.00    +0.000 A 
ATOM     14  C   UNL     1       3.295   2.715  20.638  0.00  0.00    +0.000 A 
ATOM     15  C   UNL     1       2.193   2.664  21.509  0.00  0.00    +0.000 A 
ATOM     16  C   UNL     1       1.661   3.929  21.556  0.00  0.00    +0.000 A 
ATOM     17  N   UNL     1       2.390   4.773  20.730  0.00  0.00    +0.000 N 
ATOM     18  C   UNL     1       2.052   6.140  20.423  0.00  0.00    +0.000 A 
ATOM     19  C   UNL     1       1.006   6.779  21.091  0.00  0.00    +0.000 A 
ATOM     20  C   UNL     1       0.670   8.085  20.742  0.00  0.00    +0.000 A 
ATOM     21  C   UNL     1       1.376   8.731  19.736  0.00  0.00    +0.000 A 
ATOM     22  C   UNL     1       2.403   8.038  19.124  0.00  0.00    +0.000 A 
ATOM     23  N   UNL     1       2.748   6.772  19.439  0.00  0.00    +0.000 NA
ENDBRANCH  12  13
ENDBRANCH   4  12
BRANCH   6  24
ATOM     24  C   UNL     1       5.644   6.740  16.992  0.00  0.00    +0.000 C 
BRANCH  24  25
ATOM     25  C   UNL     1       6.746   7.680  17.477  0.00  0.00    +0.000 C 
BRANCH  25  26
ATOM     26  O   UNL     1       7.959   7.423  16.777  0.00  0.00    +0.000 OA
ATOM     27  H   UNL     1       8.048   6.459  16.693  0.00  0.00    +0.000 HD
ENDBRANCH  25  26
ENDBRANCH  24  25
ENDBRANCH   6  24
TORSDOF 7
ENDMDL
MODEL 8
REMARK VINA RESULT:      -6.3      1.962      4.177
REMARK  Name = 
REMARK  9 active torsions:
REMARK  status: ('A' for Active; 'I' for Inactive)
REMARK    1  A    between atoms: C_1  and  C_2
REMARK    2  A    between atoms: C_2  and  C_3
REMARK    3  A    between atoms: C_4  and  C_5
REMARK    4  A    between atoms: C_5  and  N_6
REMARK    5  A    between atoms: N_9  and  C_10
REMARK    6  A    between atoms: C_10  and  C_11
REMARK    7  A    between atoms: C_23  and  C_24
REMARK    8  A    between atoms: C_24  and  C_25
REMARK    9  A    between atoms: C_25  and  O_26
REMARK                            x       y       z     vdW  Elec       q    Type
REMARK                         _______ _______ _______ _____ _____    ______ ____
ROOT
ATOM      1  N   UNL     1       7.178   5.798  17.357  0.00  0.00    +0.000 NA
ATOM      2  C   UNL     1       6.599   4.829  18.318  0.00  0.00    +0.000 C 
ATOM      3  C   UNL     1       5.433   5.360  19.196  0.00  0.00    +0.000 C 
ATOM      4  N   UNL     1       4.331   6.030  18.462  0.00  0.00    +0.000 NA
ATOM      5  C   UNL     1       4.922   6.957  17.482  0.00  0.00    +0.000 C 
ATOM      6  C   UNL     1       6.074   6.435  16.570  0.00  0.00    +0.000 C 
ENDROOT
BRANCH   1   7
ATOM      7  C   UNL     1       7.976   6.842  18.030  0.00  0.00    +0.000 C 
BRANCH   7  11
ATOM      8  C   UNL     1       7.972  10.704  17.407  0.00  0.00    +0.000 C 
ATOM      9  C   UNL     1       8.293   9.364  18.011  0.00  0.00    +0.000 C 
ATOM     10  C   UNL     1       9.119   9.374  19.268  0.00  0.00    +0.000 C 
ATOM     11  C   UNL     1       7.805   8.228  17.464  0.00  0.00    +0.000 C 
ENDBRANCH   7  11
ENDBRANCH   1   7
BRANCH   4  12
ATOM     12  C   UNL     1       3.395   5.018  17.927  0.00  0.00    +0.000 C 
BRANCH  12  13
ATOM     13  C   UNL     1       2.545   4.292  18.939  0.00  0.00    +0.000 A 
ATOM     14  C   UNL     1       2.303   2.933  19.096  0.00  0.00    +0.000 A 
ATOM     15  C   UNL     1       1.594   2.745  20.295  0.00  0.00    +0.000 A 
ATOM     16  C   UNL     1       1.325   3.993  20.800  0.00  0.00    +0.000 A 
ATOM     17  N   UNL     1       1.834   4.963  19.948  0.00  0.00    +0.000 N 
ATOM     18  C   UNL     1       1.634   6.383  20.081  0.00  0.00    +0.000 A 
ATOM     19  C   UNL     1       1.014   6.908  21.216  0.00  0.00    +0.000 A 
ATOM     20  C   UNL     1       0.789   8.281  21.298  0.00  0.00    +0.000 A 
ATOM     21  C   UNL     1       1.180   9.105  20.252  0.00  0.00    +0.000 A 
ATOM     22  C   UNL     1       1.794   8.515  19.164  0.00  0.00    +0.000 A 
ATOM     23  N   UNL     1       2.021   7.190  19.055  0.00  0.00    +0.000 NA
ENDBRANCH  12  13
ENDBRANCH   4  12
BRANCH   6  24
ATOM     24  C   UNL     1       5.627   5.499  15.424  0.00  0.00    +0.000 C 
BRANCH  24  25
ATOM     25  C   UNL     1       6.774   4.749  14.751  0.00  0.00    +0.000 C 
BRANCH  25  26
ATOM     26  O   UNL     1       7.883   5.620  14.551  0.00  0.00    +0.000 OA
ATOM     27  H   UNL     1       8.644   5.070  14.298  0.00  0.00    +0.000 HD
ENDBRANCH  25  26
ENDBRANCH  24  25
ENDBRANCH   6  24
TORSDOF 7
ENDMDL
MODEL 9
REMARK VINA RESULT:      -6.3      2.784      5.435
REMARK  Name = 
REMARK  9 active torsions:
REMARK  status: ('A' for Active; 'I' for Inactive)
REMARK    1  A    between atoms: C_1  and  C_2
REMARK    2  A    between atoms: C_2  and  C_3
REMARK    3  A    between atoms: C_4  and  C_5
REMARK    4  A    between atoms: C_5  and  N_6
REMARK    5  A    between atoms: N_9  and  C_10
REMARK    6  A    between atoms: C_10  and  C_11
REMARK    7  A    between atoms: C_23  and  C_24
REMARK    8  A    between atoms: C_24  and  C_25
REMARK    9  A    between atoms: C_25  and  O_26
REMARK                            x       y       z     vdW  Elec       q    Type
REMARK                         _______ _______ _______ _____ _____    ______ ____
ROOT
ATOM      1  N   UNL     1       3.528   4.166  19.339  0.00  0.00    +0.000 NA
ATOM      2  C   UNL     1       4.146   5.497  19.555  0.00  0.00    +0.000 C 
ATOM      3  C   UNL     1       3.859   6.563  18.462  0.00  0.00    +0.000 C 
ATOM      4  N   UNL     1       2.430   6.745  18.104  0.00  0.00    +0.000 NA
ATOM      5  C   UNL     1       1.820   5.415  17.935  0.00  0.00    +0.000 C 
ATOM      6  C   UNL     1       2.072   4.340  19.036  0.00  0.00    +0.000 C 
ENDROOT
BRANCH   1   7
ATOM      7  C   UNL     1       4.179   3.420  18.244  0.00  0.00    +0.000 C 
BRANCH   7  11
ATOM      8  C   UNL     1       7.461   4.610  16.479  0.00  0.00    +0.000 C 
ATOM      9  C   UNL     1       6.011   4.278  16.706  0.00  0.00    +0.000 C 
ATOM     10  C   UNL     1       5.106   4.365  15.507  0.00  0.00    +0.000 C 
ATOM     11  C   UNL     1       5.580   3.872  17.920  0.00  0.00    +0.000 C 
ENDBRANCH   7  11
ENDBRANCH   1   7
BRANCH   4  12
ATOM     12  C   UNL     1       1.779   7.648  19.078  0.00  0.00    +0.000 C 
BRANCH  12  13
ATOM     13  C   UNL     1       1.815   9.119  18.754  0.00  0.00    +0.000 A 
ATOM     14  C   UNL     1       2.445   9.793  17.716  0.00  0.00    +0.000 A 
ATOM     15  C   UNL     1       2.027  11.135  17.740  0.00  0.00    +0.000 A 
ATOM     16  C   UNL     1       1.230  11.286  18.848  0.00  0.00    +0.000 A 
ATOM     17  N   UNL     1       1.144  10.079  19.529  0.00  0.00    +0.000 N 
ATOM     18  C   UNL     1       0.502   9.883  20.805  0.00  0.00    +0.000 A 
ATOM     19  C   UNL     1      -0.241  10.909  21.390  0.00  0.00    +0.000 A 
ATOM     20  C   UNL     1      -0.810  10.709  22.646  0.00  0.00    +0.000 A 
ATOM     21  C   UNL     1      -0.629   9.496  23.297  0.00  0.00    +0.000 A 
ATOM     22  C   UNL     1       0.114   8.525  22.653  0.00  0.00    +0.000 A 
ATOM     23  N   UNL     1       0.679   8.692  21.440  0.00  0.00    +0.000 NA
ENDBRANCH  12  13
ENDBRANCH   4  12
BRANCH   6  24
ATOM     24  C   UNL     1       1.276   4.547  20.345  0.00  0.00    +0.000 C 
BRANCH  24  25
ATOM     25  C   UNL     1       1.222   3.311  21.242  0.00  0.00    +0.000 C 
BRANCH  25  26
ATOM     26  O   UNL     1       2.344   3.286  22.118  0.00  0.00    +0.000 OA
ATOM     27  H   UNL     1       3.142   3.225  21.568  0.00  0.00    +0.000 HD
ENDBRANCH  25  26
ENDBRANCH  24  25
ENDBRANCH   6  24
TORSDOF 7
ENDMDL
