MODEL 1
REMARK VINA RESULT:      -9.1      0.000      0.000
REMARK  Name = 
REMARK  6 active torsions:
REMARK  status: ('A' for Active; 'I' for Inactive)
REMARK    1  A    between atoms: C_2  and  C_25
REMARK    2  A    between atoms: N_3  and  C_4
REMARK    3  A    between atoms: C_4  and  C_5
REMARK    4  A    between atoms: C_5  and  C_6
REMARK    5  A    between atoms: C_6  and  N_7
REMARK    6  A    between atoms: N_7  and  C_19
REMARK                            x       y       z     vdW  Elec       q    Type
REMARK                         _______ _______ _______ _____ _____    ______ ____
ROOT
ATOM      1  N   UNL     1       2.915   6.653  18.813  0.00  0.00    +0.000 N 
ATOM      2  C   UNL     1       2.620   5.383  19.341  0.00  0.00    +0.000 C 
ATOM      3  N   UNL     1       1.957   5.219  20.461  0.00  0.00    +0.000 NA
ATOM      4  S   UNL     1       1.797   3.644  20.878  0.00  0.00    +0.000 S 
ATOM      5  O   UNL     1       0.425   3.217  20.721  0.00  0.00    +0.000 OA
ATOM      6  O   UNL     1       2.588   3.358  22.054  0.00  0.00    +0.000 OA
ATOM      7  C   UNL     1       2.683   3.023  19.518  0.00  0.00    +0.000 A 
ATOM      8  C   UNL     1       2.951   1.693  19.233  0.00  0.00    +0.000 A 
ATOM      9  C   UNL     1       3.646   1.422  18.058  0.00  0.00    +0.000 A 
ATOM     10  C   UNL     1       3.993   2.466  17.192  0.00  0.00    +0.000 A 
ATOM     11  C   UNL     1       3.653   3.791  17.493  0.00  0.00    +0.000 A 
ATOM     12  C   UNL     1       3.046   4.084  18.707  0.00  0.00    +0.000 A 
ENDROOT
BRANCH   1  13
ATOM     13  C   UNL     1       2.082   7.795  19.055  0.00  0.00    +0.000 A 
ATOM     14  C   UNL     1       1.701   8.656  18.011  0.00  0.00    +0.000 A 
ATOM     15  C   UNL     1       0.974   9.831  18.255  0.00  0.00    +0.000 A 
ATOM     16  C   UNL     1       0.591  10.169  19.548  0.00  0.00    +0.000 A 
ATOM     17  C   UNL     1       0.914   9.322  20.594  0.00  0.00    +0.000 A 
ATOM     18  C   UNL     1       1.647   8.158  20.347  0.00  0.00    +0.000 A 
ENDBRANCH   1  13
BRANCH   1  19
ATOM     19  C   UNL     1       4.138   6.954  18.052  0.00  0.00    +0.000 C 
BRANCH  19  20
ATOM     20  C   UNL     1       5.395   6.320  18.641  0.00  0.00    +0.000 C 
BRANCH  20  21
ATOM     21  C   UNL     1       6.606   6.744  17.820  0.00  0.00    +0.000 C 
BRANCH  21  24
ATOM     22  O   UNL     1       7.948   4.503  16.809  0.00  0.00    +0.000 OA
ATOM     23  C   UNL     1       7.224   5.148  16.060  0.00  0.00    +0.000 C 
ATOM     24  N   UNL     1       6.530   6.271  16.463  0.00  0.00    +0.000 N 
ATOM     25  H   UNL     1       5.956   6.731  15.760  0.00  0.00    +0.000 HD
BRANCH  23  26
ATOM     26  C   UNL     1       7.049   4.771  14.624  0.00  0.00    +0.000 A 
ATOM     27  C   UNL     1       6.071   3.842  14.286  0.00  0.00    +0.000 A 
ATOM     28  C   UNL     1       5.928   3.496  12.948  0.00  0.00    +0.000 A 
ATOM     29  C   UNL     1       6.762   4.083  12.001  0.00  0.00    +0.000 A 
ATOM     30  C   UNL     1       7.707   5.004  12.430  0.00  0.00    +0.000 A 
ATOM     31  N   UNL     1       7.876   5.370  13.721  0.00  0.00    +0.000 NA
ENDBRANCH  23  26
ENDBRANCH  21  24
ENDBRANCH  20  21
ENDBRANCH  19  20
ENDBRANCH   1  19
TORSDOF 6
ENDMDL
MODEL 2
REMARK VINA RESULT:      -8.4      0.656      1.116
REMARK  Name = 
REMARK  6 active torsions:
REMARK  status: ('A' for Active; 'I' for Inactive)
REMARK    1  A    between atoms: C_2  and  C_25
REMARK    2  A    between atoms: N_3  and  C_4
REMARK    3  A    between atoms: C_4  and  C_5
REMARK    4  A    between atoms: C_5  and  C_6
REMARK    5  A    between atoms: C_6  and  N_7
REMARK    6  A    between atoms: N_7  and  C_19
REMARK                            x       y       z     vdW  Elec       q    Type
REMARK                         _______ _______ _______ _____ _____    ______ ____
ROOT
ATOM      1  N   UNL     1       2.823   6.567  19.335  0.00  0.00    +0.000 N 
ATOM      2  C   UNL     1       2.362   5.250  19.518  0.00  0.00    +0.000 C 
ATOM      3  N   UNL     1       1.401   4.947  20.360  0.00  0.00    +0.000 NA
ATOM      4  S   UNL     1       1.095   3.340  20.420  0.00  0.00    +0.000 S 
ATOM      5  O   UNL     1      -0.182   3.047  19.811  0.00  0.00    +0.000 OA
ATOM      6  O   UNL     1       1.508   2.803  21.697  0.00  0.00    +0.000 OA
ATOM      7  C   UNL     1       2.322   2.896  19.272  0.00  0.00    +0.000 A 
ATOM      8  C   UNL     1       2.633   1.618  18.834  0.00  0.00    +0.000 A 
ATOM      9  C   UNL     1       3.630   1.500  17.871  0.00  0.00    +0.000 A 
ATOM     10  C   UNL     1       4.233   2.647  17.343  0.00  0.00    +0.000 A 
ATOM     11  C   UNL     1       3.849   3.924  17.774  0.00  0.00    +0.000 A 
ATOM     12  C   UNL     1       2.925   4.050  18.802  0.00  0.00    +0.000 A 
ENDROOT
BRANCH   1  13
ATOM     13  C   UNL     1       1.980   7.708  19.540  0.00  0.00    +0.000 A 
ATOM     14  C   UNL     1       1.452   8.008  20.808  0.00  0.00    +0.000 A 
ATOM     15  C   UNL     1       0.544   9.061  20.997  0.00  0.00    +0.000 A 
ATOM     16  C   UNL     1       0.153   9.857  19.927  0.00  0.00    +0.000 A 
ATOM     17  C   UNL     1       0.684   9.614  18.672  0.00  0.00    +0.000 A 
ATOM     18  C   UNL     1       1.580   8.558  18.487  0.00  0.00    +0.000 A 
ENDBRANCH   1  13
BRANCH   1  19
ATOM     19  C   UNL     1       4.219   6.902  19.015  0.00  0.00    +0.000 C 
BRANCH  19  20
ATOM     20  C   UNL     1       4.445   7.233  17.542  0.00  0.00    +0.000 C 
BRANCH  20  21
ATOM     21  C   UNL     1       5.885   6.908  17.168  0.00  0.00    +0.000 C 
BRANCH  21  24
ATOM     22  O   UNL     1       7.559   4.775  16.466  0.00  0.00    +0.000 OA
ATOM     23  C   UNL     1       6.834   5.266  15.609  0.00  0.00    +0.000 C 
ATOM     24  N   UNL     1       5.984   6.324  15.856  0.00  0.00    +0.000 N 
ATOM     25  H   UNL     1       5.425   6.654  15.072  0.00  0.00    +0.000 HD
BRANCH  23  26
ATOM     26  C   UNL     1       6.831   4.758  14.202  0.00  0.00    +0.000 A 
ATOM     27  C   UNL     1       5.919   3.772  13.845  0.00  0.00    +0.000 A 
ATOM     28  C   UNL     1       5.935   3.305  12.536  0.00  0.00    +0.000 A 
ATOM     29  C   UNL     1       6.855   3.835  11.637  0.00  0.00    +0.000 A 
ATOM     30  C   UNL     1       7.724   4.821  12.082  0.00  0.00    +0.000 A 
ATOM     31  N   UNL     1       7.739   5.304  13.345  0.00  0.00    +0.000 NA
ENDBRANCH  23  26
ENDBRANCH  21  24
ENDBRANCH  20  21
ENDBRANCH  19  20
ENDBRANCH   1  19
TORSDOF 6
ENDMDL
MODEL 3
REMARK VINA RESULT:      -8.2      3.149      7.419
REMARK  Name = 
REMARK  6 active torsions:
REMARK  status: ('A' for Active; 'I' for Inactive)
REMARK    1  A    between atoms: C_2  and  C_25
REMARK    2  A    between atoms: N_3  and  C_4
REMARK    3  A    between atoms: C_4  and  C_5
REMARK    4  A    between atoms: C_5  and  C_6
REMARK    5  A    between atoms: C_6  and  N_7
REMARK    6  A    between atoms: N_7  and  C_19
REMARK                            x       y       z     vdW  Elec       q    Type
REMARK                         _______ _______ _______ _____ _____    ______ ____
ROOT
ATOM      1  N   UNL     1       4.515   5.602  18.310  0.00  0.00    +0.000 N 
ATOM      2  C   UNL     1       4.222   4.385  18.952  0.00  0.00    +0.000 C 
ATOM      3  N   UNL     1       5.090   3.404  19.039  0.00  0.00    +0.000 NA
ATOM      4  S   UNL     1       4.479   2.083  19.788  0.00  0.00    +0.000 S 
ATOM      5  O   UNL     1       5.085   1.915  21.089  0.00  0.00    +0.000 OA
ATOM      6  O   UNL     1       4.321   1.003  18.840  0.00  0.00    +0.000 OA
ATOM      7  C   UNL     1       2.898   2.756  20.045  0.00  0.00    +0.000 A 
ATOM      8  C   UNL     1       1.817   2.139  20.656  0.00  0.00    +0.000 A 
ATOM      9  C   UNL     1       0.651   2.886  20.794  0.00  0.00    +0.000 A 
ATOM     10  C   UNL     1       0.622   4.222  20.375  0.00  0.00    +0.000 A 
ATOM     11  C   UNL     1       1.756   4.824  19.813  0.00  0.00    +0.000 A 
ATOM     12  C   UNL     1       2.892   4.060  19.583  0.00  0.00    +0.000 A 
ENDROOT
BRANCH   1  13
ATOM     13  C   UNL     1       5.847   6.125  18.230  0.00  0.00    +0.000 A 
ATOM     14  C   UNL     1       6.833   5.757  19.163  0.00  0.00    +0.000 A 
ATOM     15  C   UNL     1       8.108   6.342  19.156  0.00  0.00    +0.000 A 
ATOM     16  C   UNL     1       8.441   7.298  18.203  0.00  0.00    +0.000 A 
ATOM     17  C   UNL     1       7.507   7.654  17.245  0.00  0.00    +0.000 A 
ATOM     18  C   UNL     1       6.235   7.075  17.263  0.00  0.00    +0.000 A 
ENDBRANCH   1  13
BRANCH   1  19
ATOM     19  C   UNL     1       3.514   6.398  17.582  0.00  0.00    +0.000 C 
BRANCH  19  20
ATOM     20  C   UNL     1       3.456   7.858  18.023  0.00  0.00    +0.000 C 
BRANCH  20  21
ATOM     21  C   UNL     1       2.028   8.369  17.888  0.00  0.00    +0.000 C 
BRANCH  21  24
ATOM     22  O   UNL     1      -0.094  10.166  18.227  0.00  0.00    +0.000 OA
ATOM     23  C   UNL     1       0.423   9.665  19.218  0.00  0.00    +0.000 C 
ATOM     24  N   UNL     1       1.478   8.779  19.153  0.00  0.00    +0.000 N 
ATOM     25  H   UNL     1       1.832   8.422  20.038  0.00  0.00    +0.000 HD
BRANCH  23  26
ATOM     26  C   UNL     1      -0.047   9.998  20.599  0.00  0.00    +0.000 A 
ATOM     27  C   UNL     1      -0.036   9.005  21.571  0.00  0.00    +0.000 A 
ATOM     28  C   UNL     1      -0.485   9.329  22.846  0.00  0.00    +0.000 A 
ATOM     29  C   UNL     1      -0.927  10.623  23.102  0.00  0.00    +0.000 A 
ATOM     30  C   UNL     1      -0.898  11.550  22.071  0.00  0.00    +0.000 A 
ATOM     31  N   UNL     1      -0.467  11.276  20.819  0.00  0.00    +0.000 NA
ENDBRANCH  23  26
ENDBRANCH  21  24
ENDBRANCH  20  21
ENDBRANCH  19  20
ENDBRANCH   1  19
TORSDOF 6
ENDMDL
MODEL 4
REMARK VINA RESULT:      -8.2      3.622      6.907
REMARK  Name = 
REMARK  6 active torsions:
REMARK  status: ('A' for Active; 'I' for Inactive)
REMARK    1  A    between atoms: C_2  and  C_25
REMARK    2  A    between atoms: N_3  and  C_4
REMARK    3  A    between atoms: C_4  and  C_5
REMARK    4  A    between atoms: C_5  and  C_6
REMARK    5  A    between atoms: C_6  and  N_7
REMARK    6  A    between atoms: N_7  and  C_19
REMARK                            x       y       z     vdW  Elec       q    Type
REMARK                         _______ _______ _______ _____ _____    ______ ____
ROOT
ATOM      1  N   UNL     1       2.061   6.796  19.948  0.00  0.00    +0.000 N 
ATOM      2  C   UNL     1       2.081   5.405  20.156  0.00  0.00    +0.000 C 
ATOM      3  N   UNL     1       1.954   4.865  21.346  0.00  0.00    +0.000 NA
ATOM      4  S   UNL     1       2.067   3.232  21.317  0.00  0.00    +0.000 S 
ATOM      5  O   UNL     1       0.779   2.633  21.584  0.00  0.00    +0.000 OA
ATOM      6  O   UNL     1       3.290   2.807  21.959  0.00  0.00    +0.000 OA
ATOM      7  C   UNL     1       2.337   3.117  19.604  0.00  0.00    +0.000 A 
ATOM      8  C   UNL     1       2.532   1.960  18.865  0.00  0.00    +0.000 A 
ATOM      9  C   UNL     1       2.688   2.102  17.490  0.00  0.00    +0.000 A 
ATOM     10  C   UNL     1       2.587   3.367  16.900  0.00  0.00    +0.000 A 
ATOM     11  C   UNL     1       2.333   4.504  17.678  0.00  0.00    +0.000 A 
ATOM     12  C   UNL     1       2.272   4.388  19.060  0.00  0.00    +0.000 A 
ENDROOT
BRANCH   1  13
ATOM     13  C   UNL     1       1.345   7.689  20.812  0.00  0.00    +0.000 A 
ATOM     14  C   UNL     1       2.020   8.524  21.719  0.00  0.00    +0.000 A 
ATOM     15  C   UNL     1       1.326   9.324  22.639  0.00  0.00    +0.000 A 
ATOM     16  C   UNL     1      -0.064   9.327  22.666  0.00  0.00    +0.000 A 
ATOM     17  C   UNL     1      -0.760   8.546  21.759  0.00  0.00    +0.000 A 
ATOM     18  C   UNL     1      -0.064   7.744  20.851  0.00  0.00    +0.000 A 
ENDBRANCH   1  13
BRANCH   1  19
ATOM     19  C   UNL     1       2.838   7.472  18.897  0.00  0.00    +0.000 C 
BRANCH  19  20
ATOM     20  C   UNL     1       1.979   8.032  17.767  0.00  0.00    +0.000 C 
BRANCH  20  21
ATOM     21  C   UNL     1       1.930   9.550  17.876  0.00  0.00    +0.000 C 
BRANCH  21  24
ATOM     22  O   UNL     1       1.087  11.391  19.812  0.00  0.00    +0.000 OA
ATOM     23  C   UNL     1       0.267  10.954  19.013  0.00  0.00    +0.000 C 
ATOM     24  N   UNL     1       0.584  10.037  18.031  0.00  0.00    +0.000 N 
ATOM     25  H   UNL     1      -0.174   9.742  17.420  0.00  0.00    +0.000 HD
BRANCH  23  26
ATOM     26  C   UNL     1      -1.168  11.374  19.056  0.00  0.00    +0.000 A 
ATOM     27  C   UNL     1      -2.002  11.024  18.001  0.00  0.00    +0.000 A 
ATOM     28  C   UNL     1      -3.330  11.430  18.052  0.00  0.00    +0.000 A 
ATOM     29  C   UNL     1      -3.775  12.166  19.145  0.00  0.00    +0.000 A 
ATOM     30  C   UNL     1      -2.870  12.465  20.155  0.00  0.00    +0.000 A 
ATOM     31  N   UNL     1      -1.572  12.086  20.145  0.00  0.00    +0.000 NA
ENDBRANCH  23  26
ENDBRANCH  21  24
ENDBRANCH  20  21
ENDBRANCH  19  20
ENDBRANCH   1  19
TORSDOF 6
ENDMDL
MODEL 5
REMARK VINA RESULT:      -7.9      3.215      7.081
REMARK  Name = 
REMARK  6 active torsions:
REMARK  status: ('A' for Active; 'I' for Inactive)
REMARK    1  A    between atoms: C_2  and  C_25
REMARK    2  A    between atoms: N_3  and  C_4
REMARK    3  A    between atoms: C_4  and  C_5
REMARK    4  A    between atoms: C_5  and  C_6
REMARK    5  A    between atoms: C_6  and  N_7
REMARK    6  A    between atoms: N_7  and  C_19
REMARK                            x       y       z     vdW  Elec       q    Type
REMARK                         _______ _______ _______ _____ _____    ______ ____
ROOT
ATOM      1  N   UNL     1       4.477   5.657  18.332  0.00  0.00    +0.000 N 
ATOM      2  C   UNL     1       4.197   4.423  18.945  0.00  0.00    +0.000 C 
ATOM      3  N   UNL     1       5.067   3.441  18.988  0.00  0.00    +0.000 NA
ATOM      4  S   UNL     1       4.471   2.098  19.710  0.00  0.00    +0.000 S 
ATOM      5  O   UNL     1       5.101   1.894  20.995  0.00  0.00    +0.000 OA
ATOM      6  O   UNL     1       4.297   1.046  18.735  0.00  0.00    +0.000 OA
ATOM      7  C   UNL     1       2.894   2.761  20.015  0.00  0.00    +0.000 A 
ATOM      8  C   UNL     1       1.825   2.126  20.628  0.00  0.00    +0.000 A 
ATOM      9  C   UNL     1       0.662   2.868  20.808  0.00  0.00    +0.000 A 
ATOM     10  C   UNL     1       0.624   4.215  20.429  0.00  0.00    +0.000 A 
ATOM     11  C   UNL     1       1.747   4.834  19.863  0.00  0.00    +0.000 A 
ATOM     12  C   UNL     1       2.880   4.078  19.590  0.00  0.00    +0.000 A 
ENDROOT
BRANCH   1  13
ATOM     13  C   UNL     1       5.808   6.184  18.243  0.00  0.00    +0.000 A 
ATOM     14  C   UNL     1       6.827   5.742  19.105  0.00  0.00    +0.000 A 
ATOM     15  C   UNL     1       8.103   6.325  19.095  0.00  0.00    +0.000 A 
ATOM     16  C   UNL     1       8.403   7.354  18.210  0.00  0.00    +0.000 A 
ATOM     17  C   UNL     1       7.434   7.786  17.319  0.00  0.00    +0.000 A 
ATOM     18  C   UNL     1       6.162   7.209  17.341  0.00  0.00    +0.000 A 
ENDBRANCH   1  13
BRANCH   1  19
ATOM     19  C   UNL     1       3.463   6.473  17.646  0.00  0.00    +0.000 C 
BRANCH  19  20
ATOM     20  C   UNL     1       3.007   7.687  18.452  0.00  0.00    +0.000 C 
BRANCH  20  21
ATOM     21  C   UNL     1       1.893   8.402  17.699  0.00  0.00    +0.000 C 
BRANCH  21  24
ATOM     22  O   UNL     1       0.221   9.994  19.285  0.00  0.00    +0.000 OA
ATOM     23  C   UNL     1       1.118  10.530  18.646  0.00  0.00    +0.000 C 
ATOM     24  N   UNL     1       1.985   9.832  17.830  0.00  0.00    +0.000 N 
ATOM     25  H   UNL     1       2.695  10.377  17.345  0.00  0.00    +0.000 HD
BRANCH  23  26
ATOM     26  C   UNL     1       1.332  12.010  18.688  0.00  0.00    +0.000 A 
ATOM     27  C   UNL     1       2.492  12.538  18.133  0.00  0.00    +0.000 A 
ATOM     28  C   UNL     1       2.679  13.914  18.189  0.00  0.00    +0.000 A 
ATOM     29  C   UNL     1       1.711  14.708  18.794  0.00  0.00    +0.000 A 
ATOM     30  C   UNL     1       0.582  14.093  19.318  0.00  0.00    +0.000 A 
ATOM     31  N   UNL     1       0.360  12.760  19.281  0.00  0.00    +0.000 NA
ENDBRANCH  23  26
ENDBRANCH  21  24
ENDBRANCH  20  21
ENDBRANCH  19  20
ENDBRANCH   1  19
TORSDOF 6
ENDMDL
MODEL 6
REMARK VINA RESULT:      -7.8      3.710      6.924
REMARK  Name = 
REMARK  6 active torsions:
REMARK  status: ('A' for Active; 'I' for Inactive)
REMARK    1  A    between atoms: C_2  and  C_25
REMARK    2  A    between atoms: N_3  and  C_4
REMARK    3  A    between atoms: C_4  and  C_5
REMARK    4  A    between atoms: C_5  and  C_6
REMARK    5  A    between atoms: C_6  and  N_7
REMARK    6  A    between atoms: N_7  and  C_19
REMARK                            x       y       z     vdW  Elec       q    Type
REMARK                         _______ _______ _______ _____ _____    ______ ____
ROOT
ATOM      1  N   UNL     1       1.991   6.776  20.103  0.00  0.00    +0.000 N 
ATOM      2  C   UNL     1       2.037   5.380  20.268  0.00  0.00    +0.000 C 
ATOM      3  N   UNL     1       1.973   4.804  21.445  0.00  0.00    +0.000 NA
ATOM      4  S   UNL     1       2.102   3.174  21.362  0.00  0.00    +0.000 S 
ATOM      5  O   UNL     1       0.836   2.551  21.670  0.00  0.00    +0.000 OA
ATOM      6  O   UNL     1       3.359   2.746  21.934  0.00  0.00    +0.000 OA
ATOM      7  C   UNL     1       2.294   3.113  19.636  0.00  0.00    +0.000 A 
ATOM      8  C   UNL     1       2.468   1.981  18.854  0.00  0.00    +0.000 A 
ATOM      9  C   UNL     1       2.558   2.165  17.478  0.00  0.00    +0.000 A 
ATOM     10  C   UNL     1       2.415   3.446  16.932  0.00  0.00    +0.000 A 
ATOM     11  C   UNL     1       2.184   4.557  17.755  0.00  0.00    +0.000 A 
ATOM     12  C   UNL     1       2.189   4.399  19.134  0.00  0.00    +0.000 A 
ENDROOT
BRANCH   1  13
ATOM     13  C   UNL     1       1.307   7.634  21.025  0.00  0.00    +0.000 A 
ATOM     14  C   UNL     1      -0.097   7.656  21.098  0.00  0.00    +0.000 A 
ATOM     15  C   UNL     1      -0.777   8.565  21.923  0.00  0.00    +0.000 A 
ATOM     16  C   UNL     1      -0.073   9.466  22.712  0.00  0.00    +0.000 A 
ATOM     17  C   UNL     1       1.312   9.445  22.694  0.00  0.00    +0.000 A 
ATOM     18  C   UNL     1       1.984   8.544  21.864  0.00  0.00    +0.000 A 
ENDBRANCH   1  13
BRANCH   1  19
ATOM     19  C   UNL     1       2.711   7.493  19.038  0.00  0.00    +0.000 C 
BRANCH  19  20
ATOM     20  C   UNL     1       1.798   8.038  17.943  0.00  0.00    +0.000 C 
BRANCH  20  21
ATOM     21  C   UNL     1       2.121   9.506  17.701  0.00  0.00    +0.000 C 
BRANCH  21  24
ATOM     22  O   UNL     1      -0.580  10.231  17.850  0.00  0.00    +0.000 OA
ATOM     23  C   UNL     1       0.194  10.653  18.701  0.00  0.00    +0.000 C 
ATOM     24  N   UNL     1       1.543  10.360  18.705  0.00  0.00    +0.000 N 
ATOM     25  H   UNL     1       2.096  10.762  19.459  0.00  0.00    +0.000 HD
BRANCH  23  26
ATOM     26  C   UNL     1      -0.268  11.549  19.806  0.00  0.00    +0.000 A 
ATOM     27  C   UNL     1      -1.630  11.647  20.066  0.00  0.00    +0.000 A 
ATOM     28  C   UNL     1      -2.043  12.491  21.090  0.00  0.00    +0.000 A 
ATOM     29  C   UNL     1      -1.090  13.202  21.811  0.00  0.00    +0.000 A 
ATOM     30  C   UNL     1       0.248  13.037  21.484  0.00  0.00    +0.000 A 
ATOM     31  N   UNL     1       0.691  12.225  20.498  0.00  0.00    +0.000 NA
ENDBRANCH  23  26
ENDBRANCH  21  24
ENDBRANCH  20  21
ENDBRANCH  19  20
ENDBRANCH   1  19
TORSDOF 6
ENDMDL
MODEL 7
REMARK VINA RESULT:      -7.8      3.709      7.049
REMARK  Name = 
REMARK  6 active torsions:
REMARK  status: ('A' for Active; 'I' for Inactive)
REMARK    1  A    between atoms: C_2  and  C_25
REMARK    2  A    between atoms: N_3  and  C_4
REMARK    3  A    between atoms: C_4  and  C_5
REMARK    4  A    between atoms: C_5  and  C_6
REMARK    5  A    between atoms: C_6  and  N_7
REMARK    6  A    between atoms: N_7  and  C_19
REMARK                            x       y       z     vdW  Elec       q    Type
REMARK                         _______ _______ _______ _____ _____    ______ ____
ROOT
ATOM      1  N   UNL     1       1.964   6.876  20.036  0.00  0.00    +0.000 N 
ATOM      2  C   UNL     1       2.009   5.484  20.231  0.00  0.00    +0.000 C 
ATOM      3  N   UNL     1       1.942   4.934  21.421  0.00  0.00    +0.000 NA
ATOM      4  S   UNL     1       2.071   3.303  21.373  0.00  0.00    +0.000 S 
ATOM      5  O   UNL     1       0.804   2.686  21.692  0.00  0.00    +0.000 OA
ATOM      6  O   UNL     1       3.327   2.887  21.957  0.00  0.00    +0.000 OA
ATOM      7  C   UNL     1       2.267   3.204  19.649  0.00  0.00    +0.000 A 
ATOM      8  C   UNL     1       2.443   2.055  18.893  0.00  0.00    +0.000 A 
ATOM      9  C   UNL     1       2.535   2.209  17.513  0.00  0.00    +0.000 A 
ATOM     10  C   UNL     1       2.393   3.478  16.939  0.00  0.00    +0.000 A 
ATOM     11  C   UNL     1       2.161   4.606  17.737  0.00  0.00    +0.000 A 
ATOM     12  C   UNL     1       2.163   4.478  19.120  0.00  0.00    +0.000 A 
ENDROOT
BRANCH   1  13
ATOM     13  C   UNL     1       1.277   7.754  20.938  0.00  0.00    +0.000 A 
ATOM     14  C   UNL     1       1.982   8.600  21.813  0.00  0.00    +0.000 A 
ATOM     15  C   UNL     1       1.322   9.385  22.769  0.00  0.00    +0.000 A 
ATOM     16  C   UNL     1      -0.065   9.361  22.867  0.00  0.00    +0.000 A 
ATOM     17  C   UNL     1      -0.793   8.570  21.994  0.00  0.00    +0.000 A 
ATOM     18  C   UNL     1      -0.129   7.783  21.049  0.00  0.00    +0.000 A 
ENDBRANCH   1  13
BRANCH   1  19
ATOM     19  C   UNL     1       2.686   7.570  18.957  0.00  0.00    +0.000 C 
BRANCH  19  20
ATOM     20  C   UNL     1       1.767   8.209  17.919  0.00  0.00    +0.000 C 
BRANCH  20  21
ATOM     21  C   UNL     1       2.125   9.681  17.767  0.00  0.00    +0.000 C 
BRANCH  21  24
ATOM     22  O   UNL     1      -0.605  10.284  17.926  0.00  0.00    +0.000 OA
ATOM     23  C   UNL     1       0.151  10.728  18.782  0.00  0.00    +0.000 C 
ATOM     24  N   UNL     1       1.510  10.494  18.783  0.00  0.00    +0.000 N 
ATOM     25  H   UNL     1       2.046  10.910  19.542  0.00  0.00    +0.000 HD
BRANCH  23  26
ATOM     26  C   UNL     1      -0.350  11.588  19.899  0.00  0.00    +0.000 A 
ATOM     27  C   UNL     1       0.567  12.296  20.666  0.00  0.00    +0.000 A 
ATOM     28  C   UNL     1       0.086  13.083  21.705  0.00  0.00    +0.000 A 
ATOM     29  C   UNL     1      -1.284  13.133  21.942  0.00  0.00    +0.000 A 
ATOM     30  C   UNL     1      -2.126  12.396  21.121  0.00  0.00    +0.000 A 
ATOM     31  N   UNL     1      -1.698  11.621  20.098  0.00  0.00    +0.000 NA
ENDBRANCH  23  26
ENDBRANCH  21  24
ENDBRANCH  20  21
ENDBRANCH  19  20
ENDBRANCH   1  19
TORSDOF 6
ENDMDL
MODEL 8
REMARK VINA RESULT:      -7.8      0.908      1.079
REMARK  Name = 
REMARK  6 active torsions:
REMARK  status: ('A' for Active; 'I' for Inactive)
REMARK    1  A    between atoms: C_2  and  C_25
REMARK    2  A    between atoms: N_3  and  C_4
REMARK    3  A    between atoms: C_4  and  C_5
REMARK    4  A    between atoms: C_5  and  C_6
REMARK    5  A    between atoms: C_6  and  N_7
REMARK    6  A    between atoms: N_7  and  C_19
REMARK                            x       y       z     vdW  Elec       q    Type
REMARK                         _______ _______ _______ _____ _____    ______ ____
ROOT
ATOM      1  N   UNL     1       2.964   6.605  19.011  0.00  0.00    +0.000 N 
ATOM      2  C   UNL     1       2.575   5.318  19.423  0.00  0.00    +0.000 C 
ATOM      3  N   UNL     1       1.738   5.115  20.414  0.00  0.00    +0.000 NA
ATOM      4  S   UNL     1       1.496   3.525  20.723  0.00  0.00    +0.000 S 
ATOM      5  O   UNL     1       0.163   3.132  20.328  0.00  0.00    +0.000 OA
ATOM      6  O   UNL     1       2.085   3.171  21.995  0.00  0.00    +0.000 OA
ATOM      7  C   UNL     1       2.583   2.952  19.494  0.00  0.00    +0.000 A 
ATOM      8  C   UNL     1       2.878   1.631  19.191  0.00  0.00    +0.000 A 
ATOM      9  C   UNL     1       3.750   1.402  18.130  0.00  0.00    +0.000 A 
ATOM     10  C   UNL     1       4.243   2.478  17.383  0.00  0.00    +0.000 A 
ATOM     11  C   UNL     1       3.874   3.794  17.689  0.00  0.00    +0.000 A 
ATOM     12  C   UNL     1       3.083   4.042  18.803  0.00  0.00    +0.000 A 
ENDROOT
BRANCH   1  13
ATOM     13  C   UNL     1       2.116   7.750  19.172  0.00  0.00    +0.000 A 
ATOM     14  C   UNL     1       1.750   8.548  18.075  0.00  0.00    +0.000 A 
ATOM     15  C   UNL     1       1.007   9.727  18.237  0.00  0.00    +0.000 A 
ATOM     16  C   UNL     1       0.592  10.132  19.501  0.00  0.00    +0.000 A 
ATOM     17  C   UNL     1       0.901   9.348  20.599  0.00  0.00    +0.000 A 
ATOM     18  C   UNL     1       1.650   8.180  20.432  0.00  0.00    +0.000 A 
ENDBRANCH   1  13
BRANCH   1  19
ATOM     19  C   UNL     1       4.297   6.918  18.471  0.00  0.00    +0.000 C 
BRANCH  19  20
ATOM     20  C   UNL     1       4.315   7.098  16.956  0.00  0.00    +0.000 C 
BRANCH  20  21
ATOM     21  C   UNL     1       5.660   6.636  16.410  0.00  0.00    +0.000 C 
BRANCH  21  24
ATOM     22  O   UNL     1       7.747   5.287  15.116  0.00  0.00    +0.000 OA
ATOM     23  C   UNL     1       6.601   5.137  14.709  0.00  0.00    +0.000 C 
ATOM     24  N   UNL     1       5.510   5.765  15.273  0.00  0.00    +0.000 N 
ATOM     25  H   UNL     1       4.603   5.569  14.856  0.00  0.00    +0.000 HD
BRANCH  23  26
ATOM     26  C   UNL     1       6.297   4.259  13.536  0.00  0.00    +0.000 A 
ATOM     27  C   UNL     1       4.985   3.859  13.318  0.00  0.00    +0.000 A 
ATOM     28  C   UNL     1       4.721   3.036  12.229  0.00  0.00    +0.000 A 
ATOM     29  C   UNL     1       5.769   2.645  11.404  0.00  0.00    +0.000 A 
ATOM     30  C   UNL     1       7.048   3.099  11.695  0.00  0.00    +0.000 A 
ATOM     31  N   UNL     1       7.346   3.901  12.742  0.00  0.00    +0.000 NA
ENDBRANCH  23  26
ENDBRANCH  21  24
ENDBRANCH  20  21
ENDBRANCH  19  20
ENDBRANCH   1  19
TORSDOF 6
ENDMDL
MODEL 9
REMARK VINA RESULT:      -7.8      3.681      7.038
REMARK  Name = 
REMARK  6 active torsions:
REMARK  status: ('A' for Active; 'I' for Inactive)
REMARK    1  A    between atoms: C_2  and  C_25
REMARK    2  A    between atoms: N_3  and  C_4
REMARK    3  A    between atoms: C_4  and  C_5
REMARK    4  A    between atoms: C_5  and  C_6
REMARK    5  A    between atoms: C_6  and  N_7
REMARK    6  A    between atoms: N_7  and  C_19
REMARK                            x       y       z     vdW  Elec       q    Type
REMARK                         _______ _______ _______ _____ _____    ______ ____
ROOT
ATOM      1  N   UNL     1       2.023   6.769  20.050  0.00  0.00    +0.000 N 
ATOM      2  C   UNL     1       2.061   5.374  20.226  0.00  0.00    +0.000 C 
ATOM      3  N   UNL     1       1.977   4.807  21.406  0.00  0.00    +0.000 NA
ATOM      4  S   UNL     1       2.101   3.177  21.337  0.00  0.00    +0.000 S 
ATOM      5  O   UNL     1       0.828   2.561  21.631  0.00  0.00    +0.000 OA
ATOM      6  O   UNL     1       3.348   2.747  21.929  0.00  0.00    +0.000 OA
ATOM      7  C   UNL     1       2.317   3.102  19.614  0.00  0.00    +0.000 A 
ATOM      8  C   UNL     1       2.497   1.964  18.843  0.00  0.00    +0.000 A 
ATOM      9  C   UNL     1       2.607   2.137  17.467  0.00  0.00    +0.000 A 
ATOM     10  C   UNL     1       2.477   3.415  16.909  0.00  0.00    +0.000 A 
ATOM     11  C   UNL     1       2.239   4.532  17.721  0.00  0.00    +0.000 A 
ATOM     12  C   UNL     1       2.224   4.384  19.102  0.00  0.00    +0.000 A 
ENDROOT
BRANCH   1  13
ATOM     13  C   UNL     1       1.329   7.637  20.956  0.00  0.00    +0.000 A 
ATOM     14  C   UNL     1      -0.076   7.670  21.005  0.00  0.00    +0.000 A 
ATOM     15  C   UNL     1      -0.763   8.588  21.813  0.00  0.00    +0.000 A 
ATOM     16  C   UNL     1      -0.065   9.487  22.611  0.00  0.00    +0.000 A 
ATOM     17  C   UNL     1       1.319   9.454  22.618  0.00  0.00    +0.000 A 
ATOM     18  C   UNL     1       1.998   8.544  21.803  0.00  0.00    +0.000 A 
ENDBRANCH   1  13
BRANCH   1  19
ATOM     19  C   UNL     1       2.760   7.476  18.990  0.00  0.00    +0.000 C 
BRANCH  19  20
ATOM     20  C   UNL     1       1.857   8.096  17.927  0.00  0.00    +0.000 C 
BRANCH  20  21
ATOM     21  C   UNL     1       2.032   9.609  17.937  0.00  0.00    +0.000 C 
BRANCH  21  24
ATOM     22  O   UNL     1       2.123  12.301  18.704  0.00  0.00    +0.000 OA
ATOM     23  C   UNL     1       1.223  11.592  19.137  0.00  0.00    +0.000 C 
ATOM     24  N   UNL     1       1.100  10.253  18.825  0.00  0.00    +0.000 N 
ATOM     25  H   UNL     1       0.314   9.757  19.239  0.00  0.00    +0.000 HD
BRANCH  23  26
ATOM     26  C   UNL     1       0.183  12.129  20.068  0.00  0.00    +0.000 A 
ATOM     27  C   UNL     1       0.588  12.848  21.186  0.00  0.00    +0.000 A 
ATOM     28  C   UNL     1      -0.391  13.332  22.046  0.00  0.00    +0.000 A 
ATOM     29  C   UNL     1      -1.729  13.081  21.762  0.00  0.00    +0.000 A 
ATOM     30  C   UNL     1      -2.040  12.357  20.620  0.00  0.00    +0.000 A 
ATOM     31  N   UNL     1      -1.119  11.872  19.757  0.00  0.00    +0.000 NA
ENDBRANCH  23  26
ENDBRANCH  21  24
ENDBRANCH  20  21
ENDBRANCH  19  20
ENDBRANCH   1  19
TORSDOF 6
ENDMDL
