MODEL 1
REMARK VINA RESULT:     -10.5      0.000      0.000
REMARK  Name = 
REMARK  8 active torsions:
REMARK  status: ('A' for Active; 'I' for Inactive)
REMARK    1  A    between atoms: C_1  and  C_2
REMARK    2  A    between atoms: C_7  and  C_8
REMARK    3  A    between atoms: C_8  and  N_9
REMARK    4  A    between atoms: N_9  and  C_10
REMARK    5  A    between atoms: C_10  and  C_11
REMARK    6  A    between atoms: C_11  and  C_12
REMARK    7  A    between atoms: C_11  and  C_13
REMARK    8  A    between atoms: C_21  and  C_22
REMARK                            x       y       z     vdW  Elec       q    Type
REMARK                         _______ _______ _______ _____ _____    ______ ____
ROOT
ATOM      1  C   UNL     1       1.494   3.411  20.670  0.00  0.00    +0.000 C 
ATOM      2  C   UNL     1       2.114   3.214  22.066  0.00  0.00    +0.000 C 
ENDROOT
BRANCH   1   3
ATOM      3  C   UNL     1       2.397   2.863  19.514  0.00  0.00    +0.000 C 
ATOM      4  C   UNL     1       1.824   3.151  18.107  0.00  0.00    +0.000 C 
ATOM      5  C   UNL     1       2.758   2.682  16.990  0.00  0.00    +0.000 C 
ATOM      6  C   UNL     1       4.067   3.379  17.191  0.00  0.00    +0.000 C 
ATOM      7  C   UNL     1       4.492   4.365  16.385  0.00  0.00    +0.000 C 
ATOM      8  C   UNL     1       5.566   5.209  16.838  0.00  0.00    +0.000 A 
ATOM      9  C   UNL     1       6.243   4.893  17.953  0.00  0.00    +0.000 A 
ATOM     10  C   UNL     1       7.218   5.789  18.508  0.00  0.00    +0.000 A 
ATOM     11  C   UNL     1       7.414   6.982  17.934  0.00  0.00    +0.000 A 
ATOM     12  C   UNL     1       8.317   8.051  18.456  0.00  0.00    +0.000 C 
ATOM     13  O   UNL     1       6.739   7.343  16.745  0.00  0.00    +0.000 OA
ATOM     14  C   UNL     1       5.850   6.496  16.146  0.00  0.00    +0.000 A 
ATOM     15  O   UNL     1       5.285   6.798  15.097  0.00  0.00    +0.000 OA
ATOM     16  O   UNL     1       6.018   3.759  18.704  0.00  0.00    +0.000 OA
ATOM     17  C   UNL     1       4.775   3.049  18.483  0.00  0.00    +0.000 C 
ATOM     18  C   UNL     1       3.855   3.360  19.669  0.00  0.00    +0.000 C 
ENDBRANCH   1   3
BRANCH   1  19
ATOM     19  C   UNL     1       1.090   4.899  20.509  0.00  0.00    +0.000 C 
BRANCH  19  20
ATOM     20  N   UNL     1       2.195   5.790  20.851  0.00  0.00    +0.000 NA
ATOM     21  H   UNL     1       1.980   6.288  21.715  0.00  0.00    +0.000 HD
BRANCH  20  22
ATOM     22  C   UNL     1       2.411   6.817  19.818  0.00  0.00    +0.000 C 
BRANCH  22  29
ATOM     23  C   UNL     1      -2.026  12.813  22.600  0.00  0.00    +0.000 C 
ATOM     24  C   UNL     1      -1.210  11.600  22.263  0.00  0.00    +0.000 A 
ATOM     25  C   UNL     1      -1.011  10.582  23.197  0.00  0.00    +0.000 A 
ATOM     26  C   UNL     1      -0.251   9.454  22.861  0.00  0.00    +0.000 A 
ATOM     27  C   UNL     1       0.324   9.302  21.607  0.00  0.00    +0.000 A 
ATOM     28  N   UNL     1       1.046   8.197  21.332  0.00  0.00    +0.000 NA
ATOM     29  C   UNL     1       1.588   8.064  20.095  0.00  0.00    +0.000 A 
ATOM     30  C   UNL     1       1.435   9.031  19.106  0.00  0.00    +0.000 A 
ATOM     31  C   UNL     1       0.697  10.174  19.396  0.00  0.00    +0.000 A 
ATOM     32  C   UNL     1       0.122  10.327  20.662  0.00  0.00    +0.000 A 
ATOM     33  C   UNL     1      -0.637  11.467  20.996  0.00  0.00    +0.000 A 
ENDBRANCH  22  29
ENDBRANCH  20  22
ENDBRANCH  19  20
ENDBRANCH   1  19
TORSDOF 5
ENDMDL
MODEL 2
REMARK VINA RESULT:     -10.3      0.847      1.205
REMARK  Name = 
REMARK  8 active torsions:
REMARK  status: ('A' for Active; 'I' for Inactive)
REMARK    1  A    between atoms: C_1  and  C_2
REMARK    2  A    between atoms: C_7  and  C_8
REMARK    3  A    between atoms: C_8  and  N_9
REMARK    4  A    between atoms: N_9  and  C_10
REMARK    5  A    between atoms: C_10  and  C_11
REMARK    6  A    between atoms: C_11  and  C_12
REMARK    7  A    between atoms: C_11  and  C_13
REMARK    8  A    between atoms: C_21  and  C_22
REMARK                            x       y       z     vdW  Elec       q    Type
REMARK                         _______ _______ _______ _____ _____    ______ ____
ROOT
ATOM      1  C   UNL     1       1.530   3.318  20.701  0.00  0.00    +0.000 C 
ATOM      2  C   UNL     1       2.218   3.289  22.079  0.00  0.00    +0.000 C 
ENDROOT
BRANCH   1   3
ATOM      3  C   UNL     1       2.440   2.771  19.549  0.00  0.00    +0.000 C 
ATOM      4  C   UNL     1       1.861   3.037  18.140  0.00  0.00    +0.000 C 
ATOM      5  C   UNL     1       2.799   2.569  17.026  0.00  0.00    +0.000 C 
ATOM      6  C   UNL     1       4.099   3.286  17.218  0.00  0.00    +0.000 C 
ATOM      7  C   UNL     1       4.510   4.269  16.402  0.00  0.00    +0.000 C 
ATOM      8  C   UNL     1       5.573   5.133  16.844  0.00  0.00    +0.000 A 
ATOM      9  C   UNL     1       6.256   4.837  17.962  0.00  0.00    +0.000 A 
ATOM     10  C   UNL     1       7.219   5.751  18.507  0.00  0.00    +0.000 A 
ATOM     11  C   UNL     1       7.399   6.940  17.920  0.00  0.00    +0.000 A 
ATOM     12  C   UNL     1       8.288   8.026  18.430  0.00  0.00    +0.000 C 
ATOM     13  O   UNL     1       6.717   7.281  16.729  0.00  0.00    +0.000 OA
ATOM     14  C   UNL     1       5.838   6.415  16.139  0.00  0.00    +0.000 A 
ATOM     15  O   UNL     1       5.269   6.700  15.088  0.00  0.00    +0.000 OA
ATOM     16  O   UNL     1       6.046   3.707  18.725  0.00  0.00    +0.000 OA
ATOM     17  C   UNL     1       4.814   2.978  18.512  0.00  0.00    +0.000 C 
ATOM     18  C   UNL     1       3.891   3.289  19.697  0.00  0.00    +0.000 C 
ENDBRANCH   1   3
BRANCH   1  19
ATOM     19  C   UNL     1       0.978   4.744  20.450  0.00  0.00    +0.000 C 
BRANCH  19  20
ATOM     20  N   UNL     1       1.926   5.767  20.885  0.00  0.00    +0.000 NA
ATOM     21  H   UNL     1       1.430   6.505  21.384  0.00  0.00    +0.000 HD
BRANCH  20  22
ATOM     22  C   UNL     1       2.599   6.410  19.745  0.00  0.00    +0.000 C 
BRANCH  22  29
ATOM     23  C   UNL     1      -0.909  13.555  19.582  0.00  0.00    +0.000 C 
ATOM     24  C   UNL     1      -0.307  12.199  19.810  0.00  0.00    +0.000 A 
ATOM     25  C   UNL     1      -0.431  11.552  21.040  0.00  0.00    +0.000 A 
ATOM     26  C   UNL     1       0.133  10.283  21.230  0.00  0.00    +0.000 A 
ATOM     27  C   UNL     1       0.823   9.627  20.221  0.00  0.00    +0.000 A 
ATOM     28  N   UNL     1       1.346   8.406  20.454  0.00  0.00    +0.000 NA
ATOM     29  C   UNL     1       2.006   7.778  19.449  0.00  0.00    +0.000 A 
ATOM     30  C   UNL     1       2.172   8.352  18.192  0.00  0.00    +0.000 A 
ATOM     31  C   UNL     1       1.639   9.616  17.958  0.00  0.00    +0.000 A 
ATOM     32  C   UNL     1       0.947  10.277  18.978  0.00  0.00    +0.000 A 
ATOM     33  C   UNL     1       0.387  11.556  18.782  0.00  0.00    +0.000 A 
ENDBRANCH  22  29
ENDBRANCH  20  22
ENDBRANCH  19  20
ENDBRANCH   1  19
TORSDOF 5
ENDMDL
MODEL 3
REMARK VINA RESULT:      -9.9      0.792      1.521
REMARK  Name = 
REMARK  8 active torsions:
REMARK  status: ('A' for Active; 'I' for Inactive)
REMARK    1  A    between atoms: C_1  and  C_2
REMARK    2  A    between atoms: C_7  and  C_8
REMARK    3  A    between atoms: C_8  and  N_9
REMARK    4  A    between atoms: N_9  and  C_10
REMARK    5  A    between atoms: C_10  and  C_11
REMARK    6  A    between atoms: C_11  and  C_12
REMARK    7  A    between atoms: C_11  and  C_13
REMARK    8  A    between atoms: C_21  and  C_22
REMARK                            x       y       z     vdW  Elec       q    Type
REMARK                         _______ _______ _______ _____ _____    ______ ____
ROOT
ATOM      1  C   UNL     1       1.474   3.498  20.664  0.00  0.00    +0.000 C 
ATOM      2  C   UNL     1       2.104   3.328  22.059  0.00  0.00    +0.000 C 
ENDROOT
BRANCH   1   3
ATOM      3  C   UNL     1       2.374   2.939  19.511  0.00  0.00    +0.000 C 
ATOM      4  C   UNL     1       1.803   3.225  18.102  0.00  0.00    +0.000 C 
ATOM      5  C   UNL     1       2.734   2.744  16.988  0.00  0.00    +0.000 C 
ATOM      6  C   UNL     1       4.048   3.433  17.186  0.00  0.00    +0.000 C 
ATOM      7  C   UNL     1       4.481   4.412  16.376  0.00  0.00    +0.000 C 
ATOM      8  C   UNL     1       5.560   5.251  16.825  0.00  0.00    +0.000 A 
ATOM      9  C   UNL     1       6.234   4.935  17.942  0.00  0.00    +0.000 A 
ATOM     10  C   UNL     1       7.216   5.826  18.494  0.00  0.00    +0.000 A 
ATOM     11  C   UNL     1       7.421   7.015  17.915  0.00  0.00    +0.000 A 
ATOM     12  C   UNL     1       8.330   8.079  18.432  0.00  0.00    +0.000 C 
ATOM     13  O   UNL     1       6.748   7.376  16.724  0.00  0.00    +0.000 OA
ATOM     14  C   UNL     1       5.853   6.532  16.128  0.00  0.00    +0.000 A 
ATOM     15  O   UNL     1       5.291   6.834  15.077  0.00  0.00    +0.000 OA
ATOM     16  O   UNL     1       6.001   3.805  18.699  0.00  0.00    +0.000 OA
ATOM     17  C   UNL     1       4.753   3.103  18.479  0.00  0.00    +0.000 C 
ATOM     18  C   UNL     1       3.835   3.426  19.665  0.00  0.00    +0.000 C 
ENDBRANCH   1   3
BRANCH   1  19
ATOM     19  C   UNL     1       1.058   4.980  20.482  0.00  0.00    +0.000 C 
BRANCH  19  20
ATOM     20  N   UNL     1       2.120   5.887  20.909  0.00  0.00    +0.000 NA
ATOM     21  H   UNL     1       1.872   6.310  21.803  0.00  0.00    +0.000 HD
BRANCH  20  22
ATOM     22  C   UNL     1       2.309   6.995  19.958  0.00  0.00    +0.000 C 
BRANCH  22  29
ATOM     23  C   UNL     1      -2.079  13.610  20.562  0.00  0.00    +0.000 C 
ATOM     24  C   UNL     1      -1.248  12.402  20.246  0.00  0.00    +0.000 A 
ATOM     25  C   UNL     1      -0.840  12.128  18.939  0.00  0.00    +0.000 A 
ATOM     26  C   UNL     1      -0.059  10.997  18.666  0.00  0.00    +0.000 A 
ATOM     27  C   UNL     1       0.337  10.118  19.664  0.00  0.00    +0.000 A 
ATOM     28  N   UNL     1       1.089   9.045  19.350  0.00  0.00    +0.000 NA
ATOM     29  C   UNL     1       1.475   8.206  20.344  0.00  0.00    +0.000 A 
ATOM     30  C   UNL     1       1.114   8.408  21.672  0.00  0.00    +0.000 A 
ATOM     31  C   UNL     1       0.330   9.511  21.992  0.00  0.00    +0.000 A 
ATOM     32  C   UNL     1      -0.071  10.394  20.984  0.00  0.00    +0.000 A 
ATOM     33  C   UNL     1      -0.862  11.527  21.265  0.00  0.00    +0.000 A 
ENDBRANCH  22  29
ENDBRANCH  20  22
ENDBRANCH  19  20
ENDBRANCH   1  19
TORSDOF 5
ENDMDL
MODEL 4
REMARK VINA RESULT:      -9.2      4.798      8.712
REMARK  Name = 
REMARK  8 active torsions:
REMARK  status: ('A' for Active; 'I' for Inactive)
REMARK    1  A    between atoms: C_1  and  C_2
REMARK    2  A    between atoms: C_7  and  C_8
REMARK    3  A    between atoms: C_8  and  N_9
REMARK    4  A    between atoms: N_9  and  C_10
REMARK    5  A    between atoms: C_10  and  C_11
REMARK    6  A    between atoms: C_11  and  C_12
REMARK    7  A    between atoms: C_11  and  C_13
REMARK    8  A    between atoms: C_21  and  C_22
REMARK                            x       y       z     vdW  Elec       q    Type
REMARK                         _______ _______ _______ _____ _____    ______ ____
ROOT
ATOM      1  C   UNL     1       7.357   7.588  18.126  0.00  0.00    +0.000 C 
ATOM      2  C   UNL     1       8.230   6.559  18.869  0.00  0.00    +0.000 C 
ENDROOT
BRANCH   1   3
ATOM      3  C   UNL     1       6.318   6.927  17.158  0.00  0.00    +0.000 C 
ATOM      4  C   UNL     1       6.849   5.641  16.483  0.00  0.00    +0.000 C 
ATOM      5  C   UNL     1       5.793   4.966  15.606  0.00  0.00    +0.000 C 
ATOM      6  C   UNL     1       4.619   4.667  16.484  0.00  0.00    +0.000 C 
ATOM      7  C   UNL     1       4.304   3.420  16.870  0.00  0.00    +0.000 C 
ATOM      8  C   UNL     1       3.398   3.251  17.975  0.00  0.00    +0.000 A 
ATOM      9  C   UNL     1       2.744   4.312  18.475  0.00  0.00    +0.000 A 
ATOM     10  C   UNL     1       1.949   4.200  19.666  0.00  0.00    +0.000 A 
ATOM     11  C   UNL     1       1.904   3.032  20.316  0.00  0.00    +0.000 A 
ATOM     12  C   UNL     1       1.205   2.795  21.614  0.00  0.00    +0.000 C 
ATOM     13  O   UNL     1       2.559   1.885  19.811  0.00  0.00    +0.000 OA
ATOM     14  C   UNL     1       3.274   1.929  18.647  0.00  0.00    +0.000 A 
ATOM     15  O   UNL     1       3.819   0.925  18.192  0.00  0.00    +0.000 OA
ATOM     16  O   UNL     1       2.836   5.591  17.969  0.00  0.00    +0.000 OA
ATOM     17  C   UNL     1       3.942   5.878  17.079  0.00  0.00    +0.000 C 
ATOM     18  C   UNL     1       4.963   6.701  17.873  0.00  0.00    +0.000 C 
ENDBRANCH   1   3
BRANCH   1  19
ATOM     19  C   UNL     1       8.283   8.629  17.447  0.00  0.00    +0.000 C 
BRANCH  19  20
ATOM     20  N   UNL     1       8.263   9.904  18.159  0.00  0.00    +0.000 NA
ATOM     21  H   UNL     1       8.453  10.664  17.507  0.00  0.00    +0.000 HD
BRANCH  20  22
ATOM     22  C   UNL     1       9.307   9.969  19.195  0.00  0.00    +0.000 C 
BRANCH  22  29
ATOM     23  C   UNL     1      12.331  17.282  18.333  0.00  0.00    +0.000 C 
ATOM     24  C   UNL     1      11.757  15.896  18.290  0.00  0.00    +0.000 A 
ATOM     25  C   UNL     1      11.527  15.249  17.075  0.00  0.00    +0.000 A 
ATOM     26  C   UNL     1      10.996  13.952  17.057  0.00  0.00    +0.000 A 
ATOM     27  C   UNL     1      10.685  13.268  18.223  0.00  0.00    +0.000 A 
ATOM     28  N   UNL     1      10.178  12.021  18.152  0.00  0.00    +0.000 NA
ATOM     29  C   UNL     1       9.893  11.366  19.306  0.00  0.00    +0.000 A 
ATOM     30  C   UNL     1      10.096  11.940  20.558  0.00  0.00    +0.000 A 
ATOM     31  C   UNL     1      10.611  13.230  20.628  0.00  0.00    +0.000 A 
ATOM     32  C   UNL     1      10.920  13.919  19.450  0.00  0.00    +0.000 A 
ATOM     33  C   UNL     1      11.449  15.225  19.475  0.00  0.00    +0.000 A 
ENDBRANCH  22  29
ENDBRANCH  20  22
ENDBRANCH  19  20
ENDBRANCH   1  19
TORSDOF 5
ENDMDL
MODEL 5
REMARK VINA RESULT:      -9.0      1.196      1.660
REMARK  Name = 
REMARK  8 active torsions:
REMARK  status: ('A' for Active; 'I' for Inactive)
REMARK    1  A    between atoms: C_1  and  C_2
REMARK    2  A    between atoms: C_7  and  C_8
REMARK    3  A    between atoms: C_8  and  N_9
REMARK    4  A    between atoms: N_9  and  C_10
REMARK    5  A    between atoms: C_10  and  C_11
REMARK    6  A    between atoms: C_11  and  C_12
REMARK    7  A    between atoms: C_11  and  C_13
REMARK    8  A    between atoms: C_21  and  C_22
REMARK                            x       y       z     vdW  Elec       q    Type
REMARK                         _______ _______ _______ _____ _____    ______ ____
ROOT
ATOM      1  C   UNL     1       1.428   3.729  20.637  0.00  0.00    +0.000 C 
ATOM      2  C   UNL     1       1.171   2.744  21.792  0.00  0.00    +0.000 C 
ENDROOT
BRANCH   1   3
ATOM      3  C   UNL     1       2.328   3.127  19.505  0.00  0.00    +0.000 C 
ATOM      4  C   UNL     1       1.766   3.377  18.086  0.00  0.00    +0.000 C 
ATOM      5  C   UNL     1       2.698   2.854  16.991  0.00  0.00    +0.000 C 
ATOM      6  C   UNL     1       4.018   3.535  17.175  0.00  0.00    +0.000 C 
ATOM      7  C   UNL     1       4.464   4.486  16.338  0.00  0.00    +0.000 C 
ATOM      8  C   UNL     1       5.550   5.326  16.768  0.00  0.00    +0.000 A 
ATOM      9  C   UNL     1       6.216   5.036  17.897  0.00  0.00    +0.000 A 
ATOM     10  C   UNL     1       7.204   5.934  18.427  0.00  0.00    +0.000 A 
ATOM     11  C   UNL     1       7.423   7.103  17.814  0.00  0.00    +0.000 A 
ATOM     12  C   UNL     1       8.342   8.173  18.304  0.00  0.00    +0.000 C 
ATOM     13  O   UNL     1       6.760   7.436  16.610  0.00  0.00    +0.000 OA
ATOM     14  C   UNL     1       5.859   6.583  16.035  0.00  0.00    +0.000 A 
ATOM     15  O   UNL     1       5.305   6.860  14.973  0.00  0.00    +0.000 OA
ATOM     16  O   UNL     1       5.967   3.933  18.685  0.00  0.00    +0.000 OA
ATOM     17  C   UNL     1       4.714   3.237  18.481  0.00  0.00    +0.000 C 
ATOM     18  C   UNL     1       3.794   3.604  19.651  0.00  0.00    +0.000 C 
ENDBRANCH   1   3
BRANCH   1  19
ATOM     19  C   UNL     1       1.958   5.060  21.227  0.00  0.00    +0.000 C 
BRANCH  19  20
ATOM     20  N   UNL     1       1.318   6.214  20.601  0.00  0.00    +0.000 NA
ATOM     21  H   UNL     1       1.810   6.455  19.741  0.00  0.00    +0.000 HD
BRANCH  20  22
ATOM     22  C   UNL     1       1.371   7.406  21.463  0.00  0.00    +0.000 C 
BRANCH  22  29
ATOM     23  C   UNL     1      -0.105  14.671  18.563  0.00  0.00    +0.000 C 
ATOM     24  C   UNL     1       0.126  13.381  19.293  0.00  0.00    +0.000 A 
ATOM     25  C   UNL     1      -0.088  13.283  20.669  0.00  0.00    +0.000 A 
ATOM     26  C   UNL     1       0.128  12.067  21.332  0.00  0.00    +0.000 A 
ATOM     27  C   UNL     1       0.553  10.929  20.661  0.00  0.00    +0.000 A 
ATOM     28  N   UNL     1       0.744   9.783  21.344  0.00  0.00    +0.000 NA
ATOM     29  C   UNL     1       1.147   8.679  20.665  0.00  0.00    +0.000 A 
ATOM     30  C   UNL     1       1.379   8.692  19.293  0.00  0.00    +0.000 A 
ATOM     31  C   UNL     1       1.190   9.878  18.593  0.00  0.00    +0.000 A 
ATOM     32  C   UNL     1       0.765  11.025  19.272  0.00  0.00    +0.000 A 
ATOM     33  C   UNL     1       0.556  12.247  18.600  0.00  0.00    +0.000 A 
ENDBRANCH  22  29
ENDBRANCH  20  22
ENDBRANCH  19  20
ENDBRANCH   1  19
TORSDOF 5
ENDMDL
MODEL 6
REMARK VINA RESULT:      -8.9      2.901      7.911
REMARK  Name = 
REMARK  8 active torsions:
REMARK  status: ('A' for Active; 'I' for Inactive)
REMARK    1  A    between atoms: C_1  and  C_2
REMARK    2  A    between atoms: C_7  and  C_8
REMARK    3  A    between atoms: C_8  and  N_9
REMARK    4  A    between atoms: N_9  and  C_10
REMARK    5  A    between atoms: C_10  and  C_11
REMARK    6  A    between atoms: C_11  and  C_12
REMARK    7  A    between atoms: C_11  and  C_13
REMARK    8  A    between atoms: C_21  and  C_22
REMARK                            x       y       z     vdW  Elec       q    Type
REMARK                         _______ _______ _______ _____ _____    ______ ____
ROOT
ATOM      1  C   UNL     1       1.101   4.314  20.536  0.00  0.00    +0.000 C 
ATOM      2  C   UNL     1       0.600   3.372  19.425  0.00  0.00    +0.000 C 
ENDROOT
BRANCH   1   3
ATOM      3  C   UNL     1       1.909   5.538  19.986  0.00  0.00    +0.000 C 
ATOM      4  C   UNL     1       1.732   5.747  18.464  0.00  0.00    +0.000 C 
ATOM      5  C   UNL     1       2.463   6.993  17.959  0.00  0.00    +0.000 C 
ATOM      6  C   UNL     1       1.925   8.159  18.729  0.00  0.00    +0.000 C 
ATOM      7  C   UNL     1       1.118   9.078  18.177  0.00  0.00    +0.000 C 
ATOM      8  C   UNL     1       0.372   9.949  19.047  0.00  0.00    +0.000 A 
ATOM      9  C   UNL     1       0.627   9.960  20.365  0.00  0.00    +0.000 A 
ATOM     10  C   UNL     1      -0.196  10.707  21.274  0.00  0.00    +0.000 A 
ATOM     11  C   UNL     1      -1.267  11.358  20.805  0.00  0.00    +0.000 A 
ATOM     12  C   UNL     1      -2.265  12.088  21.641  0.00  0.00    +0.000 C 
ATOM     13  O   UNL     1      -1.558  11.390  19.421  0.00  0.00    +0.000 OA
ATOM     14  C   UNL     1      -0.765  10.747  18.512  0.00  0.00    +0.000 A 
ATOM     15  O   UNL     1      -1.001  10.800  17.307  0.00  0.00    +0.000 OA
ATOM     16  O   UNL     1       1.614   9.213  20.972  0.00  0.00    +0.000 OA
ATOM     17  C   UNL     1       2.176   8.112  20.217  0.00  0.00    +0.000 C 
ATOM     18  C   UNL     1       1.594   6.818  20.798  0.00  0.00    +0.000 C 
ENDBRANCH   1   3
BRANCH   1  19
ATOM     19  C   UNL     1       1.862   3.475  21.594  0.00  0.00    +0.000 C 
BRANCH  19  20
ATOM     20  N   UNL     1       2.525   2.325  20.986  0.00  0.00    +0.000 NA
ATOM     21  H   UNL     1       2.406   1.506  21.580  0.00  0.00    +0.000 HD
BRANCH  20  22
ATOM     22  C   UNL     1       3.976   2.538  20.851  0.00  0.00    +0.000 C 
BRANCH  22  29
ATOM     23  C   UNL     1       7.065   5.259  14.037  0.00  0.00    +0.000 C 
ATOM     24  C   UNL     1       6.641   4.841  15.414  0.00  0.00    +0.000 A 
ATOM     25  C   UNL     1       7.357   5.242  16.543  0.00  0.00    +0.000 A 
ATOM     26  C   UNL     1       6.940   4.845  17.821  0.00  0.00    +0.000 A 
ATOM     27  C   UNL     1       5.818   4.053  18.015  0.00  0.00    +0.000 A 
ATOM     28  N   UNL     1       5.457   3.700  19.265  0.00  0.00    +0.000 NA
ATOM     29  C   UNL     1       4.348   2.936  19.432  0.00  0.00    +0.000 A 
ATOM     30  C   UNL     1       3.578   2.496  18.360  0.00  0.00    +0.000 A 
ATOM     31  C   UNL     1       3.957   2.855  17.071  0.00  0.00    +0.000 A 
ATOM     32  C   UNL     1       5.091   3.650  16.877  0.00  0.00    +0.000 A 
ATOM     33  C   UNL     1       5.509   4.041  15.588  0.00  0.00    +0.000 A 
ENDBRANCH  22  29
ENDBRANCH  20  22
ENDBRANCH  19  20
ENDBRANCH   1  19
TORSDOF 5
ENDMDL
MODEL 7
REMARK VINA RESULT:      -8.9      4.667     10.581
REMARK  Name = 
REMARK  8 active torsions:
REMARK  status: ('A' for Active; 'I' for Inactive)
REMARK    1  A    between atoms: C_1  and  C_2
REMARK    2  A    between atoms: C_7  and  C_8
REMARK    3  A    between atoms: C_8  and  N_9
REMARK    4  A    between atoms: N_9  and  C_10
REMARK    5  A    between atoms: C_10  and  C_11
REMARK    6  A    between atoms: C_11  and  C_12
REMARK    7  A    between atoms: C_11  and  C_13
REMARK    8  A    between atoms: C_21  and  C_22
REMARK                            x       y       z     vdW  Elec       q    Type
REMARK                         _______ _______ _______ _____ _____    ______ ____
ROOT
ATOM      1  C   UNL     1       0.523   9.800  21.969  0.00  0.00    +0.000 C 
ATOM      2  C   UNL     1      -0.098   9.652  23.371  0.00  0.00    +0.000 C 
ENDROOT
BRANCH   1   3
ATOM      3  C   UNL     1       0.020  11.072  21.207  0.00  0.00    +0.000 C 
ATOM      4  C   UNL     1      -0.575  10.751  19.817  0.00  0.00    +0.000 C 
ATOM      5  C   UNL     1      -1.134  11.993  19.121  0.00  0.00    +0.000 C 
ATOM      6  C   UNL     1      -2.172  12.575  20.029  0.00  0.00    +0.000 C 
ATOM      7  C   UNL     1      -3.486  12.507  19.763  0.00  0.00    +0.000 C 
ATOM      8  C   UNL     1      -4.418  12.766  20.829  0.00  0.00    +0.000 A 
ATOM      9  C   UNL     1      -3.978  13.247  22.002  0.00  0.00    +0.000 A 
ATOM     10  C   UNL     1      -4.859  13.376  23.129  0.00  0.00    +0.000 A 
ATOM     11  C   UNL     1      -6.126  12.959  23.020  0.00  0.00    +0.000 A 
ATOM     12  C   UNL     1      -7.124  12.938  24.131  0.00  0.00    +0.000 C 
ATOM     13  O   UNL     1      -6.635  12.469  21.795  0.00  0.00    +0.000 OA
ATOM     14  C   UNL     1      -5.849  12.388  20.680  0.00  0.00    +0.000 A 
ATOM     15  O   UNL     1      -6.299  11.990  19.607  0.00  0.00    +0.000 OA
ATOM     16  O   UNL     1      -2.663  13.570  22.267  0.00  0.00    +0.000 OA
ATOM     17  C   UNL     1      -1.656  13.052  21.365  0.00  0.00    +0.000 C 
ATOM     18  C   UNL     1      -0.950  11.898  22.087  0.00  0.00    +0.000 C 
ENDBRANCH   1   3
BRANCH   1  19
ATOM     19  C   UNL     1       0.320   8.474  21.193  0.00  0.00    +0.000 C 
BRANCH  19  20
ATOM     20  N   UNL     1       1.593   7.931  20.724  0.00  0.00    +0.000 NA
ATOM     21  H   UNL     1       1.710   8.138  19.733  0.00  0.00    +0.000 HD
BRANCH  20  22
ATOM     22  C   UNL     1       1.645   6.466  20.856  0.00  0.00    +0.000 C 
BRANCH  22  29
ATOM     23  C   UNL     1       6.091   4.355  14.599  0.00  0.00    +0.000 C 
ATOM     24  C   UNL     1       5.352   4.933  15.770  0.00  0.00    +0.000 A 
ATOM     25  C   UNL     1       5.588   6.241  16.197  0.00  0.00    +0.000 A 
ATOM     26  C   UNL     1       4.883   6.764  17.290  0.00  0.00    +0.000 A 
ATOM     27  C   UNL     1       3.936   6.019  17.979  0.00  0.00    +0.000 A 
ATOM     28  N   UNL     1       3.284   6.569  19.022  0.00  0.00    +0.000 NA
ATOM     29  C   UNL     1       2.353   5.827  19.673  0.00  0.00    +0.000 A 
ATOM     30  C   UNL     1       2.057   4.517  19.309  0.00  0.00    +0.000 A 
ATOM     31  C   UNL     1       2.738   3.949  18.237  0.00  0.00    +0.000 A 
ATOM     32  C   UNL     1       3.695   4.700  17.547  0.00  0.00    +0.000 A 
ATOM     33  C   UNL     1       4.404   4.166  16.452  0.00  0.00    +0.000 A 
ENDBRANCH  22  29
ENDBRANCH  20  22
ENDBRANCH  19  20
ENDBRANCH   1  19
TORSDOF 5
ENDMDL
MODEL 8
REMARK VINA RESULT:      -8.7      4.175      9.632
REMARK  Name = 
REMARK  8 active torsions:
REMARK  status: ('A' for Active; 'I' for Inactive)
REMARK    1  A    between atoms: C_1  and  C_2
REMARK    2  A    between atoms: C_7  and  C_8
REMARK    3  A    between atoms: C_8  and  N_9
REMARK    4  A    between atoms: N_9  and  C_10
REMARK    5  A    between atoms: C_10  and  C_11
REMARK    6  A    between atoms: C_11  and  C_12
REMARK    7  A    between atoms: C_11  and  C_13
REMARK    8  A    between atoms: C_21  and  C_22
REMARK                            x       y       z     vdW  Elec       q    Type
REMARK                         _______ _______ _______ _____ _____    ______ ____
ROOT
ATOM      1  C   UNL     1       0.910   9.058  21.288  0.00  0.00    +0.000 C 
ATOM      2  C   UNL     1      -0.324   8.555  22.061  0.00  0.00    +0.000 C 
ENDROOT
BRANCH   1   3
ATOM      3  C   UNL     1       0.675  10.438  20.587  0.00  0.00    +0.000 C 
ATOM      4  C   UNL     1       1.011  10.417  19.077  0.00  0.00    +0.000 C 
ATOM      5  C   UNL     1       0.698  11.749  18.392  0.00  0.00    +0.000 C 
ATOM      6  C   UNL     1      -0.755  12.027  18.616  0.00  0.00    +0.000 C 
ATOM      7  C   UNL     1      -1.669  11.936  17.637  0.00  0.00    +0.000 C 
ATOM      8  C   UNL     1      -3.060  11.870  17.997  0.00  0.00    +0.000 A 
ATOM      9  C   UNL     1      -3.435  12.087  19.268  0.00  0.00    +0.000 A 
ATOM     10  C   UNL     1      -4.794  11.885  19.685  0.00  0.00    +0.000 A 
ATOM     11  C   UNL     1      -5.688  11.421  18.805  0.00  0.00    +0.000 A 
ATOM     12  C   UNL     1      -7.104  11.070  19.120  0.00  0.00    +0.000 C 
ATOM     13  O   UNL     1      -5.340  11.203  17.451  0.00  0.00    +0.000 OA
ATOM     14  C   UNL     1      -4.074  11.443  16.995  0.00  0.00    +0.000 A 
ATOM     15  O   UNL     1      -3.779  11.281  15.813  0.00  0.00    +0.000 OA
ATOM     16  O   UNL     1      -2.569  12.426  20.287  0.00  0.00    +0.000 OA
ATOM     17  C   UNL     1      -1.156  12.206  20.061  0.00  0.00    +0.000 C 
ATOM     18  C   UNL     1      -0.754  10.964  20.865  0.00  0.00    +0.000 C 
ENDBRANCH   1   3
BRANCH   1  19
ATOM     19  C   UNL     1       1.392   7.936  20.334  0.00  0.00    +0.000 C 
BRANCH  19  20
ATOM     20  N   UNL     1       2.066   6.867  21.067  0.00  0.00    +0.000 NA
ATOM     21  H   UNL     1       3.071   6.921  20.906  0.00  0.00    +0.000 HD
BRANCH  20  22
ATOM     22  C   UNL     1       1.638   5.535  20.607  0.00  0.00    +0.000 C 
BRANCH  22  29
ATOM     23  C   UNL     1       6.375   4.436  14.304  0.00  0.00    +0.000 C 
ATOM     24  C   UNL     1       5.529   4.843  15.474  0.00  0.00    +0.000 A 
ATOM     25  C   UNL     1       5.408   6.183  15.846  0.00  0.00    +0.000 A 
ATOM     26  C   UNL     1       4.608   6.543  16.939  0.00  0.00    +0.000 A 
ATOM     27  C   UNL     1       3.911   5.600  17.682  0.00  0.00    +0.000 A 
ATOM     28  N   UNL     1       3.153   5.998  18.724  0.00  0.00    +0.000 NA
ATOM     29  C   UNL     1       2.471   5.060  19.428  0.00  0.00    +0.000 A 
ATOM     30  C   UNL     1       2.534   3.704  19.121  0.00  0.00    +0.000 A 
ATOM     31  C   UNL     1       3.324   3.296  18.051  0.00  0.00    +0.000 A 
ATOM     32  C   UNL     1       4.029   4.248  17.306  0.00  0.00    +0.000 A 
ATOM     33  C   UNL     1       4.837   3.879  16.211  0.00  0.00    +0.000 A 
ENDBRANCH  22  29
ENDBRANCH  20  22
ENDBRANCH  19  20
ENDBRANCH   1  19
TORSDOF 5
ENDMDL
MODEL 9
REMARK VINA RESULT:      -8.7      4.693     10.373
REMARK  Name = 
REMARK  8 active torsions:
REMARK  status: ('A' for Active; 'I' for Inactive)
REMARK    1  A    between atoms: C_1  and  C_2
REMARK    2  A    between atoms: C_7  and  C_8
REMARK    3  A    between atoms: C_8  and  N_9
REMARK    4  A    between atoms: N_9  and  C_10
REMARK    5  A    between atoms: C_10  and  C_11
REMARK    6  A    between atoms: C_11  and  C_12
REMARK    7  A    between atoms: C_11  and  C_13
REMARK    8  A    between atoms: C_21  and  C_22
REMARK                            x       y       z     vdW  Elec       q    Type
REMARK                         _______ _______ _______ _____ _____    ______ ____
ROOT
ATOM      1  C   UNL     1       0.206  10.001  21.899  0.00  0.00    +0.000 C 
ATOM      2  C   UNL     1      -0.720  10.105  23.125  0.00  0.00    +0.000 C 
ENDROOT
BRANCH   1   3
ATOM      3  C   UNL     1      -0.239  10.921  20.712  0.00  0.00    +0.000 C 
ATOM      4  C   UNL     1      -0.647  10.127  19.450  0.00  0.00    +0.000 C 
ATOM      5  C   UNL     1      -1.156  11.037  18.329  0.00  0.00    +0.000 C 
ATOM      6  C   UNL     1      -2.316  11.805  18.881  0.00  0.00    +0.000 C 
ATOM      7  C   UNL     1      -3.584  11.561  18.514  0.00  0.00    +0.000 C 
ATOM      8  C   UNL     1      -4.649  12.082  19.330  0.00  0.00    +0.000 A 
ATOM      9  C   UNL     1      -4.374  12.945  20.321  0.00  0.00    +0.000 A 
ATOM     10  C   UNL     1      -5.392  13.367  21.242  0.00  0.00    +0.000 A 
ATOM     11  C   UNL     1      -6.621  12.848  21.142  0.00  0.00    +0.000 A 
ATOM     12  C   UNL     1      -7.747  13.114  22.085  0.00  0.00    +0.000 C 
ATOM     13  O   UNL     1      -6.958  11.954  20.099  0.00  0.00    +0.000 OA
ATOM     14  C   UNL     1      -6.038  11.575  19.162  0.00  0.00    +0.000 A 
ATOM     15  O   UNL     1      -6.339  10.822  18.238  0.00  0.00    +0.000 OA
ATOM     16  O   UNL     1      -3.114  13.429  20.603  0.00  0.00    +0.000 OA
ATOM     17  C   UNL     1      -1.986  12.721  20.034  0.00  0.00    +0.000 C 
ATOM     18  C   UNL     1      -1.337  11.914  21.165  0.00  0.00    +0.000 C 
ENDBRANCH   1   3
BRANCH   1  19
ATOM     19  C   UNL     1       0.362   8.507  21.519  0.00  0.00    +0.000 C 
BRANCH  19  20
ATOM     20  N   UNL     1       1.635   8.257  20.848  0.00  0.00    +0.000 NA
ATOM     21  H   UNL     1       1.640   8.718  19.938  0.00  0.00    +0.000 HD
BRANCH  20  22
ATOM     22  C   UNL     1       1.848   6.823  20.593  0.00  0.00    +0.000 C 
BRANCH  22  29
ATOM     23  C   UNL     1       6.239   4.260  14.467  0.00  0.00    +0.000 C 
ATOM     24  C   UNL     1       5.406   4.546  15.682  0.00  0.00    +0.000 A 
ATOM     25  C   UNL     1       5.052   3.529  16.570  0.00  0.00    +0.000 A 
ATOM     26  C   UNL     1       4.278   3.818  17.702  0.00  0.00    +0.000 A 
ATOM     27  C   UNL     1       3.842   5.105  17.985  0.00  0.00    +0.000 A 
ATOM     28  N   UNL     1       3.101   5.331  19.088  0.00  0.00    +0.000 NA
ATOM     29  C   UNL     1       2.696   6.599  19.352  0.00  0.00    +0.000 A 
ATOM     30  C   UNL     1       3.008   7.670  18.519  0.00  0.00    +0.000 A 
ATOM     31  C   UNL     1       3.765   7.431  17.377  0.00  0.00    +0.000 A 
ATOM     32  C   UNL     1       4.201   6.133  17.092  0.00  0.00    +0.000 A 
ATOM     33  C   UNL     1       4.974   5.847  15.948  0.00  0.00    +0.000 A 
ENDBRANCH  22  29
ENDBRANCH  20  22
ENDBRANCH  19  20
ENDBRANCH   1  19
TORSDOF 5
ENDMDL
