MODEL 1
REMARK VINA RESULT:      -6.2      0.000      0.000
REMARK  Name = 
REMARK  8 active torsions:
REMARK  status: ('A' for Active; 'I' for Inactive)
REMARK    1  A    between atoms: C_1  and  C_2
REMARK    2  A    between atoms: C_2  and  C_3
REMARK    3  A    between atoms: C_2  and  C_4
REMARK    4  A    between atoms: C_4  and  S_5
REMARK    5  A    between atoms: S_5  and  C_6
REMARK    6  A    between atoms: C_9  and  O_10
REMARK    7  A    between atoms: O_10  and  S_11
REMARK    8  A    between atoms: S_11  and  C_12
REMARK                            x       y       z     vdW  Elec       q    Type
REMARK                         _______ _______ _______ _____ _____    ______ ____
ROOT
ATOM      1  C   UNL     1       6.373   4.473  16.573  0.00  0.00    +0.000 A 
ATOM      2  N   UNL     1       7.127   4.634  17.637  0.00  0.00    +0.000 NA
ATOM      3  N   UNL     1       6.418   4.446  18.810  0.00  0.00    +0.000 NA
ATOM      4  C   UNL     1       5.164   4.123  18.579  0.00  0.00    +0.000 A 
ATOM      5  S   UNL     1       4.739   4.088  16.920  0.00  0.00    +0.000 S 
ENDROOT
BRANCH   1   6
ATOM      6  S   UNL     1       6.966   4.684  14.944  0.00  0.00    +0.000 S 
BRANCH   6   7
ATOM      7  C   UNL     1       5.532   4.112  13.975  0.00  0.00    +0.000 C 
BRANCH   7   9
ATOM      8  C   UNL     1       4.734   3.303  11.733  0.00  0.00    +0.000 C 
ATOM      9  C   UNL     1       5.942   3.397  12.671  0.00  0.00    +0.000 C 
ATOM     10  C   UNL     1       7.096   4.085  11.934  0.00  0.00    +0.000 C 
ENDBRANCH   7   9
ENDBRANCH   6   7
ENDBRANCH   1   6
BRANCH   4  11
ATOM     11  O   UNL     1       4.262   3.907  19.523  0.00  0.00    +0.000 OA
BRANCH  11  12
ATOM     12  S   UNL     1       3.876   2.407  20.017  0.00  0.00    +0.000 S 
ATOM     13  C   UNL     1       2.686   2.818  21.281  0.00  0.00    +0.000 C 
ATOM     14  O   UNL     1       3.151   1.765  18.938  0.00  0.00    +0.000 OA
ATOM     15  O   UNL     1       5.020   1.757  20.621  0.00  0.00    +0.000 OA
ENDBRANCH  11  12
ENDBRANCH   4  11
TORSDOF 5
ENDMDL
MODEL 2
REMARK VINA RESULT:      -5.8      3.103      6.154
REMARK  Name = 
REMARK  8 active torsions:
REMARK  status: ('A' for Active; 'I' for Inactive)
REMARK    1  A    between atoms: C_1  and  C_2
REMARK    2  A    between atoms: C_2  and  C_3
REMARK    3  A    between atoms: C_2  and  C_4
REMARK    4  A    between atoms: C_4  and  S_5
REMARK    5  A    between atoms: S_5  and  C_6
REMARK    6  A    between atoms: C_9  and  O_10
REMARK    7  A    between atoms: O_10  and  S_11
REMARK    8  A    between atoms: S_11  and  C_12
REMARK                            x       y       z     vdW  Elec       q    Type
REMARK                         _______ _______ _______ _____ _____    ______ ____
ROOT
ATOM      1  C   UNL     1       3.927   5.448  19.364  0.00  0.00    +0.000 A 
ATOM      2  N   UNL     1       5.143   5.194  19.795  0.00  0.00    +0.000 NA
ATOM      3  N   UNL     1       6.093   5.373  18.805  0.00  0.00    +0.000 NA
ATOM      4  C   UNL     1       5.555   5.781  17.676  0.00  0.00    +0.000 A 
ATOM      5  S   UNL     1       3.848   5.915  17.716  0.00  0.00    +0.000 S 
ENDROOT
BRANCH   1   6
ATOM      6  S   UNL     1       2.506   5.273  20.363  0.00  0.00    +0.000 S 
BRANCH   6   7
ATOM      7  C   UNL     1       1.412   4.331  19.251  0.00  0.00    +0.000 C 
BRANCH   7   9
ATOM      8  C   UNL     1       1.741   1.850  19.015  0.00  0.00    +0.000 C 
ATOM      9  C   UNL     1       1.035   2.948  19.820  0.00  0.00    +0.000 C 
ATOM     10  C   UNL     1       1.382   2.782  21.303  0.00  0.00    +0.000 C 
ENDBRANCH   7   9
ENDBRANCH   6   7
ENDBRANCH   1   6
BRANCH   4  11
ATOM     11  O   UNL     1       6.235   6.009  16.563  0.00  0.00    +0.000 OA
BRANCH  11  12
ATOM     12  S   UNL     1       7.152   4.863  15.864  0.00  0.00    +0.000 S 
ATOM     13  C   UNL     1       5.866   3.737  15.356  0.00  0.00    +0.000 C 
ATOM     14  O   UNL     1       7.722   5.434  14.660  0.00  0.00    +0.000 OA
ATOM     15  O   UNL     1       8.001   4.219  16.844  0.00  0.00    +0.000 OA
ENDBRANCH  11  12
ENDBRANCH   4  11
TORSDOF 5
ENDMDL
MODEL 3
REMARK VINA RESULT:      -5.8      4.068      6.498
REMARK  Name = 
REMARK  8 active torsions:
REMARK  status: ('A' for Active; 'I' for Inactive)
REMARK    1  A    between atoms: C_1  and  C_2
REMARK    2  A    between atoms: C_2  and  C_3
REMARK    3  A    between atoms: C_2  and  C_4
REMARK    4  A    between atoms: C_4  and  S_5
REMARK    5  A    between atoms: S_5  and  C_6
REMARK    6  A    between atoms: C_9  and  O_10
REMARK    7  A    between atoms: O_10  and  S_11
REMARK    8  A    between atoms: S_11  and  C_12
REMARK                            x       y       z     vdW  Elec       q    Type
REMARK                         _______ _______ _______ _____ _____    ______ ____
ROOT
ATOM      1  C   UNL     1       3.263   3.417  18.334  0.00  0.00    +0.000 A 
ATOM      2  N   UNL     1       2.855   4.282  17.432  0.00  0.00    +0.000 NA
ATOM      3  N   UNL     1       3.725   5.350  17.304  0.00  0.00    +0.000 NA
ATOM      4  C   UNL     1       4.767   5.231  18.097  0.00  0.00    +0.000 A 
ATOM      5  S   UNL     1       4.735   3.845  19.102  0.00  0.00    +0.000 S 
ENDROOT
BRANCH   1   6
ATOM      6  S   UNL     1       2.362   1.983  18.756  0.00  0.00    +0.000 S 
BRANCH   6   7
ATOM      7  C   UNL     1       0.805   2.716  19.360  0.00  0.00    +0.000 C 
BRANCH   7   9
ATOM      8  C   UNL     1       2.005   2.642  21.567  0.00  0.00    +0.000 C 
ATOM      9  C   UNL     1       0.964   3.398  20.734  0.00  0.00    +0.000 C 
ATOM     10  C   UNL     1       1.371   4.872  20.641  0.00  0.00    +0.000 C 
ENDBRANCH   7   9
ENDBRANCH   6   7
ENDBRANCH   1   6
BRANCH   4  11
ATOM     11  O   UNL     1       5.742   6.122  18.188  0.00  0.00    +0.000 OA
BRANCH  11  12
ATOM     12  S   UNL     1       6.984   6.150  17.139  0.00  0.00    +0.000 S 
ATOM     13  C   UNL     1       7.819   7.615  17.721  0.00  0.00    +0.000 C 
ATOM     14  O   UNL     1       7.839   5.019  17.445  0.00  0.00    +0.000 OA
ATOM     15  O   UNL     1       6.509   6.366  15.789  0.00  0.00    +0.000 OA
ENDBRANCH  11  12
ENDBRANCH   4  11
TORSDOF 5
ENDMDL
MODEL 4
REMARK VINA RESULT:      -5.8      3.019      4.121
REMARK  Name = 
REMARK  8 active torsions:
REMARK  status: ('A' for Active; 'I' for Inactive)
REMARK    1  A    between atoms: C_1  and  C_2
REMARK    2  A    between atoms: C_2  and  C_3
REMARK    3  A    between atoms: C_2  and  C_4
REMARK    4  A    between atoms: C_4  and  S_5
REMARK    5  A    between atoms: S_5  and  C_6
REMARK    6  A    between atoms: C_9  and  O_10
REMARK    7  A    between atoms: O_10  and  S_11
REMARK    8  A    between atoms: S_11  and  C_12
REMARK                            x       y       z     vdW  Elec       q    Type
REMARK                         _______ _______ _______ _____ _____    ______ ____
ROOT
ATOM      1  C   UNL     1       5.301   4.415  17.518  0.00  0.00    +0.000 A 
ATOM      2  N   UNL     1       5.883   4.118  18.658  0.00  0.00    +0.000 NA
ATOM      3  N   UNL     1       5.057   3.378  19.485  0.00  0.00    +0.000 NA
ATOM      4  C   UNL     1       3.896   3.125  18.921  0.00  0.00    +0.000 A 
ATOM      5  S   UNL     1       3.699   3.823  17.370  0.00  0.00    +0.000 S 
ENDROOT
BRANCH   1   6
ATOM      6  S   UNL     1       6.069   5.377  16.278  0.00  0.00    +0.000 S 
BRANCH   6   7
ATOM      7  C   UNL     1       6.244   6.975  17.138  0.00  0.00    +0.000 C 
BRANCH   7   9
ATOM      8  C   UNL     1       7.906   8.759  17.750  0.00  0.00    +0.000 C 
ATOM      9  C   UNL     1       7.692   7.249  17.593  0.00  0.00    +0.000 C 
ATOM     10  C   UNL     1       8.061   6.552  18.908  0.00  0.00    +0.000 C 
ENDBRANCH   7   9
ENDBRANCH   6   7
ENDBRANCH   1   6
BRANCH   4  11
ATOM     11  O   UNL     1       2.914   2.453  19.501  0.00  0.00    +0.000 OA
BRANCH  11  12
ATOM     12  S   UNL     1       1.553   3.183  20.008  0.00  0.00    +0.000 S 
ATOM     13  C   UNL     1       1.501   2.565  21.680  0.00  0.00    +0.000 C 
ATOM     14  O   UNL     1       1.824   4.605  20.085  0.00  0.00    +0.000 OA
ATOM     15  O   UNL     1       0.405   2.694  19.274  0.00  0.00    +0.000 OA
ENDBRANCH  11  12
ENDBRANCH   4  11
TORSDOF 5
ENDMDL
MODEL 5
REMARK VINA RESULT:      -5.8      3.107      6.316
REMARK  Name = 
REMARK  8 active torsions:
REMARK  status: ('A' for Active; 'I' for Inactive)
REMARK    1  A    between atoms: C_1  and  C_2
REMARK    2  A    between atoms: C_2  and  C_3
REMARK    3  A    between atoms: C_2  and  C_4
REMARK    4  A    between atoms: C_4  and  S_5
REMARK    5  A    between atoms: S_5  and  C_6
REMARK    6  A    between atoms: C_9  and  O_10
REMARK    7  A    between atoms: O_10  and  S_11
REMARK    8  A    between atoms: S_11  and  C_12
REMARK                            x       y       z     vdW  Elec       q    Type
REMARK                         _______ _______ _______ _____ _____    ______ ____
ROOT
ATOM      1  C   UNL     1       3.878   2.887  18.751  0.00  0.00    +0.000 A 
ATOM      2  N   UNL     1       4.755   3.147  19.694  0.00  0.00    +0.000 NA
ATOM      3  N   UNL     1       5.769   3.975  19.246  0.00  0.00    +0.000 NA
ATOM      4  C   UNL     1       5.597   4.326  17.991  0.00  0.00    +0.000 A 
ATOM      5  S   UNL     1       4.226   3.624  17.243  0.00  0.00    +0.000 S 
ENDROOT
BRANCH   1   6
ATOM      6  S   UNL     1       2.503   1.837  18.992  0.00  0.00    +0.000 S 
BRANCH   6   7
ATOM      7  C   UNL     1       1.143   3.050  19.034  0.00  0.00    +0.000 C 
BRANCH   7   9
ATOM      8  C   UNL     1       1.473   2.720  21.504  0.00  0.00    +0.000 C 
ATOM      9  C   UNL     1       0.953   3.681  20.428  0.00  0.00    +0.000 C 
ATOM     10  C   UNL     1       1.653   5.035  20.587  0.00  0.00    +0.000 C 
ENDBRANCH   7   9
ENDBRANCH   6   7
ENDBRANCH   1   6
BRANCH   4  11
ATOM     11  O   UNL     1       6.431   5.098  17.310  0.00  0.00    +0.000 OA
BRANCH  11  12
ATOM     12  S   UNL     1       6.044   6.619  16.886  0.00  0.00    +0.000 S 
ATOM     13  C   UNL     1       5.407   6.309  15.250  0.00  0.00    +0.000 C 
ATOM     14  O   UNL     1       4.925   7.031  17.711  0.00  0.00    +0.000 OA
ATOM     15  O   UNL     1       7.231   7.443  16.797  0.00  0.00    +0.000 OA
ENDBRANCH  11  12
ENDBRANCH   4  11
TORSDOF 5
ENDMDL
MODEL 6
REMARK VINA RESULT:      -5.8      1.230      1.784
REMARK  Name = 
REMARK  8 active torsions:
REMARK  status: ('A' for Active; 'I' for Inactive)
REMARK    1  A    between atoms: C_1  and  C_2
REMARK    2  A    between atoms: C_2  and  C_3
REMARK    3  A    between atoms: C_2  and  C_4
REMARK    4  A    between atoms: C_4  and  S_5
REMARK    5  A    between atoms: S_5  and  C_6
REMARK    6  A    between atoms: C_9  and  O_10
REMARK    7  A    between atoms: O_10  and  S_11
REMARK    8  A    between atoms: S_11  and  C_12
REMARK                            x       y       z     vdW  Elec       q    Type
REMARK                         _______ _______ _______ _____ _____    ______ ____
ROOT
ATOM      1  C   UNL     1       6.267   4.455  16.724  0.00  0.00    +0.000 A 
ATOM      2  N   UNL     1       6.867   4.735  17.860  0.00  0.00    +0.000 NA
ATOM      3  N   UNL     1       6.061   4.466  18.952  0.00  0.00    +0.000 NA
ATOM      4  C   UNL     1       4.898   3.968  18.594  0.00  0.00    +0.000 A 
ATOM      5  S   UNL     1       4.673   3.850  16.901  0.00  0.00    +0.000 S 
ENDROOT
BRANCH   1   6
ATOM      6  S   UNL     1       7.006   4.724  15.165  0.00  0.00    +0.000 S 
BRANCH   6   7
ATOM      7  C   UNL     1       5.628   4.299  14.049  0.00  0.00    +0.000 C 
BRANCH   7   9
ATOM      8  C   UNL     1       4.904   3.320  11.850  0.00  0.00    +0.000 C 
ATOM      9  C   UNL     1       6.096   3.545  12.788  0.00  0.00    +0.000 C 
ATOM     10  C   UNL     1       7.207   4.269  12.020  0.00  0.00    +0.000 C 
ENDBRANCH   7   9
ENDBRANCH   6   7
ENDBRANCH   1   6
BRANCH   4  11
ATOM     11  O   UNL     1       3.933   3.641  19.439  0.00  0.00    +0.000 OA
BRANCH  11  12
ATOM     12  S   UNL     1       2.567   4.514  19.566  0.00  0.00    +0.000 S 
ATOM     13  C   UNL     1       2.142   4.140  21.257  0.00  0.00    +0.000 C 
ATOM     14  O   UNL     1       2.938   5.914  19.516  0.00  0.00    +0.000 OA
ATOM     15  O   UNL     1       1.545   3.994  18.682  0.00  0.00    +0.000 OA
ENDBRANCH  11  12
ENDBRANCH   4  11
TORSDOF 5
ENDMDL
MODEL 7
REMARK VINA RESULT:      -5.7      3.285      4.101
REMARK  Name = 
REMARK  8 active torsions:
REMARK  status: ('A' for Active; 'I' for Inactive)
REMARK    1  A    between atoms: C_1  and  C_2
REMARK    2  A    between atoms: C_2  and  C_3
REMARK    3  A    between atoms: C_2  and  C_4
REMARK    4  A    between atoms: C_4  and  S_5
REMARK    5  A    between atoms: S_5  and  C_6
REMARK    6  A    between atoms: C_9  and  O_10
REMARK    7  A    between atoms: O_10  and  S_11
REMARK    8  A    between atoms: S_11  and  C_12
REMARK                            x       y       z     vdW  Elec       q    Type
REMARK                         _______ _______ _______ _____ _____    ______ ____
ROOT
ATOM      1  C   UNL     1       4.676   4.794  17.404  0.00  0.00    +0.000 A 
ATOM      2  N   UNL     1       4.540   3.511  17.154  0.00  0.00    +0.000 NA
ATOM      3  N   UNL     1       4.068   2.814  18.253  0.00  0.00    +0.000 NA
ATOM      4  C   UNL     1       3.843   3.608  19.277  0.00  0.00    +0.000 A 
ATOM      5  S   UNL     1       4.248   5.248  19.001  0.00  0.00    +0.000 S 
ENDROOT
BRANCH   1   6
ATOM      6  S   UNL     1       5.291   5.933  16.232  0.00  0.00    +0.000 S 
BRANCH   6   7
ATOM      7  C   UNL     1       5.952   7.234  17.326  0.00  0.00    +0.000 C 
BRANCH   7   9
ATOM      8  C   UNL     1       8.085   8.483  17.781  0.00  0.00    +0.000 C 
ATOM      9  C   UNL     1       7.470   7.096  17.563  0.00  0.00    +0.000 C 
ATOM     10  C   UNL     1       7.823   6.199  18.755  0.00  0.00    +0.000 C 
ENDBRANCH   7   9
ENDBRANCH   6   7
ENDBRANCH   1   6
BRANCH   4  11
ATOM     11  O   UNL     1       3.407   3.198  20.458  0.00  0.00    +0.000 OA
BRANCH  11  12
ATOM     12  S   UNL     1       1.843   2.840  20.722  0.00  0.00    +0.000 S 
ATOM     13  C   UNL     1       1.137   4.465  20.512  0.00  0.00    +0.000 C 
ATOM     14  O   UNL     1       1.388   2.028  19.611  0.00  0.00    +0.000 OA
ATOM     15  O   UNL     1       1.642   2.397  22.085  0.00  0.00    +0.000 OA
ENDBRANCH  11  12
ENDBRANCH   4  11
TORSDOF 5
ENDMDL
MODEL 8
REMARK VINA RESULT:      -5.6      3.636      6.387
REMARK  Name = 
REMARK  8 active torsions:
REMARK  status: ('A' for Active; 'I' for Inactive)
REMARK    1  A    between atoms: C_1  and  C_2
REMARK    2  A    between atoms: C_2  and  C_3
REMARK    3  A    between atoms: C_2  and  C_4
REMARK    4  A    between atoms: C_4  and  S_5
REMARK    5  A    between atoms: S_5  and  C_6
REMARK    6  A    between atoms: C_9  and  O_10
REMARK    7  A    between atoms: O_10  and  S_11
REMARK    8  A    between atoms: S_11  and  C_12
REMARK                            x       y       z     vdW  Elec       q    Type
REMARK                         _______ _______ _______ _____ _____    ______ ____
ROOT
ATOM      1  C   UNL     1       3.314   5.171  19.148  0.00  0.00    +0.000 A 
ATOM      2  N   UNL     1       3.025   5.807  18.035  0.00  0.00    +0.000 NA
ATOM      3  N   UNL     1       3.920   5.514  17.022  0.00  0.00    +0.000 NA
ATOM      4  C   UNL     1       4.831   4.648  17.407  0.00  0.00    +0.000 A 
ATOM      5  S   UNL     1       4.706   4.175  19.048  0.00  0.00    +0.000 S 
ENDROOT
BRANCH   1   6
ATOM      6  S   UNL     1       2.397   5.363  20.622  0.00  0.00    +0.000 S 
BRANCH   6   7
ATOM      7  C   UNL     1       0.936   4.335  20.257  0.00  0.00    +0.000 C 
BRANCH   7   9
ATOM      8  C   UNL     1       1.545   2.065  19.367  0.00  0.00    +0.000 C 
ATOM      9  C   UNL     1       1.148   2.851  20.622  0.00  0.00    +0.000 C 
ATOM     10  C   UNL     1       2.209   2.633  21.705  0.00  0.00    +0.000 C 
ENDBRANCH   7   9
ENDBRANCH   6   7
ENDBRANCH   1   6
BRANCH   4  11
ATOM     11  O   UNL     1       5.818   4.211  16.640  0.00  0.00    +0.000 OA
BRANCH  11  12
ATOM     12  S   UNL     1       7.254   4.970  16.570  0.00  0.00    +0.000 S 
ATOM     13  C   UNL     1       6.843   6.448  17.480  0.00  0.00    +0.000 C 
ATOM     14  O   UNL     1       8.188   4.214  17.381  0.00  0.00    +0.000 OA
ATOM     15  O   UNL     1       7.584   5.317  15.204  0.00  0.00    +0.000 OA
ENDBRANCH  11  12
ENDBRANCH   4  11
TORSDOF 5
ENDMDL
MODEL 9
REMARK VINA RESULT:      -5.6      3.203      6.415
REMARK  Name = 
REMARK  8 active torsions:
REMARK  status: ('A' for Active; 'I' for Inactive)
REMARK    1  A    between atoms: C_1  and  C_2
REMARK    2  A    between atoms: C_2  and  C_3
REMARK    3  A    between atoms: C_2  and  C_4
REMARK    4  A    between atoms: C_4  and  S_5
REMARK    5  A    between atoms: S_5  and  C_6
REMARK    6  A    between atoms: C_9  and  O_10
REMARK    7  A    between atoms: O_10  and  S_11
REMARK    8  A    between atoms: S_11  and  C_12
REMARK                            x       y       z     vdW  Elec       q    Type
REMARK                         _______ _______ _______ _____ _____    ______ ____
ROOT
ATOM      1  C   UNL     1       3.850   5.967  18.969  0.00  0.00    +0.000 A 
ATOM      2  N   UNL     1       4.900   5.305  19.400  0.00  0.00    +0.000 NA
ATOM      3  N   UNL     1       5.941   5.330  18.488  0.00  0.00    +0.000 NA
ATOM      4  C   UNL     1       5.639   6.034  17.419  0.00  0.00    +0.000 A 
ATOM      5  S   UNL     1       4.047   6.663  17.415  0.00  0.00    +0.000 S 
ENDROOT
BRANCH   1   6
ATOM      6  S   UNL     1       2.361   6.085  19.873  0.00  0.00    +0.000 S 
BRANCH   6   7
ATOM      7  C   UNL     1       2.570   4.722  21.066  0.00  0.00    +0.000 C 
BRANCH   7   9
ATOM      8  C   UNL     1       1.583   2.496  21.690  0.00  0.00    +0.000 C 
ATOM      9  C   UNL     1       2.052   3.374  20.524  0.00  0.00    +0.000 C 
ATOM     10  C   UNL     1       0.907   3.520  19.515  0.00  0.00    +0.000 C 
ENDBRANCH   7   9
ENDBRANCH   6   7
ENDBRANCH   1   6
BRANCH   4  11
ATOM     11  O   UNL     1       6.447   6.203  16.384  0.00  0.00    +0.000 OA
BRANCH  11  12
ATOM     12  S   UNL     1       7.198   4.954  15.665  0.00  0.00    +0.000 S 
ATOM     13  C   UNL     1       5.770   4.032  15.126  0.00  0.00    +0.000 C 
ATOM     14  O   UNL     1       7.853   5.463  14.476  0.00  0.00    +0.000 OA
ATOM     15  O   UNL     1       7.940   4.176  16.634  0.00  0.00    +0.000 OA
ENDBRANCH  11  12
ENDBRANCH   4  11
TORSDOF 5
ENDMDL
