MODEL 1
REMARK VINA RESULT:      -6.6      0.000      0.000
REMARK  Name = 
REMARK  2 active torsions:
REMARK  status: ('A' for Active; 'I' for Inactive)
REMARK    1  A    between atoms: C_1  and  C_2
REMARK    2  A    between atoms: C_8  and  C_9
REMARK                            x       y       z     vdW  Elec       q    Type
REMARK                         _______ _______ _______ _____ _____    ______ ____
ROOT
ATOM      1  C   UNL     1       7.493   4.854  17.172  0.00  0.00    +0.000 C 
ATOM      2  C   UNL     1       6.118   4.855  17.792  0.00  0.00    +0.000 C 
ATOM      3  O   UNL     1       5.319   5.749  17.543  0.00  0.00    +0.000 OA
ATOM      4  N   UNL     1       5.922   3.767  18.611  0.00  0.00    +0.000 N 
ATOM      5  C   UNL     1       4.765   3.447  19.278  0.00  0.00    +0.000 A 
ATOM      6  N   UNL     1       4.707   2.466  20.149  0.00  0.00    +0.000 NA
ATOM      7  N   UNL     1       3.447   2.324  20.694  0.00  0.00    +0.000 NA
ATOM      8  C   UNL     1       2.586   3.190  20.189  0.00  0.00    +0.000 A 
ATOM      9  S   UNL     1       3.281   4.237  19.012  0.00  0.00    +0.000 S 
ATOM     10  H   UNL     1       6.698   3.156  18.827  0.00  0.00    +0.000 HD
ENDROOT
BRANCH   8  11
ATOM     11  C   UNL     1       1.142   3.310  20.536  0.00  0.00    +0.000 C 
ATOM     12  F   UNL     1       0.327   2.743  19.607  0.00  0.00    +0.000 F 
ATOM     13  F   UNL     1       0.842   2.710  21.722  0.00  0.00    +0.000 F 
ATOM     14  F   UNL     1       0.750   4.608  20.651  0.00  0.00    +0.000 F 
ENDBRANCH   8  11
TORSDOF 1
ENDMDL
MODEL 2
REMARK VINA RESULT:      -6.6      0.055      1.045
REMARK  Name = 
REMARK  2 active torsions:
REMARK  status: ('A' for Active; 'I' for Inactive)
REMARK    1  A    between atoms: C_1  and  C_2
REMARK    2  A    between atoms: C_8  and  C_9
REMARK                            x       y       z     vdW  Elec       q    Type
REMARK                         _______ _______ _______ _____ _____    ______ ____
ROOT
ATOM      1  C   UNL     1       7.444   4.925  17.116  0.00  0.00    +0.000 C 
ATOM      2  C   UNL     1       6.080   4.913  17.757  0.00  0.00    +0.000 C 
ATOM      3  O   UNL     1       5.271   5.805  17.528  0.00  0.00    +0.000 OA
ATOM      4  N   UNL     1       5.903   3.816  18.570  0.00  0.00    +0.000 N 
ATOM      5  C   UNL     1       4.758   3.485  19.253  0.00  0.00    +0.000 A 
ATOM      6  N   UNL     1       4.720   2.496  20.116  0.00  0.00    +0.000 NA
ATOM      7  N   UNL     1       3.469   2.342  20.679  0.00  0.00    +0.000 NA
ATOM      8  C   UNL     1       2.595   3.207  20.196  0.00  0.00    +0.000 A 
ATOM      9  S   UNL     1       3.265   4.268  19.017  0.00  0.00    +0.000 S 
ATOM     10  H   UNL     1       6.685   3.208  18.769  0.00  0.00    +0.000 HD
ENDROOT
BRANCH   8  11
ATOM     11  C   UNL     1       1.157   3.315  20.567  0.00  0.00    +0.000 C 
ATOM     12  F   UNL     1       0.867   2.699  21.745  0.00  0.00    +0.000 F 
ATOM     13  F   UNL     1       0.753   4.608  20.704  0.00  0.00    +0.000 F 
ATOM     14  F   UNL     1       0.343   2.755  19.631  0.00  0.00    +0.000 F 
ENDBRANCH   8  11
TORSDOF 1
ENDMDL
MODEL 3
REMARK VINA RESULT:      -6.4      0.654      1.233
REMARK  Name = 
REMARK  2 active torsions:
REMARK  status: ('A' for Active; 'I' for Inactive)
REMARK    1  A    between atoms: C_1  and  C_2
REMARK    2  A    between atoms: C_8  and  C_9
REMARK                            x       y       z     vdW  Elec       q    Type
REMARK                         _______ _______ _______ _____ _____    ______ ____
ROOT
ATOM      1  C   UNL     1       6.938   4.677  16.130  0.00  0.00    +0.000 C 
ATOM      2  C   UNL     1       5.634   4.684  16.885  0.00  0.00    +0.000 C 
ATOM      3  O   UNL     1       4.717   5.425  16.549  0.00  0.00    +0.000 OA
ATOM      4  N   UNL     1       5.638   3.785  17.927  0.00  0.00    +0.000 N 
ATOM      5  C   UNL     1       4.589   3.510  18.771  0.00  0.00    +0.000 A 
ATOM      6  N   UNL     1       4.723   2.739  19.826  0.00  0.00    +0.000 NA
ATOM      7  N   UNL     1       3.541   2.601  20.525  0.00  0.00    +0.000 NA
ATOM      8  C   UNL     1       2.544   3.253  19.953  0.00  0.00    +0.000 A 
ATOM      9  S   UNL     1       3.006   4.081  18.515  0.00  0.00    +0.000 S 
ATOM     10  H   UNL     1       6.495   3.310  18.176  0.00  0.00    +0.000 HD
ENDROOT
BRANCH   8  11
ATOM     11  C   UNL     1       1.134   3.310  20.427  0.00  0.00    +0.000 C 
ATOM     12  F   UNL     1       0.686   4.583  20.603  0.00  0.00    +0.000 F 
ATOM     13  F   UNL     1       0.269   2.720  19.556  0.00  0.00    +0.000 F 
ATOM     14  F   UNL     1       0.969   2.677  21.621  0.00  0.00    +0.000 F 
ENDBRANCH   8  11
TORSDOF 1
ENDMDL
MODEL 4
REMARK VINA RESULT:      -6.2      4.121      5.542
REMARK  Name = 
REMARK  2 active torsions:
REMARK  status: ('A' for Active; 'I' for Inactive)
REMARK    1  A    between atoms: C_1  and  C_2
REMARK    2  A    between atoms: C_8  and  C_9
REMARK                            x       y       z     vdW  Elec       q    Type
REMARK                         _______ _______ _______ _____ _____    ______ ____
ROOT
ATOM      1  C   UNL     1       0.723   2.500  18.879  0.00  0.00    +0.000 C 
ATOM      2  C   UNL     1       1.829   3.350  18.307  0.00  0.00    +0.000 C 
ATOM      3  O   UNL     1       1.634   4.056  17.325  0.00  0.00    +0.000 OA
ATOM      4  N   UNL     1       2.999   3.220  19.020  0.00  0.00    +0.000 N 
ATOM      5  C   UNL     1       4.172   3.898  18.792  0.00  0.00    +0.000 A 
ATOM      6  N   UNL     1       5.282   3.611  19.432  0.00  0.00    +0.000 NA
ATOM      7  N   UNL     1       6.332   4.419  19.047  0.00  0.00    +0.000 NA
ATOM      8  C   UNL     1       5.968   5.312  18.144  0.00  0.00    +0.000 A 
ATOM      9  S   UNL     1       4.304   5.207  17.712  0.00  0.00    +0.000 S 
ATOM     10  H   UNL     1       3.069   2.519  19.745  0.00  0.00    +0.000 HD
ENDROOT
BRANCH   8  11
ATOM     11  C   UNL     1       6.837   6.347  17.519  0.00  0.00    +0.000 C 
ATOM     12  F   UNL     1       7.915   6.664  18.285  0.00  0.00    +0.000 F 
ATOM     13  F   UNL     1       7.331   5.952  16.313  0.00  0.00    +0.000 F 
ATOM     14  F   UNL     1       6.168   7.512  17.298  0.00  0.00    +0.000 F 
ENDBRANCH   8  11
TORSDOF 1
ENDMDL
MODEL 5
REMARK VINA RESULT:      -6.2      1.980      2.250
REMARK  Name = 
REMARK  2 active torsions:
REMARK  status: ('A' for Active; 'I' for Inactive)
REMARK    1  A    between atoms: C_1  and  C_2
REMARK    2  A    between atoms: C_8  and  C_9
REMARK                            x       y       z     vdW  Elec       q    Type
REMARK                         _______ _______ _______ _____ _____    ______ ____
ROOT
ATOM      1  C   UNL     1       7.567   6.092  17.971  0.00  0.00    +0.000 C 
ATOM      2  C   UNL     1       6.384   5.379  18.574  0.00  0.00    +0.000 C 
ATOM      3  O   UNL     1       6.300   5.217  19.786  0.00  0.00    +0.000 OA
ATOM      4  N   UNL     1       5.480   4.981  17.616  0.00  0.00    +0.000 N 
ATOM      5  C   UNL     1       4.277   4.357  17.840  0.00  0.00    +0.000 A 
ATOM      6  N   UNL     1       3.540   3.886  16.860  0.00  0.00    +0.000 NA
ATOM      7  N   UNL     1       2.374   3.305  17.316  0.00  0.00    +0.000 NA
ATOM      8  C   UNL     1       2.259   3.384  18.630  0.00  0.00    +0.000 A 
ATOM      9  S   UNL     1       3.586   4.180  19.385  0.00  0.00    +0.000 S 
ATOM     10  H   UNL     1       5.715   5.071  16.637  0.00  0.00    +0.000 HD
ENDROOT
BRANCH   8  11
ATOM     11  C   UNL     1       1.126   2.876  19.453  0.00  0.00    +0.000 C 
ATOM     12  F   UNL     1       0.452   3.868  20.094  0.00  0.00    +0.000 F 
ATOM     13  F   UNL     1       0.203   2.208  18.708  0.00  0.00    +0.000 F 
ATOM     14  F   UNL     1       1.543   2.009  20.417  0.00  0.00    +0.000 F 
ENDBRANCH   8  11
TORSDOF 1
ENDMDL
MODEL 6
REMARK VINA RESULT:      -6.2      4.123      5.526
REMARK  Name = 
REMARK  2 active torsions:
REMARK  status: ('A' for Active; 'I' for Inactive)
REMARK    1  A    between atoms: C_1  and  C_2
REMARK    2  A    between atoms: C_8  and  C_9
REMARK                            x       y       z     vdW  Elec       q    Type
REMARK                         _______ _______ _______ _____ _____    ______ ____
ROOT
ATOM      1  C   UNL     1       0.718   2.507  18.927  0.00  0.00    +0.000 C 
ATOM      2  C   UNL     1       1.813   3.366  18.347  0.00  0.00    +0.000 C 
ATOM      3  O   UNL     1       1.604   4.074  17.369  0.00  0.00    +0.000 OA
ATOM      4  N   UNL     1       2.991   3.241  19.048  0.00  0.00    +0.000 N 
ATOM      5  C   UNL     1       4.157   3.926  18.810  0.00  0.00    +0.000 A 
ATOM      6  N   UNL     1       5.275   3.644  19.439  0.00  0.00    +0.000 NA
ATOM      7  N   UNL     1       6.317   4.460  19.045  0.00  0.00    +0.000 NA
ATOM      8  C   UNL     1       5.938   5.353  18.148  0.00  0.00    +0.000 A 
ATOM      9  S   UNL     1       4.270   5.239  17.733  0.00  0.00    +0.000 S 
ATOM     10  H   UNL     1       3.072   2.538  19.770  0.00  0.00    +0.000 HD
ENDROOT
BRANCH   8  11
ATOM     11  C   UNL     1       6.795   6.395  17.518  0.00  0.00    +0.000 C 
ATOM     12  F   UNL     1       6.120   7.548  17.258  0.00  0.00    +0.000 F 
ATOM     13  F   UNL     1       7.852   6.742  18.303  0.00  0.00    +0.000 F 
ATOM     14  F   UNL     1       7.316   5.980  16.331  0.00  0.00    +0.000 F 
ENDBRANCH   8  11
TORSDOF 1
ENDMDL
MODEL 7
REMARK VINA RESULT:      -6.1      1.443      1.539
REMARK  Name = 
REMARK  2 active torsions:
REMARK  status: ('A' for Active; 'I' for Inactive)
REMARK    1  A    between atoms: C_1  and  C_2
REMARK    2  A    between atoms: C_8  and  C_9
REMARK                            x       y       z     vdW  Elec       q    Type
REMARK                         _______ _______ _______ _____ _____    ______ ____
ROOT
ATOM      1  C   UNL     1       6.577   4.242  15.574  0.00  0.00    +0.000 C 
ATOM      2  C   UNL     1       5.728   4.351  16.815  0.00  0.00    +0.000 C 
ATOM      3  O   UNL     1       5.825   5.321  17.558  0.00  0.00    +0.000 OA
ATOM      4  N   UNL     1       4.887   3.271  16.959  0.00  0.00    +0.000 N 
ATOM      5  C   UNL     1       3.952   3.094  17.950  0.00  0.00    +0.000 A 
ATOM      6  N   UNL     1       3.288   1.969  18.092  0.00  0.00    +0.000 NA
ATOM      7  N   UNL     1       2.401   2.016  19.149  0.00  0.00    +0.000 NA
ATOM      8  C   UNL     1       2.407   3.191  19.752  0.00  0.00    +0.000 A 
ATOM      9  S   UNL     1       3.512   4.312  19.053  0.00  0.00    +0.000 S 
ATOM     10  H   UNL     1       4.980   2.477  16.341  0.00  0.00    +0.000 HD
ENDROOT
BRANCH   8  11
ATOM     11  C   UNL     1       1.570   3.595  20.915  0.00  0.00    +0.000 C 
ATOM     12  F   UNL     1       0.547   4.422  20.568  0.00  0.00    +0.000 F 
ATOM     13  F   UNL     1       1.000   2.528  21.540  0.00  0.00    +0.000 F 
ATOM     14  F   UNL     1       2.292   4.255  21.862  0.00  0.00    +0.000 F 
ENDBRANCH   8  11
TORSDOF 1
ENDMDL
MODEL 8
REMARK VINA RESULT:      -6.1      1.440      1.823
REMARK  Name = 
REMARK  2 active torsions:
REMARK  status: ('A' for Active; 'I' for Inactive)
REMARK    1  A    between atoms: C_1  and  C_2
REMARK    2  A    between atoms: C_8  and  C_9
REMARK                            x       y       z     vdW  Elec       q    Type
REMARK                         _______ _______ _______ _____ _____    ______ ____
ROOT
ATOM      1  C   UNL     1       6.725   4.393  15.685  0.00  0.00    +0.000 C 
ATOM      2  C   UNL     1       5.872   4.423  16.928  0.00  0.00    +0.000 C 
ATOM      3  O   UNL     1       6.004   5.314  17.758  0.00  0.00    +0.000 OA
ATOM      4  N   UNL     1       4.986   3.371  16.969  0.00  0.00    +0.000 N 
ATOM      5  C   UNL     1       4.038   3.141  17.936  0.00  0.00    +0.000 A 
ATOM      6  N   UNL     1       3.327   2.038  17.971  0.00  0.00    +0.000 NA
ATOM      7  N   UNL     1       2.435   2.024  19.025  0.00  0.00    +0.000 NA
ATOM      8  C   UNL     1       2.486   3.136  19.735  0.00  0.00    +0.000 A 
ATOM      9  S   UNL     1       3.641   4.270  19.147  0.00  0.00    +0.000 S 
ATOM     10  H   UNL     1       5.050   2.635  16.279  0.00  0.00    +0.000 HD
ENDROOT
BRANCH   8  11
ATOM     11  C   UNL     1       1.658   3.465  20.928  0.00  0.00    +0.000 C 
ATOM     12  F   UNL     1       2.314   4.246  21.828  0.00  0.00    +0.000 F 
ATOM     13  F   UNL     1       0.520   4.137  20.601  0.00  0.00    +0.000 F 
ATOM     14  F   UNL     1       1.266   2.350  21.603  0.00  0.00    +0.000 F 
ENDBRANCH   8  11
TORSDOF 1
ENDMDL
MODEL 9
REMARK VINA RESULT:      -6.1      1.980      2.213
REMARK  Name = 
REMARK  2 active torsions:
REMARK  status: ('A' for Active; 'I' for Inactive)
REMARK    1  A    between atoms: C_1  and  C_2
REMARK    2  A    between atoms: C_8  and  C_9
REMARK                            x       y       z     vdW  Elec       q    Type
REMARK                         _______ _______ _______ _____ _____    ______ ____
ROOT
ATOM      1  C   UNL     1       7.492   6.187  17.981  0.00  0.00    +0.000 C 
ATOM      2  C   UNL     1       6.328   5.451  18.594  0.00  0.00    +0.000 C 
ATOM      3  O   UNL     1       6.272   5.260  19.803  0.00  0.00    +0.000 OA
ATOM      4  N   UNL     1       5.406   5.066  17.647  0.00  0.00    +0.000 N 
ATOM      5  C   UNL     1       4.213   4.428  17.882  0.00  0.00    +0.000 A 
ATOM      6  N   UNL     1       3.458   3.973  16.909  0.00  0.00    +0.000 NA
ATOM      7  N   UNL     1       2.307   3.372  17.377  0.00  0.00    +0.000 NA
ATOM      8  C   UNL     1       2.221   3.420  18.694  0.00  0.00    +0.000 A 
ATOM      9  S   UNL     1       3.558   4.210  19.438  0.00  0.00    +0.000 S 
ATOM     10  H   UNL     1       5.619   5.181  16.665  0.00  0.00    +0.000 HD
ENDROOT
BRANCH   8  11
ATOM     11  C   UNL     1       1.111   2.884  19.530  0.00  0.00    +0.000 C 
ATOM     12  F   UNL     1       1.542   2.025  20.493  0.00  0.00    +0.000 F 
ATOM     13  F   UNL     1       0.426   3.867  20.176  0.00  0.00    +0.000 F 
ATOM     14  F   UNL     1       0.196   2.201  18.789  0.00  0.00    +0.000 F 
ENDBRANCH   8  11
TORSDOF 1
ENDMDL
