MODEL 1
REMARK VINA RESULT:      -6.2      0.000      0.000
REMARK  Name = 
REMARK  11 active torsions:
REMARK  status: ('A' for Active; 'I' for Inactive)
REMARK    1  A    between atoms: C_1  and  S_2
REMARK    2  A    between atoms: S_2  and  C_3
REMARK    3  A    between atoms: N_10  and  C_11
REMARK    4  A    between atoms: C_11  and  C_12
REMARK    5  A    between atoms: C_12  and  P_13
REMARK    6  A    between atoms: C_12  and  P_17
REMARK    7  A    between atoms: P_13  and  O_15
REMARK    8  A    between atoms: P_13  and  O_16
REMARK    9  A    between atoms: P_17  and  O_19
REMARK   10  A    between atoms: P_17  and  O_20
REMARK   11  A    between atoms: C_23  and  C_24
REMARK                            x       y       z     vdW  Elec       q    Type
REMARK                         _______ _______ _______ _____ _____    ______ ____
ROOT
ATOM      1  C   UNL     1       7.194   5.132  14.095  0.00  0.00    +0.000 A 
ATOM      2  N   UNL     1       7.683   5.716  15.218  0.00  0.00    +0.000 NA
ATOM      3  C   UNL     1       7.265   5.347  16.424  0.00  0.00    +0.000 A 
ATOM      4  N   UNL     1       7.798   5.991  17.448  0.00  0.00    +0.000 NA
ATOM      5  C   UNL     1       7.365   5.668  18.664  0.00  0.00    +0.000 A 
ATOM      6  N   UNL     1       6.417   4.772  18.946  0.00  0.00    +0.000 NA
ATOM      7  C   UNL     1       5.887   4.111  17.906  0.00  0.00    +0.000 A 
ATOM      8  N   UNL     1       4.824   3.221  18.153  0.00  0.00    +0.000 N 
ATOM      9  C   UNL     1       6.311   4.350  16.584  0.00  0.00    +0.000 A 
ATOM     10  C   UNL     1       5.818   3.714  15.418  0.00  0.00    +0.000 A 
ATOM     11  C   UNL     1       6.249   4.098  14.137  0.00  0.00    +0.000 A 
ATOM     12  H   UNL     1       5.074   2.285  17.844  0.00  0.00    +0.000 HD
ENDROOT
BRANCH  11  13
ATOM     13  C   UNL     1       5.706   3.372  12.974  0.00  0.00    +0.000 A 
ATOM     14  C   UNL     1       4.470   3.653  12.305  0.00  0.00    +0.000 A 
ATOM     15  C   UNL     1       4.200   2.794  11.254  0.00  0.00    +0.000 A 
ATOM     16  S   UNL     1       5.455   1.665  11.045  0.00  0.00    +0.000 S 
ATOM     17  C   UNL     1       6.365   2.347  12.321  0.00  0.00    +0.000 A 
ENDBRANCH  11  13
BRANCH   1  19
ATOM     18  C   UNL     1       9.610   6.089  13.059  0.00  0.00    +0.000 C 
ATOM     19  S   UNL     1       7.893   5.777  12.570  0.00  0.00    +0.000 S 
ENDBRANCH   1  19
BRANCH   8  20
ATOM     20  C   UNL     1       4.211   3.267  19.480  0.00  0.00    +0.000 C 
BRANCH  20  21
ATOM     21  C   UNL     1       2.724   3.667  19.474  0.00  0.00    +0.000 C 
BRANCH  21  22
ATOM     22  P   UNL     1       2.483   5.479  19.396  0.00  0.00    +0.000 P 
ATOM     23  O   UNL     1       1.553   5.439  20.619  0.00  0.00    +0.000 OA
BRANCH  22  24
ATOM     24  O   UNL     1       3.965   5.776  20.023  0.00  0.00    +0.000 OA
ATOM     25  H   UNL     1       4.656   5.899  19.350  0.00  0.00    +0.000 HD
ENDBRANCH  22  24
BRANCH  22  26
ATOM     26  O   UNL     1       2.254   7.192  19.323  0.00  0.00    +0.000 OA
ATOM     27  H   UNL     1       1.408   7.337  18.851  0.00  0.00    +0.000 HD
ENDBRANCH  22  26
ENDBRANCH  21  22
BRANCH  21  28
ATOM     28  P   UNL     1       2.001   2.759  18.072  0.00  0.00    +0.000 P 
ATOM     29  O   UNL     1       2.053   3.444  16.747  0.00  0.00    +0.000 OA
BRANCH  28  30
ATOM     30  O   UNL     1       2.611   1.279  18.064  0.00  0.00    +0.000 OA
ATOM     31  H   UNL     1       2.189   0.662  18.710  0.00  0.00    +0.000 HD
ENDBRANCH  28  30
BRANCH  28  32
ATOM     32  O   UNL     1       0.500   2.444  18.524  0.00  0.00    +0.000 OA
ATOM     33  H   UNL     1       0.451   2.371  19.500  0.00  0.00    +0.000 HD
ENDBRANCH  28  32
ENDBRANCH  21  28
ENDBRANCH  20  21
ENDBRANCH   8  20
TORSDOF 10
ENDMDL
MODEL 2
REMARK VINA RESULT:      -6.1      6.072      8.339
REMARK  Name = 
REMARK  11 active torsions:
REMARK  status: ('A' for Active; 'I' for Inactive)
REMARK    1  A    between atoms: C_1  and  S_2
REMARK    2  A    between atoms: S_2  and  C_3
REMARK    3  A    between atoms: N_10  and  C_11
REMARK    4  A    between atoms: C_11  and  C_12
REMARK    5  A    between atoms: C_12  and  P_13
REMARK    6  A    between atoms: C_12  and  P_17
REMARK    7  A    between atoms: P_13  and  O_15
REMARK    8  A    between atoms: P_13  and  O_16
REMARK    9  A    between atoms: P_17  and  O_19
REMARK   10  A    between atoms: P_17  and  O_20
REMARK   11  A    between atoms: C_23  and  C_24
REMARK                            x       y       z     vdW  Elec       q    Type
REMARK                         _______ _______ _______ _____ _____    ______ ____
ROOT
ATOM      1  C   UNL     1       0.499   8.547  20.864  0.00  0.00    +0.000 A 
ATOM      2  N   UNL     1       0.829   7.295  21.272  0.00  0.00    +0.000 NA
ATOM      3  C   UNL     1       1.745   6.581  20.628  0.00  0.00    +0.000 A 
ATOM      4  N   UNL     1       1.980   5.370  21.103  0.00  0.00    +0.000 NA
ATOM      5  C   UNL     1       2.863   4.618  20.451  0.00  0.00    +0.000 A 
ATOM      6  N   UNL     1       3.515   4.964  19.338  0.00  0.00    +0.000 NA
ATOM      7  C   UNL     1       3.285   6.198  18.866  0.00  0.00    +0.000 A 
ATOM      8  N   UNL     1       3.887   6.569  17.648  0.00  0.00    +0.000 N 
ATOM      9  C   UNL     1       2.401   7.084  19.511  0.00  0.00    +0.000 A 
ATOM     10  C   UNL     1       2.084   8.402  19.098  0.00  0.00    +0.000 A 
ATOM     11  C   UNL     1       1.114   9.166  19.767  0.00  0.00    +0.000 A 
ATOM     12  H   UNL     1       4.477   7.385  17.784  0.00  0.00    +0.000 HD
ENDROOT
BRANCH  11  13
ATOM     13  C   UNL     1       0.857  10.537  19.290  0.00  0.00    +0.000 A 
ATOM     14  C   UNL     1       1.763  11.644  19.372  0.00  0.00    +0.000 A 
ATOM     15  C   UNL     1       1.247  12.823  18.864  0.00  0.00    +0.000 A 
ATOM     16  S   UNL     1      -0.322  12.593  18.250  0.00  0.00    +0.000 S 
ATOM     17  C   UNL     1      -0.291  10.926  18.626  0.00  0.00    +0.000 A 
ENDBRANCH  11  13
BRANCH   1  19
ATOM     18  C   UNL     1       0.106   9.529  23.454  0.00  0.00    +0.000 C 
ATOM     19  S   UNL     1      -0.760   9.338  21.874  0.00  0.00    +0.000 S 
ENDBRANCH   1  19
BRANCH   8  20
ATOM     20  C   UNL     1       4.514   5.506  16.864  0.00  0.00    +0.000 C 
BRANCH  20  21
ATOM     21  C   UNL     1       6.009   5.735  16.573  0.00  0.00    +0.000 C 
BRANCH  21  22
ATOM     22  P   UNL     1       7.072   5.369  18.016  0.00  0.00    +0.000 P 
ATOM     23  O   UNL     1       6.101   4.278  18.494  0.00  0.00    +0.000 OA
BRANCH  22  24
ATOM     24  O   UNL     1       8.165   4.567  17.099  0.00  0.00    +0.000 OA
ATOM     25  H   UNL     1       9.080   4.657  17.415  0.00  0.00    +0.000 HD
ENDBRANCH  22  24
BRANCH  22  26
ATOM     26  O   UNL     1       8.077   5.023  19.381  0.00  0.00    +0.000 OA
ATOM     27  H   UNL     1       8.882   4.593  19.027  0.00  0.00    +0.000 HD
ENDBRANCH  22  26
ENDBRANCH  21  22
BRANCH  21  28
ATOM     28  P   UNL     1       6.363   4.710  15.110  0.00  0.00    +0.000 P 
ATOM     29  O   UNL     1       7.553   5.106  14.301  0.00  0.00    +0.000 OA
BRANCH  28  30
ATOM     30  O   UNL     1       6.364   3.175  15.562  0.00  0.00    +0.000 OA
ATOM     31  H   UNL     1       7.109   2.642  15.193  0.00  0.00    +0.000 HD
ENDBRANCH  28  30
BRANCH  28  32
ATOM     32  O   UNL     1       5.015   4.752  14.250  0.00  0.00    +0.000 OA
ATOM     33  H   UNL     1       5.209   5.042  13.334  0.00  0.00    +0.000 HD
ENDBRANCH  28  32
ENDBRANCH  21  28
ENDBRANCH  20  21
ENDBRANCH   8  20
TORSDOF 10
ENDMDL
MODEL 3
REMARK VINA RESULT:      -6.0      6.071      8.393
REMARK  Name = 
REMARK  11 active torsions:
REMARK  status: ('A' for Active; 'I' for Inactive)
REMARK    1  A    between atoms: C_1  and  S_2
REMARK    2  A    between atoms: S_2  and  C_3
REMARK    3  A    between atoms: N_10  and  C_11
REMARK    4  A    between atoms: C_11  and  C_12
REMARK    5  A    between atoms: C_12  and  P_13
REMARK    6  A    between atoms: C_12  and  P_17
REMARK    7  A    between atoms: P_13  and  O_15
REMARK    8  A    between atoms: P_13  and  O_16
REMARK    9  A    between atoms: P_17  and  O_19
REMARK   10  A    between atoms: P_17  and  O_20
REMARK   11  A    between atoms: C_23  and  C_24
REMARK                            x       y       z     vdW  Elec       q    Type
REMARK                         _______ _______ _______ _____ _____    ______ ____
ROOT
ATOM      1  C   UNL     1       0.493   8.380  20.931  0.00  0.00    +0.000 A 
ATOM      2  N   UNL     1       0.897   7.132  21.276  0.00  0.00    +0.000 NA
ATOM      3  C   UNL     1       1.835   6.496  20.583  0.00  0.00    +0.000 A 
ATOM      4  N   UNL     1       2.143   5.280  20.999  0.00  0.00    +0.000 NA
ATOM      5  C   UNL     1       3.050   4.605  20.296  0.00  0.00    +0.000 A 
ATOM      6  N   UNL     1       3.658   5.034  19.187  0.00  0.00    +0.000 NA
ATOM      7  C   UNL     1       3.353   6.272  18.774  0.00  0.00    +0.000 A 
ATOM      8  N   UNL     1       3.906   6.728  17.562  0.00  0.00    +0.000 N 
ATOM      9  C   UNL     1       2.438   7.082  19.476  0.00  0.00    +0.000 A 
ATOM     10  C   UNL     1       2.042   8.396  19.128  0.00  0.00    +0.000 A 
ATOM     11  C   UNL     1       1.049   9.078  19.850  0.00  0.00    +0.000 A 
ATOM     12  H   UNL     1       4.455   7.567  17.722  0.00  0.00    +0.000 HD
ENDROOT
BRANCH  11  13
ATOM     13  C   UNL     1       0.710  10.453  19.439  0.00  0.00    +0.000 A 
ATOM     14  C   UNL     1      -0.414  10.842  18.640  0.00  0.00    +0.000 A 
ATOM     15  C   UNL     1      -0.473  12.202  18.389  0.00  0.00    +0.000 A 
ATOM     16  S   UNL     1       0.809  13.022  19.147  0.00  0.00    +0.000 S 
ATOM     17  C   UNL     1       1.409  11.577  19.835  0.00  0.00    +0.000 A 
ENDBRANCH  11  13
BRANCH   1  19
ATOM     18  C   UNL     1       0.180   9.542  23.456  0.00  0.00    +0.000 C 
ATOM     19  S   UNL     1      -0.783   9.059  22.000  0.00  0.00    +0.000 S 
ENDBRANCH   1  19
BRANCH   8  20
ATOM     20  C   UNL     1       4.570   5.734  16.719  0.00  0.00    +0.000 C 
BRANCH  20  21
ATOM     21  C   UNL     1       5.931   6.190  16.160  0.00  0.00    +0.000 C 
BRANCH  21  22
ATOM     22  P   UNL     1       7.139   6.581  17.477  0.00  0.00    +0.000 P 
ATOM     23  O   UNL     1       6.437   7.916  17.767  0.00  0.00    +0.000 OA
BRANCH  22  24
ATOM     24  O   UNL     1       6.450   5.525  18.521  0.00  0.00    +0.000 OA
ATOM     25  H   UNL     1       6.566   5.769  19.456  0.00  0.00    +0.000 HD
ENDBRANCH  22  24
BRANCH  22  26
ATOM     26  O   UNL     1       8.281   6.950  18.723  0.00  0.00    +0.000 OA
ATOM     27  H   UNL     1       7.757   7.136  19.529  0.00  0.00    +0.000 HD
ENDBRANCH  22  26
ENDBRANCH  21  22
BRANCH  21  28
ATOM     28  P   UNL     1       6.452   4.847  15.046  0.00  0.00    +0.000 P 
ATOM     29  O   UNL     1       5.406   4.309  14.129  0.00  0.00    +0.000 OA
BRANCH  28  30
ATOM     30  O   UNL     1       7.795   5.304  14.305  0.00  0.00    +0.000 OA
ATOM     31  H   UNL     1       8.123   4.666  13.626  0.00  0.00    +0.000 HD
ENDBRANCH  28  30
BRANCH  28  32
ATOM     32  O   UNL     1       7.035   3.718  16.017  0.00  0.00    +0.000 OA
ATOM     33  H   UNL     1       7.839   3.319  15.624  0.00  0.00    +0.000 HD
ENDBRANCH  28  32
ENDBRANCH  21  28
ENDBRANCH  20  21
ENDBRANCH   8  20
TORSDOF 10
ENDMDL
MODEL 4
REMARK VINA RESULT:      -5.9      5.525      7.956
REMARK  Name = 
REMARK  11 active torsions:
REMARK  status: ('A' for Active; 'I' for Inactive)
REMARK    1  A    between atoms: C_1  and  S_2
REMARK    2  A    between atoms: S_2  and  C_3
REMARK    3  A    between atoms: N_10  and  C_11
REMARK    4  A    between atoms: C_11  and  C_12
REMARK    5  A    between atoms: C_12  and  P_13
REMARK    6  A    between atoms: C_12  and  P_17
REMARK    7  A    between atoms: P_13  and  O_15
REMARK    8  A    between atoms: P_13  and  O_16
REMARK    9  A    between atoms: P_17  and  O_19
REMARK   10  A    between atoms: P_17  and  O_20
REMARK   11  A    between atoms: C_23  and  C_24
REMARK                            x       y       z     vdW  Elec       q    Type
REMARK                         _______ _______ _______ _____ _____    ______ ____
ROOT
ATOM      1  C   UNL     1       0.969   7.829  20.618  0.00  0.00    +0.000 A 
ATOM      2  N   UNL     1       1.053   6.537  21.025  0.00  0.00    +0.000 NA
ATOM      3  C   UNL     1       1.837   5.668  20.398  0.00  0.00    +0.000 A 
ATOM      4  N   UNL     1       1.833   4.433  20.870  0.00  0.00    +0.000 NA
ATOM      5  C   UNL     1       2.578   3.533  20.233  0.00  0.00    +0.000 A 
ATOM      6  N   UNL     1       3.310   3.755  19.139  0.00  0.00    +0.000 NA
ATOM      7  C   UNL     1       3.323   5.011  18.669  0.00  0.00    +0.000 A 
ATOM      8  N   UNL     1       4.012   5.268  17.468  0.00  0.00    +0.000 N 
ATOM      9  C   UNL     1       2.602   6.044  19.300  0.00  0.00    +0.000 A 
ATOM     10  C   UNL     1       2.542   7.398  18.888  0.00  0.00    +0.000 A 
ATOM     11  C   UNL     1       1.714   8.327  19.540  0.00  0.00    +0.000 A 
ATOM     12  H   UNL     1       4.739   5.961  17.624  0.00  0.00    +0.000 HD
ENDROOT
BRANCH  11  13
ATOM     13  C   UNL     1       1.726   9.723  19.066  0.00  0.00    +0.000 A 
ATOM     14  C   UNL     1       2.333  10.200  17.859  0.00  0.00    +0.000 A 
ATOM     15  C   UNL     1       2.209  11.566  17.677  0.00  0.00    +0.000 A 
ATOM     16  S   UNL     1       1.326  12.277  18.945  0.00  0.00    +0.000 S 
ATOM     17  C   UNL     1       1.081  10.765  19.704  0.00  0.00    +0.000 A 
ENDBRANCH  11  13
BRANCH   1  19
ATOM     18  C   UNL     1       0.908   9.282  23.007  0.00  0.00    +0.000 C 
ATOM     19  S   UNL     1      -0.147   8.837  21.603  0.00  0.00    +0.000 S 
ENDBRANCH   1  19
BRANCH   8  20
ATOM     20  C   UNL     1       4.451   4.109  16.692  0.00  0.00    +0.000 C 
BRANCH  20  21
ATOM     21  C   UNL     1       5.977   4.018  16.503  0.00  0.00    +0.000 C 
BRANCH  21  22
ATOM     22  P   UNL     1       6.532   4.718  14.906  0.00  0.00    +0.000 P 
ATOM     23  O   UNL     1       5.299   5.632  14.843  0.00  0.00    +0.000 OA
BRANCH  22  24
ATOM     24  O   UNL     1       7.681   5.636  15.626  0.00  0.00    +0.000 OA
ATOM     25  H   UNL     1       8.372   5.945  15.016  0.00  0.00    +0.000 HD
ENDBRANCH  22  24
BRANCH  22  26
ATOM     26  O   UNL     1       7.057   5.381  13.397  0.00  0.00    +0.000 OA
ATOM     27  H   UNL     1       6.988   6.353  13.485  0.00  0.00    +0.000 HD
ENDBRANCH  22  26
ENDBRANCH  21  22
BRANCH  21  28
ATOM     28  P   UNL     1       6.679   4.847  17.963  0.00  0.00    +0.000 P 
ATOM     29  O   UNL     1       6.551   6.334  18.002  0.00  0.00    +0.000 OA
BRANCH  28  30
ATOM     30  O   UNL     1       6.125   4.112  19.272  0.00  0.00    +0.000 OA
ATOM     31  H   UNL     1       6.598   3.274  19.499  0.00  0.00    +0.000 HD
ENDBRANCH  28  30
BRANCH  28  32
ATOM     32  O   UNL     1       8.208   4.378  18.000  0.00  0.00    +0.000 OA
ATOM     33  H   UNL     1       8.271   3.422  17.792  0.00  0.00    +0.000 HD
ENDBRANCH  28  32
ENDBRANCH  21  28
ENDBRANCH  20  21
ENDBRANCH   8  20
TORSDOF 10
ENDMDL
MODEL 5
REMARK VINA RESULT:      -5.9      1.248      1.757
REMARK  Name = 
REMARK  11 active torsions:
REMARK  status: ('A' for Active; 'I' for Inactive)
REMARK    1  A    between atoms: C_1  and  S_2
REMARK    2  A    between atoms: S_2  and  C_3
REMARK    3  A    between atoms: N_10  and  C_11
REMARK    4  A    between atoms: C_11  and  C_12
REMARK    5  A    between atoms: C_12  and  P_13
REMARK    6  A    between atoms: C_12  and  P_17
REMARK    7  A    between atoms: P_13  and  O_15
REMARK    8  A    between atoms: P_13  and  O_16
REMARK    9  A    between atoms: P_17  and  O_19
REMARK   10  A    between atoms: P_17  and  O_20
REMARK   11  A    between atoms: C_23  and  C_24
REMARK                            x       y       z     vdW  Elec       q    Type
REMARK                         _______ _______ _______ _____ _____    ______ ____
ROOT
ATOM      1  C   UNL     1       7.196   5.169  14.137  0.00  0.00    +0.000 A 
ATOM      2  N   UNL     1       7.622   5.753  15.285  0.00  0.00    +0.000 NA
ATOM      3  C   UNL     1       7.186   5.341  16.470  0.00  0.00    +0.000 A 
ATOM      4  N   UNL     1       7.656   5.989  17.521  0.00  0.00    +0.000 NA
ATOM      5  C   UNL     1       7.202   5.623  18.718  0.00  0.00    +0.000 A 
ATOM      6  N   UNL     1       6.290   4.677  18.953  0.00  0.00    +0.000 NA
ATOM      7  C   UNL     1       5.824   4.012  17.886  0.00  0.00    +0.000 A 
ATOM      8  N   UNL     1       4.798   3.068  18.083  0.00  0.00    +0.000 N 
ATOM      9  C   UNL     1       6.276   4.297  16.582  0.00  0.00    +0.000 A 
ATOM     10  C   UNL     1       5.850   3.662  15.390  0.00  0.00    +0.000 A 
ATOM     11  C   UNL     1       6.300   4.091  14.130  0.00  0.00    +0.000 A 
ATOM     12  H   UNL     1       5.101   2.152  17.765  0.00  0.00    +0.000 HD
ENDROOT
BRANCH  11  13
ATOM     13  C   UNL     1       5.828   3.363  12.937  0.00  0.00    +0.000 A 
ATOM     14  C   UNL     1       4.616   3.619  12.217  0.00  0.00    +0.000 A 
ATOM     15  C   UNL     1       4.415   2.764  11.147  0.00  0.00    +0.000 A 
ATOM     16  S   UNL     1       5.706   1.669  10.985  0.00  0.00    +0.000 S 
ATOM     17  C   UNL     1       6.541   2.361  12.306  0.00  0.00    +0.000 A 
ENDBRANCH  11  13
BRANCH   1  19
ATOM     18  C   UNL     1       9.657   6.007  13.104  0.00  0.00    +0.000 C 
ATOM     19  S   UNL     1       7.908   5.876  12.646  0.00  0.00    +0.000 S 
ENDBRANCH   1  19
BRANCH   8  20
ATOM     20  C   UNL     1       4.144   3.059  19.391  0.00  0.00    +0.000 C 
BRANCH  20  21
ATOM     21  C   UNL     1       2.718   2.475  19.379  0.00  0.00    +0.000 C 
BRANCH  21  22
ATOM     22  P   UNL     1       1.901   2.578  21.013  0.00  0.00    +0.000 P 
ATOM     23  O   UNL     1       3.241   2.358  21.731  0.00  0.00    +0.000 OA
BRANCH  22  24
ATOM     24  O   UNL     1       1.755   4.206  20.917  0.00  0.00    +0.000 OA
ATOM     25  H   UNL     1       0.964   4.553  21.363  0.00  0.00    +0.000 HD
ENDBRANCH  22  24
BRANCH  22  26
ATOM     26  O   UNL     1       1.129   2.676  22.558  0.00  0.00    +0.000 OA
ATOM     27  H   UNL     1       0.182   2.481  22.404  0.00  0.00    +0.000 HD
ENDBRANCH  22  26
ENDBRANCH  21  22
BRANCH  21  28
ATOM     28  P   UNL     1       1.854   3.378  18.056  0.00  0.00    +0.000 P 
ATOM     29  O   UNL     1       2.209   2.997  16.658  0.00  0.00    +0.000 OA
BRANCH  28  30
ATOM     30  O   UNL     1       0.284   3.336  18.364  0.00  0.00    +0.000 OA
ATOM     31  H   UNL     1       0.014   3.833  19.175  0.00  0.00    +0.000 HD
ENDBRANCH  28  30
BRANCH  28  32
ATOM     32  O   UNL     1       2.159   4.920  18.351  0.00  0.00    +0.000 OA
ATOM     33  H   UNL     1       1.735   5.483  17.670  0.00  0.00    +0.000 HD
ENDBRANCH  28  32
ENDBRANCH  21  28
ENDBRANCH  20  21
ENDBRANCH   8  20
TORSDOF 10
ENDMDL
MODEL 6
REMARK VINA RESULT:      -5.9      1.250      1.627
REMARK  Name = 
REMARK  11 active torsions:
REMARK  status: ('A' for Active; 'I' for Inactive)
REMARK    1  A    between atoms: C_1  and  S_2
REMARK    2  A    between atoms: S_2  and  C_3
REMARK    3  A    between atoms: N_10  and  C_11
REMARK    4  A    between atoms: C_11  and  C_12
REMARK    5  A    between atoms: C_12  and  P_13
REMARK    6  A    between atoms: C_12  and  P_17
REMARK    7  A    between atoms: P_13  and  O_15
REMARK    8  A    between atoms: P_13  and  O_16
REMARK    9  A    between atoms: P_17  and  O_19
REMARK   10  A    between atoms: P_17  and  O_20
REMARK   11  A    between atoms: C_23  and  C_24
REMARK                            x       y       z     vdW  Elec       q    Type
REMARK                         _______ _______ _______ _____ _____    ______ ____
ROOT
ATOM      1  C   UNL     1       7.178   5.073  14.076  0.00  0.00    +0.000 A 
ATOM      2  N   UNL     1       7.630   5.653  15.217  0.00  0.00    +0.000 NA
ATOM      3  C   UNL     1       7.131   5.322  16.402  0.00  0.00    +0.000 A 
ATOM      4  N   UNL     1       7.636   5.957  17.446  0.00  0.00    +0.000 NA
ATOM      5  C   UNL     1       7.123   5.674  18.640  0.00  0.00    +0.000 A 
ATOM      6  N   UNL     1       6.122   4.823  18.881  0.00  0.00    +0.000 NA
ATOM      7  C   UNL     1       5.621   4.170  17.823  0.00  0.00    +0.000 A 
ATOM      8  N   UNL     1       4.508   3.330  18.022  0.00  0.00    +0.000 N 
ATOM      9  C   UNL     1       6.127   4.369  16.523  0.00  0.00    +0.000 A 
ATOM     10  C   UNL     1       5.671   3.737  15.340  0.00  0.00    +0.000 A 
ATOM     11  C   UNL     1       6.187   4.082  14.080  0.00  0.00    +0.000 A 
ATOM     12  H   UNL     1       4.732   2.380  17.740  0.00  0.00    +0.000 HD
ENDROOT
BRANCH  11  13
ATOM     13  C   UNL     1       5.677   3.362  12.898  0.00  0.00    +0.000 A 
ATOM     14  C   UNL     1       4.462   3.648  12.195  0.00  0.00    +0.000 A 
ATOM     15  C   UNL     1       4.221   2.794  11.133  0.00  0.00    +0.000 A 
ATOM     16  S   UNL     1       5.479   1.664  10.956  0.00  0.00    +0.000 S 
ATOM     17  C   UNL     1       6.353   2.339  12.260  0.00  0.00    +0.000 A 
ENDBRANCH  11  13
BRANCH   1  19
ATOM     18  C   UNL     1       9.599   6.185  13.225  0.00  0.00    +0.000 C 
ATOM     19  S   UNL     1       7.987   5.663  12.584  0.00  0.00    +0.000 S 
ENDBRANCH   1  19
BRANCH   8  20
ATOM     20  C   UNL     1       3.826   3.424  19.312  0.00  0.00    +0.000 C 
BRANCH  20  21
ATOM     21  C   UNL     1       2.693   2.399  19.502  0.00  0.00    +0.000 C 
BRANCH  21  22
ATOM     22  P   UNL     1       1.857   2.564  21.122  0.00  0.00    +0.000 P 
ATOM     23  O   UNL     1       2.892   3.601  21.585  0.00  0.00    +0.000 OA
BRANCH  22  24
ATOM     24  O   UNL     1       0.643   3.460  20.485  0.00  0.00    +0.000 OA
ATOM     25  H   UNL     1      -0.240   3.081  20.633  0.00  0.00    +0.000 HD
ENDBRANCH  22  24
BRANCH  22  26
ATOM     26  O   UNL     1       1.067   2.721  22.652  0.00  0.00    +0.000 OA
ATOM     27  H   UNL     1       1.547   2.134  23.271  0.00  0.00    +0.000 HD
ENDBRANCH  22  26
ENDBRANCH  21  22
BRANCH  21  28
ATOM     28  P   UNL     1       1.595   2.644  18.070  0.00  0.00    +0.000 P 
ATOM     29  O   UNL     1       1.253   4.058  17.738  0.00  0.00    +0.000 OA
BRANCH  28  30
ATOM     30  O   UNL     1       2.185   1.810  16.838  0.00  0.00    +0.000 OA
ATOM     31  H   UNL     1       2.342   2.345  16.022  0.00  0.00    +0.000 HD
ENDBRANCH  28  30
BRANCH  28  32
ATOM     32  O   UNL     1       0.294   1.777  18.403  0.00  0.00    +0.000 OA
ATOM     33  H   UNL     1      -0.388   2.341  18.823  0.00  0.00    +0.000 HD
ENDBRANCH  28  32
ENDBRANCH  21  28
ENDBRANCH  20  21
ENDBRANCH   8  20
TORSDOF 10
ENDMDL
MODEL 7
REMARK VINA RESULT:      -5.9      6.327      8.513
REMARK  Name = 
REMARK  11 active torsions:
REMARK  status: ('A' for Active; 'I' for Inactive)
REMARK    1  A    between atoms: C_1  and  S_2
REMARK    2  A    between atoms: S_2  and  C_3
REMARK    3  A    between atoms: N_10  and  C_11
REMARK    4  A    between atoms: C_11  and  C_12
REMARK    5  A    between atoms: C_12  and  P_13
REMARK    6  A    between atoms: C_12  and  P_17
REMARK    7  A    between atoms: P_13  and  O_15
REMARK    8  A    between atoms: P_13  and  O_16
REMARK    9  A    between atoms: P_17  and  O_19
REMARK   10  A    between atoms: P_17  and  O_20
REMARK   11  A    between atoms: C_23  and  C_24
REMARK                            x       y       z     vdW  Elec       q    Type
REMARK                         _______ _______ _______ _____ _____    ______ ____
ROOT
ATOM      1  C   UNL     1       0.385   9.319  20.701  0.00  0.00    +0.000 A 
ATOM      2  N   UNL     1       0.593   8.060  21.162  0.00  0.00    +0.000 NA
ATOM      3  C   UNL     1       1.467   7.249  20.577  0.00  0.00    +0.000 A 
ATOM      4  N   UNL     1       1.582   6.040  21.100  0.00  0.00    +0.000 NA
ATOM      5  C   UNL     1       2.420   5.194  20.507  0.00  0.00    +0.000 A 
ATOM      6  N   UNL     1       3.137   5.444  19.409  0.00  0.00    +0.000 NA
ATOM      7  C   UNL     1       3.030   6.675  18.887  0.00  0.00    +0.000 A 
ATOM      8  N   UNL     1       3.703   6.950  17.682  0.00  0.00    +0.000 N 
ATOM      9  C   UNL     1       2.202   7.655  19.470  0.00  0.00    +0.000 A 
ATOM     10  C   UNL     1       2.012   8.978  19.001  0.00  0.00    +0.000 A 
ATOM     11  C   UNL     1       1.088   9.845  19.608  0.00  0.00    +0.000 A 
ATOM     12  H   UNL     1       4.354   7.719  17.813  0.00  0.00    +0.000 HD
ENDROOT
BRANCH  11  13
ATOM     13  C   UNL     1       0.965  11.215  19.076  0.00  0.00    +0.000 A 
ATOM     14  C   UNL     1       2.048  12.082  18.720  0.00  0.00    +0.000 A 
ATOM     15  C   UNL     1       1.638  13.325  18.267  0.00  0.00    +0.000 A 
ATOM     16  S   UNL     1      -0.058  13.438  18.236  0.00  0.00    +0.000 S 
ATOM     17  C   UNL     1      -0.238  11.828  18.783  0.00  0.00    +0.000 A 
ENDBRANCH  11  13
BRANCH   1  19
ATOM     18  C   UNL     1      -0.451   9.753  23.335  0.00  0.00    +0.000 C 
ATOM     19  S   UNL     1      -0.837  10.249  21.635  0.00  0.00    +0.000 S 
ENDBRANCH   1  19
BRANCH   8  20
ATOM     20  C   UNL     1       4.264   5.811  16.957  0.00  0.00    +0.000 C 
BRANCH  20  21
ATOM     21  C   UNL     1       5.788   5.885  16.747  0.00  0.00    +0.000 C 
BRANCH  21  22
ATOM     22  P   UNL     1       6.728   5.489  18.266  0.00  0.00    +0.000 P 
ATOM     23  O   UNL     1       5.863   4.243  18.514  0.00  0.00    +0.000 OA
BRANCH  22  24
ATOM     24  O   UNL     1       8.009   4.930  17.413  0.00  0.00    +0.000 OA
ATOM     25  H   UNL     1       8.436   5.608  16.862  0.00  0.00    +0.000 HD
ENDBRANCH  22  24
BRANCH  22  26
ATOM     26  O   UNL     1       7.618   5.114  19.701  0.00  0.00    +0.000 OA
ATOM     27  H   UNL     1       8.294   5.815  19.798  0.00  0.00    +0.000 HD
ENDBRANCH  22  26
ENDBRANCH  21  22
BRANCH  21  28
ATOM     28  P   UNL     1       6.123   4.766  15.351  0.00  0.00    +0.000 P 
ATOM     29  O   UNL     1       5.070   4.696  14.296  0.00  0.00    +0.000 OA
BRANCH  28  30
ATOM     30  O   UNL     1       7.587   5.089  14.790  0.00  0.00    +0.000 OA
ATOM     31  H   UNL     1       7.599   5.687  14.004  0.00  0.00    +0.000 HD
ENDBRANCH  28  30
BRANCH  28  32
ATOM     32  O   UNL     1       6.387   3.341  16.028  0.00  0.00    +0.000 OA
ATOM     33  H   UNL     1       6.823   3.458  16.898  0.00  0.00    +0.000 HD
ENDBRANCH  28  32
ENDBRANCH  21  28
ENDBRANCH  20  21
ENDBRANCH   8  20
TORSDOF 10
ENDMDL
MODEL 8
REMARK VINA RESULT:      -5.8      5.827      8.027
REMARK  Name = 
REMARK  11 active torsions:
REMARK  status: ('A' for Active; 'I' for Inactive)
REMARK    1  A    between atoms: C_1  and  S_2
REMARK    2  A    between atoms: S_2  and  C_3
REMARK    3  A    between atoms: N_10  and  C_11
REMARK    4  A    between atoms: C_11  and  C_12
REMARK    5  A    between atoms: C_12  and  P_13
REMARK    6  A    between atoms: C_12  and  P_17
REMARK    7  A    between atoms: P_13  and  O_15
REMARK    8  A    between atoms: P_13  and  O_16
REMARK    9  A    between atoms: P_17  and  O_19
REMARK   10  A    between atoms: P_17  and  O_20
REMARK   11  A    between atoms: C_23  and  C_24
REMARK                            x       y       z     vdW  Elec       q    Type
REMARK                         _______ _______ _______ _____ _____    ______ ____
ROOT
ATOM      1  C   UNL     1       1.257  10.206  18.882  0.00  0.00    +0.000 A 
ATOM      2  N   UNL     1       1.959   9.782  17.800  0.00  0.00    +0.000 NA
ATOM      3  C   UNL     1       2.542   8.589  17.783  0.00  0.00    +0.000 A 
ATOM      4  N   UNL     1       3.210   8.283  16.685  0.00  0.00    +0.000 NA
ATOM      5  C   UNL     1       3.838   7.109  16.659  0.00  0.00    +0.000 A 
ATOM      6  N   UNL     1       3.880   6.222  17.655  0.00  0.00    +0.000 NA
ATOM      7  C   UNL     1       3.191   6.529  18.764  0.00  0.00    +0.000 A 
ATOM      8  N   UNL     1       3.280   5.660  19.868  0.00  0.00    +0.000 N 
ATOM      9  C   UNL     1       2.457   7.727  18.870  0.00  0.00    +0.000 A 
ATOM     10  C   UNL     1       1.701   8.151  19.990  0.00  0.00    +0.000 A 
ATOM     11  C   UNL     1       1.083   9.411  20.023  0.00  0.00    +0.000 A 
ATOM     12  H   UNL     1       2.357   5.315  20.117  0.00  0.00    +0.000 HD
ENDROOT
BRANCH  11  13
ATOM     13  C   UNL     1       0.294   9.769  21.217  0.00  0.00    +0.000 A 
ATOM     14  C   UNL     1      -0.094   8.879  22.270  0.00  0.00    +0.000 A 
ATOM     15  C   UNL     1      -0.854   9.484  23.257  0.00  0.00    +0.000 A 
ATOM     16  S   UNL     1      -1.072  11.140  22.934  0.00  0.00    +0.000 S 
ATOM     17  C   UNL     1      -0.126  11.052  21.514  0.00  0.00    +0.000 A 
ENDBRANCH  11  13
BRANCH   1  19
ATOM     18  C   UNL     1      -1.126  11.462  18.129  0.00  0.00    +0.000 C 
ATOM     19  S   UNL     1       0.550  11.849  18.698  0.00  0.00    +0.000 S 
ENDBRANCH   1  19
BRANCH   8  20
ATOM     20  C   UNL     1       4.310   4.623  19.817  0.00  0.00    +0.000 C 
BRANCH  20  21
ATOM     21  C   UNL     1       3.755   3.187  19.749  0.00  0.00    +0.000 C 
BRANCH  21  22
ATOM     22  P   UNL     1       2.141   3.014  20.593  0.00  0.00    +0.000 P 
ATOM     23  O   UNL     1       1.828   1.736  19.799  0.00  0.00    +0.000 OA
BRANCH  22  24
ATOM     24  O   UNL     1       2.838   2.475  21.972  0.00  0.00    +0.000 OA
ATOM     25  H   UNL     1       2.230   1.983  22.549  0.00  0.00    +0.000 HD
ENDBRANCH  22  24
BRANCH  22  26
ATOM     26  O   UNL     1       0.615   2.850  21.390  0.00  0.00    +0.000 OA
ATOM     27  H   UNL     1       0.809   2.515  22.289  0.00  0.00    +0.000 HD
ENDBRANCH  22  26
ENDBRANCH  21  22
BRANCH  21  28
ATOM     28  P   UNL     1       3.714   2.785  17.974  0.00  0.00    +0.000 P 
ATOM     29  O   UNL     1       2.452   3.122  17.252  0.00  0.00    +0.000 OA
BRANCH  28  30
ATOM     30  O   UNL     1       5.033   3.384  17.294  0.00  0.00    +0.000 OA
ATOM     31  H   UNL     1       5.851   3.293  17.841  0.00  0.00    +0.000 HD
ENDBRANCH  28  30
BRANCH  28  32
ATOM     32  O   UNL     1       4.044   1.222  17.904  0.00  0.00    +0.000 OA
ATOM     33  H   UNL     1       3.510   0.736  18.567  0.00  0.00    +0.000 HD
ENDBRANCH  28  32
ENDBRANCH  21  28
ENDBRANCH  20  21
ENDBRANCH   8  20
TORSDOF 10
ENDMDL
MODEL 9
REMARK VINA RESULT:      -5.8      6.103      8.267
REMARK  Name = 
REMARK  11 active torsions:
REMARK  status: ('A' for Active; 'I' for Inactive)
REMARK    1  A    between atoms: C_1  and  S_2
REMARK    2  A    between atoms: S_2  and  C_3
REMARK    3  A    between atoms: N_10  and  C_11
REMARK    4  A    between atoms: C_11  and  C_12
REMARK    5  A    between atoms: C_12  and  P_13
REMARK    6  A    between atoms: C_12  and  P_17
REMARK    7  A    between atoms: P_13  and  O_15
REMARK    8  A    between atoms: P_13  and  O_16
REMARK    9  A    between atoms: P_17  and  O_19
REMARK   10  A    between atoms: P_17  and  O_20
REMARK   11  A    between atoms: C_23  and  C_24
REMARK                            x       y       z     vdW  Elec       q    Type
REMARK                         _______ _______ _______ _____ _____    ______ ____
ROOT
ATOM      1  C   UNL     1       1.150  10.556  19.016  0.00  0.00    +0.000 A 
ATOM      2  N   UNL     1       1.864  10.095  17.958  0.00  0.00    +0.000 NA
ATOM      3  C   UNL     1       2.359   8.863  17.946  0.00  0.00    +0.000 A 
ATOM      4  N   UNL     1       3.048   8.522  16.871  0.00  0.00    +0.000 NA
ATOM      5  C   UNL     1       3.591   7.307  16.853  0.00  0.00    +0.000 A 
ATOM      6  N   UNL     1       3.528   6.407  17.837  0.00  0.00    +0.000 NA
ATOM      7  C   UNL     1       2.817   6.750  18.921  0.00  0.00    +0.000 A 
ATOM      8  N   UNL     1       2.799   5.864  20.015  0.00  0.00    +0.000 N 
ATOM      9  C   UNL     1       2.168   7.997  19.016  0.00  0.00    +0.000 A 
ATOM     10  C   UNL     1       1.399   8.460  20.111  0.00  0.00    +0.000 A 
ATOM     11  C   UNL     1       0.873   9.762  20.138  0.00  0.00    +0.000 A 
ATOM     12  H   UNL     1       1.844   5.584  20.222  0.00  0.00    +0.000 HD
ENDROOT
BRANCH  11  13
ATOM     13  C   UNL     1       0.063  10.162  21.304  0.00  0.00    +0.000 A 
ATOM     14  C   UNL     1      -0.044   9.449  22.542  0.00  0.00    +0.000 A 
ATOM     15  C   UNL     1      -0.896  10.046  23.455  0.00  0.00    +0.000 A 
ATOM     16  S   UNL     1      -1.544  11.491  22.835  0.00  0.00    +0.000 S 
ATOM     17  C   UNL     1      -0.661  11.337  21.380  0.00  0.00    +0.000 A 
ENDBRANCH  11  13
BRANCH   1  19
ATOM     18  C   UNL     1       2.055  13.191  19.267  0.00  0.00    +0.000 C 
ATOM     19  S   UNL     1       0.571  12.247  18.829  0.00  0.00    +0.000 S 
ENDBRANCH   1  19
BRANCH   8  20
ATOM     20  C   UNL     1       3.752   4.755  19.990  0.00  0.00    +0.000 C 
BRANCH  20  21
ATOM     21  C   UNL     1       3.179   3.419  20.499  0.00  0.00    +0.000 C 
BRANCH  21  22
ATOM     22  P   UNL     1       1.529   3.048  19.800  0.00  0.00    +0.000 P 
ATOM     23  O   UNL     1       0.901   4.209  20.588  0.00  0.00    +0.000 OA
BRANCH  22  24
ATOM     24  O   UNL     1       1.916   3.704  18.351  0.00  0.00    +0.000 OA
ATOM     25  H   UNL     1       2.071   4.664  18.387  0.00  0.00    +0.000 HD
ENDBRANCH  22  24
BRANCH  22  26
ATOM     26  O   UNL     1      -0.031   2.699  19.140  0.00  0.00    +0.000 OA
ATOM     27  H   UNL     1      -0.658   3.313  19.574  0.00  0.00    +0.000 HD
ENDBRANCH  22  26
ENDBRANCH  21  22
BRANCH  21  28
ATOM     28  P   UNL     1       4.452   2.181  20.097  0.00  0.00    +0.000 P 
ATOM     29  O   UNL     1       5.082   1.485  21.257  0.00  0.00    +0.000 OA
BRANCH  28  30
ATOM     30  O   UNL     1       3.857   1.192  18.988  0.00  0.00    +0.000 OA
ATOM     31  H   UNL     1       4.540   0.748  18.430  0.00  0.00    +0.000 HD
ENDBRANCH  28  30
BRANCH  28  32
ATOM     32  O   UNL     1       5.528   2.975  19.220  0.00  0.00    +0.000 OA
ATOM     33  H   UNL     1       6.434   2.771  19.534  0.00  0.00    +0.000 HD
ENDBRANCH  28  32
ENDBRANCH  21  28
ENDBRANCH  20  21
ENDBRANCH   8  20
TORSDOF 10
ENDMDL
