MODEL 1
REMARK VINA RESULT:      -7.5      0.000      0.000
REMARK  Name = 
REMARK  12 active torsions:
REMARK  status: ('A' for Active; 'I' for Inactive)
REMARK    1  A    between atoms: C_2  and  C_3
REMARK    2  A    between atoms: C_3  and  C_4
REMARK    3  A    between atoms: C_6  and  C_7
REMARK    4  A    between atoms: N_10  and  S_11
REMARK    5  A    between atoms: S_11  and  C_14
REMARK    6  A    between atoms: C_14  and  C_15
REMARK    7  A    between atoms: C_15  and  C_16
REMARK    8  A    between atoms: C_19  and  C_20
REMARK    9  A    between atoms: C_23  and  O_24
REMARK   10  A    between atoms: C_25  and  C_26
REMARK   11  A    between atoms: C_26  and  C_27
REMARK   12  A    between atoms: C_34  and  O_35
REMARK                            x       y       z     vdW  Elec       q    Type
REMARK                         _______ _______ _______ _____ _____    ______ ____
ROOT
ATOM      1  C   UNL     1       1.204   8.540  21.391  0.00  0.00    +0.000 C 
ATOM      2  C   UNL     1       0.215   9.456  21.263  0.00  0.00    +0.000 C 
ATOM      3  C   UNL     1      -0.502   9.756  19.987  0.00  0.00    +0.000 C 
ATOM      4  N   UNL     1      -0.860  11.178  19.889  0.00  0.00    +0.000 NA
ATOM      5  C   UNL     1      -1.798  11.549  20.964  0.00  0.00    +0.000 C 
ATOM      6  C   UNL     1      -1.167  11.336  22.306  0.00  0.00    +0.000 C 
ATOM      7  C   UNL     1      -1.469  12.072  23.396  0.00  0.00    +0.000 C 
ATOM      8  C   UNL     1      -0.194  10.215  22.483  0.00  0.00    +0.000 C 
ATOM      9  O   UNL     1       0.232   9.911  23.597  0.00  0.00    +0.000 OA
ENDROOT
BRANCH   1  12
ATOM     10  C   UNL     1       2.358   5.425  19.545  0.00  0.00    +0.000 A 
ATOM     11  C   UNL     1       1.815   6.282  20.525  0.00  0.00    +0.000 A 
ATOM     12  C   UNL     1       1.749   7.670  20.323  0.00  0.00    +0.000 A 
ATOM     13  C   UNL     1       2.175   8.174  19.086  0.00  0.00    +0.000 A 
ATOM     14  C   UNL     1       2.749   7.347  18.123  0.00  0.00    +0.000 A 
ATOM     15  C   UNL     1       2.827   5.981  18.350  0.00  0.00    +0.000 A 
BRANCH  15  16
ATOM     16  O   UNL     1       3.349   5.164  17.388  0.00  0.00    +0.000 OA
ATOM     17  H   UNL     1       3.563   4.307  17.793  0.00  0.00    +0.000 HD
ENDBRANCH  15  16
BRANCH  10  18
ATOM     18  C   UNL     1       2.397   3.932  19.780  0.00  0.00    +0.000 C 
BRANCH  18  20
ATOM     19  C   UNL     1       1.491   2.638  21.738  0.00  0.00    +0.000 C 
ATOM     20  C   UNL     1       1.306   3.470  20.705  0.00  0.00    +0.000 C 
ENDBRANCH  18  20
ENDBRANCH  10  18
ENDBRANCH   1  12
BRANCH   7  21
ATOM     21  C   UNL     1      -2.480  13.130  23.357  0.00  0.00    +0.000 A 
ATOM     22  C   UNL     1      -3.829  12.805  23.526  0.00  0.00    +0.000 A 
ATOM     23  C   UNL     1      -4.811  13.781  23.355  0.00  0.00    +0.000 A 
ATOM     24  C   UNL     1      -4.442  15.086  23.023  0.00  0.00    +0.000 A 
ATOM     25  C   UNL     1      -3.095  15.441  22.874  0.00  0.00    +0.000 A 
ATOM     26  C   UNL     1      -2.118  14.444  23.037  0.00  0.00    +0.000 A 
BRANCH  24  27
ATOM     27  O   UNL     1      -5.406  16.036  22.844  0.00  0.00    +0.000 OA
ATOM     28  H   UNL     1      -6.135  15.865  23.460  0.00  0.00    +0.000 HD
ENDBRANCH  24  27
BRANCH  25  29
ATOM     29  C   UNL     1      -2.665  16.854  22.549  0.00  0.00    +0.000 C 
BRANCH  29  30
ATOM     30  C   UNL     1      -1.700  17.526  23.491  0.00  0.00    +0.000 C 
ATOM     31  C   UNL     1      -1.894  17.900  24.763  0.00  0.00    +0.000 C 
ENDBRANCH  29  30
ENDBRANCH  25  29
ENDBRANCH   7  21
BRANCH   4  32
ATOM     32  S   UNL     1      -1.438  11.584  18.322  0.00  0.00    +0.000 S 
ATOM     33  O   UNL     1      -0.881  12.869  17.950  0.00  0.00    +0.000 OA
ATOM     34  O   UNL     1      -1.262  10.427  17.478  0.00  0.00    +0.000 OA
BRANCH  32  35
ATOM     35  C   UNL     1      -3.185  11.838  18.637  0.00  0.00    +0.000 C 
BRANCH  35  36
ATOM     36  C   UNL     1      -4.002  10.807  17.864  0.00  0.00    +0.000 C 
ATOM     37  C   UNL     1      -4.626  11.385  16.608  0.00  0.00    +0.000 C 
ENDBRANCH  35  36
ENDBRANCH  32  35
ENDBRANCH   4  32
TORSDOF 11
ENDMDL
MODEL 2
REMARK VINA RESULT:      -7.4      1.088      9.304
REMARK  Name = 
REMARK  12 active torsions:
REMARK  status: ('A' for Active; 'I' for Inactive)
REMARK    1  A    between atoms: C_2  and  C_3
REMARK    2  A    between atoms: C_3  and  C_4
REMARK    3  A    between atoms: C_6  and  C_7
REMARK    4  A    between atoms: N_10  and  S_11
REMARK    5  A    between atoms: S_11  and  C_14
REMARK    6  A    between atoms: C_14  and  C_15
REMARK    7  A    between atoms: C_15  and  C_16
REMARK    8  A    between atoms: C_19  and  C_20
REMARK    9  A    between atoms: C_23  and  O_24
REMARK   10  A    between atoms: C_25  and  C_26
REMARK   11  A    between atoms: C_26  and  C_27
REMARK   12  A    between atoms: C_34  and  O_35
REMARK                            x       y       z     vdW  Elec       q    Type
REMARK                         _______ _______ _______ _____ _____    ______ ____
ROOT
ATOM      1  C   UNL     1      -1.501  11.697  23.067  0.00  0.00    +0.000 C 
ATOM      2  C   UNL     1      -0.898  11.070  22.029  0.00  0.00    +0.000 C 
ATOM      3  C   UNL     1      -1.061  11.456  20.596  0.00  0.00    +0.000 C 
ATOM      4  N   UNL     1      -1.034  10.282  19.712  0.00  0.00    +0.000 NA
ATOM      5  C   UNL     1       0.273   9.605  19.791  0.00  0.00    +0.000 C 
ATOM      6  C   UNL     1       0.529   9.124  21.186  0.00  0.00    +0.000 C 
ATOM      7  C   UNL     1       1.269   8.032  21.473  0.00  0.00    +0.000 C 
ATOM      8  C   UNL     1      -0.002   9.914  22.338  0.00  0.00    +0.000 C 
ATOM      9  O   UNL     1       0.310   9.641  23.497  0.00  0.00    +0.000 OA
ENDROOT
BRANCH   1  12
ATOM     10  C   UNL     1      -4.686  13.751  22.782  0.00  0.00    +0.000 A 
ATOM     11  C   UNL     1      -3.793  12.663  22.891  0.00  0.00    +0.000 A 
ATOM     12  C   UNL     1      -2.408  12.866  22.989  0.00  0.00    +0.000 A 
ATOM     13  C   UNL     1      -1.940  14.186  23.045  0.00  0.00    +0.000 A 
ATOM     14  C   UNL     1      -2.803  15.270  22.899  0.00  0.00    +0.000 A 
ATOM     15  C   UNL     1      -4.167  15.049  22.782  0.00  0.00    +0.000 A 
BRANCH  15  16
ATOM     16  O   UNL     1      -5.018  16.113  22.683  0.00  0.00    +0.000 OA
ATOM     17  H   UNL     1      -4.872  16.548  21.826  0.00  0.00    +0.000 HD
ENDBRANCH  15  16
BRANCH  10  18
ATOM     18  C   UNL     1      -6.175  13.504  22.700  0.00  0.00    +0.000 C 
BRANCH  18  20
ATOM     19  C   UNL     1      -6.827  11.968  20.817  0.00  0.00    +0.000 C 
ATOM     20  C   UNL     1      -6.629  13.202  21.299  0.00  0.00    +0.000 C 
ENDBRANCH  18  20
ENDBRANCH  10  18
ENDBRANCH   1  12
BRANCH   7  21
ATOM     21  C   UNL     1       1.918   7.243  20.425  0.00  0.00    +0.000 A 
ATOM     22  C   UNL     1       2.190   7.829  19.185  0.00  0.00    +0.000 A 
ATOM     23  C   UNL     1       2.682   7.051  18.137  0.00  0.00    +0.000 A 
ATOM     24  C   UNL     1       2.909   5.687  18.331  0.00  0.00    +0.000 A 
ATOM     25  C   UNL     1       2.668   5.083  19.572  0.00  0.00    +0.000 A 
ATOM     26  C   UNL     1       2.161   5.877  20.615  0.00  0.00    +0.000 A 
BRANCH  24  27
ATOM     27  O   UNL     1       3.379   4.927  17.299  0.00  0.00    +0.000 OA
ATOM     28  H   UNL     1       2.639   4.438  16.905  0.00  0.00    +0.000 HD
ENDBRANCH  24  27
BRANCH  25  29
ATOM     29  C   UNL     1       2.938   3.617  19.821  0.00  0.00    +0.000 C 
BRANCH  29  30
ATOM     30  C   UNL     1       1.812   2.646  19.578  0.00  0.00    +0.000 C 
ATOM     31  C   UNL     1       0.668   2.841  18.908  0.00  0.00    +0.000 C 
ENDBRANCH  29  30
ENDBRANCH  25  29
ENDBRANCH   7  21
BRANCH   4  32
ATOM     32  S   UNL     1      -1.488  10.682  18.103  0.00  0.00    +0.000 S 
ATOM     33  O   UNL     1      -1.350  12.115  17.934  0.00  0.00    +0.000 OA
ATOM     34  O   UNL     1      -0.815   9.762  17.217  0.00  0.00    +0.000 OA
BRANCH  32  35
ATOM     35  C   UNL     1      -3.245  10.321  18.124  0.00  0.00    +0.000 C 
BRANCH  35  36
ATOM     36  C   UNL     1      -4.032  11.612  18.331  0.00  0.00    +0.000 C 
ATOM     37  C   UNL     1      -5.096  11.817  17.270  0.00  0.00    +0.000 C 
ENDBRANCH  35  36
ENDBRANCH  32  35
ENDBRANCH   4  32
TORSDOF 11
ENDMDL
MODEL 3
REMARK VINA RESULT:      -7.4      1.544      2.848
REMARK  Name = 
REMARK  12 active torsions:
REMARK  status: ('A' for Active; 'I' for Inactive)
REMARK    1  A    between atoms: C_2  and  C_3
REMARK    2  A    between atoms: C_3  and  C_4
REMARK    3  A    between atoms: C_6  and  C_7
REMARK    4  A    between atoms: N_10  and  S_11
REMARK    5  A    between atoms: S_11  and  C_14
REMARK    6  A    between atoms: C_14  and  C_15
REMARK    7  A    between atoms: C_15  and  C_16
REMARK    8  A    between atoms: C_19  and  C_20
REMARK    9  A    between atoms: C_23  and  O_24
REMARK   10  A    between atoms: C_25  and  C_26
REMARK   11  A    between atoms: C_26  and  C_27
REMARK   12  A    between atoms: C_34  and  O_35
REMARK                            x       y       z     vdW  Elec       q    Type
REMARK                         _______ _______ _______ _____ _____    ______ ____
ROOT
ATOM      1  C   UNL     1       1.162   8.567  21.422  0.00  0.00    +0.000 C 
ATOM      2  C   UNL     1       0.148   9.459  21.314  0.00  0.00    +0.000 C 
ATOM      3  C   UNL     1      -0.569   9.778  20.044  0.00  0.00    +0.000 C 
ATOM      4  N   UNL     1      -0.967  11.192  19.987  0.00  0.00    +0.000 NA
ATOM      5  C   UNL     1      -1.920  11.504  21.066  0.00  0.00    +0.000 C 
ATOM      6  C   UNL     1      -1.291  11.268  22.405  0.00  0.00    +0.000 C 
ATOM      7  C   UNL     1      -1.619  11.962  23.515  0.00  0.00    +0.000 C 
ATOM      8  C   UNL     1      -0.288  10.170  22.555  0.00  0.00    +0.000 C 
ATOM      9  O   UNL     1       0.139   9.844  23.661  0.00  0.00    +0.000 OA
ENDROOT
BRANCH   1  12
ATOM     10  C   UNL     1       2.350   5.535  19.463  0.00  0.00    +0.000 A 
ATOM     11  C   UNL     1       1.781   6.349  20.465  0.00  0.00    +0.000 A 
ATOM     12  C   UNL     1       1.737   7.746  20.331  0.00  0.00    +0.000 A 
ATOM     13  C   UNL     1       2.213   8.306  19.138  0.00  0.00    +0.000 A 
ATOM     14  C   UNL     1       2.814   7.521  18.155  0.00  0.00    +0.000 A 
ATOM     15  C   UNL     1       2.868   6.144  18.315  0.00  0.00    +0.000 A 
BRANCH  15  16
ATOM     16  O   UNL     1       3.417   5.370  17.333  0.00  0.00    +0.000 OA
ATOM     17  H   UNL     1       4.310   5.106  17.610  0.00  0.00    +0.000 HD
ENDBRANCH  15  16
BRANCH  10  18
ATOM     18  C   UNL     1       2.364   4.032  19.623  0.00  0.00    +0.000 C 
BRANCH  18  20
ATOM     19  C   UNL     1       0.966   2.053  18.945  0.00  0.00    +0.000 C 
ATOM     20  C   UNL     1       1.196   3.373  18.944  0.00  0.00    +0.000 C 
ENDBRANCH  18  20
ENDBRANCH  10  18
ENDBRANCH   1  12
BRANCH   7  21
ATOM     21  C   UNL     1      -2.659  12.993  23.501  0.00  0.00    +0.000 A 
ATOM     22  C   UNL     1      -2.298  14.339  23.403  0.00  0.00    +0.000 A 
ATOM     23  C   UNL     1      -3.269  15.334  23.526  0.00  0.00    +0.000 A 
ATOM     24  C   UNL     1      -4.602  14.981  23.739  0.00  0.00    +0.000 A 
ATOM     25  C   UNL     1      -4.992  13.637  23.814  0.00  0.00    +0.000 A 
ATOM     26  C   UNL     1      -4.001  12.646  23.701  0.00  0.00    +0.000 A 
BRANCH  24  27
ATOM     27  O   UNL     1      -5.547  15.957  23.871  0.00  0.00    +0.000 OA
ATOM     28  H   UNL     1      -6.425  15.546  23.891  0.00  0.00    +0.000 HD
ENDBRANCH  24  27
BRANCH  25  29
ATOM     29  C   UNL     1      -6.433  13.225  24.008  0.00  0.00    +0.000 C 
BRANCH  29  30
ATOM     30  C   UNL     1      -7.157  12.632  22.827  0.00  0.00    +0.000 C 
ATOM     31  C   UNL     1      -6.923  12.818  21.521  0.00  0.00    +0.000 C 
ENDBRANCH  29  30
ENDBRANCH  25  29
ENDBRANCH   7  21
BRANCH   4  32
ATOM     32  S   UNL     1      -1.547  11.630  18.429  0.00  0.00    +0.000 S 
ATOM     33  O   UNL     1      -1.173  10.588  17.494  0.00  0.00    +0.000 OA
ATOM     34  O   UNL     1      -2.924  12.037  18.574  0.00  0.00    +0.000 OA
BRANCH  32  35
ATOM     35  C   UNL     1      -0.532  13.061  18.057  0.00  0.00    +0.000 C 
BRANCH  35  36
ATOM     36  C   UNL     1       0.717  13.047  18.933  0.00  0.00    +0.000 C 
ATOM     37  C   UNL     1       1.831  13.906  18.367  0.00  0.00    +0.000 C 
ENDBRANCH  35  36
ENDBRANCH  32  35
ENDBRANCH   4  32
TORSDOF 11
ENDMDL
MODEL 4
REMARK VINA RESULT:      -7.4      1.044      9.410
REMARK  Name = 
REMARK  12 active torsions:
REMARK  status: ('A' for Active; 'I' for Inactive)
REMARK    1  A    between atoms: C_2  and  C_3
REMARK    2  A    between atoms: C_3  and  C_4
REMARK    3  A    between atoms: C_6  and  C_7
REMARK    4  A    between atoms: N_10  and  S_11
REMARK    5  A    between atoms: S_11  and  C_14
REMARK    6  A    between atoms: C_14  and  C_15
REMARK    7  A    between atoms: C_15  and  C_16
REMARK    8  A    between atoms: C_19  and  C_20
REMARK    9  A    between atoms: C_23  and  O_24
REMARK   10  A    between atoms: C_25  and  C_26
REMARK   11  A    between atoms: C_26  and  C_27
REMARK   12  A    between atoms: C_34  and  O_35
REMARK                            x       y       z     vdW  Elec       q    Type
REMARK                         _______ _______ _______ _____ _____    ______ ____
ROOT
ATOM      1  C   UNL     1      -1.409  12.112  22.891  0.00  0.00    +0.000 C 
ATOM      2  C   UNL     1      -0.893  11.360  21.890  0.00  0.00    +0.000 C 
ATOM      3  C   UNL     1      -1.090  11.635  20.435  0.00  0.00    +0.000 C 
ATOM      4  N   UNL     1      -1.177  10.392  19.656  0.00  0.00    +0.000 NA
ATOM      5  C   UNL     1       0.085   9.637  19.746  0.00  0.00    +0.000 C 
ATOM      6  C   UNL     1       0.368   9.257  21.167  0.00  0.00    +0.000 C 
ATOM      7  C   UNL     1       1.046   8.145  21.520  0.00  0.00    +0.000 C 
ATOM      8  C   UNL     1      -0.062  10.176  22.265  0.00  0.00    +0.000 C 
ATOM      9  O   UNL     1       0.280   9.980  23.431  0.00  0.00    +0.000 OA
ENDROOT
BRANCH   1  12
ATOM     10  C   UNL     1      -4.462  14.346  22.520  0.00  0.00    +0.000 A 
ATOM     11  C   UNL     1      -3.638  13.213  22.691  0.00  0.00    +0.000 A 
ATOM     12  C   UNL     1      -2.240  13.330  22.745  0.00  0.00    +0.000 A 
ATOM     13  C   UNL     1      -1.687  14.616  22.694  0.00  0.00    +0.000 A 
ATOM     14  C   UNL     1      -2.482  15.742  22.486  0.00  0.00    +0.000 A 
ATOM     15  C   UNL     1      -3.860  15.604  22.413  0.00  0.00    +0.000 A 
BRANCH  15  16
ATOM     16  O   UNL     1      -4.643  16.712  22.253  0.00  0.00    +0.000 OA
ATOM     17  H   UNL     1      -5.287  16.743  22.979  0.00  0.00    +0.000 HD
ENDBRANCH  15  16
BRANCH  10  18
ATOM     18  C   UNL     1      -5.965  14.194  22.487  0.00  0.00    +0.000 C 
BRANCH  18  20
ATOM     19  C   UNL     1      -7.862  13.884  24.111  0.00  0.00    +0.000 C 
ATOM     20  C   UNL     1      -6.556  14.050  23.862  0.00  0.00    +0.000 C 
ENDBRANCH  18  20
ENDBRANCH  10  18
ENDBRANCH   1  12
BRANCH   7  21
ATOM     21  C   UNL     1       1.598   7.228  20.521  0.00  0.00    +0.000 A 
ATOM     22  C   UNL     1       2.390   7.729  19.484  0.00  0.00    +0.000 A 
ATOM     23  C   UNL     1       2.806   6.887  18.453  0.00  0.00    +0.000 A 
ATOM     24  C   UNL     1       2.437   5.541  18.464  0.00  0.00    +0.000 A 
ATOM     25  C   UNL     1       1.665   5.011  19.506  0.00  0.00    +0.000 A 
ATOM     26  C   UNL     1       1.243   5.874  20.532  0.00  0.00    +0.000 A 
BRANCH  24  27
ATOM     27  O   UNL     1       2.836   4.722  17.447  0.00  0.00    +0.000 OA
ATOM     28  H   UNL     1       2.438   3.847  17.571  0.00  0.00    +0.000 HD
ENDBRANCH  24  27
BRANCH  25  29
ATOM     29  C   UNL     1       1.280   3.550  19.562  0.00  0.00    +0.000 C 
BRANCH  29  30
ATOM     30  C   UNL     1       2.122   2.635  20.412  0.00  0.00    +0.000 C 
ATOM     31  C   UNL     1       2.381   2.714  21.725  0.00  0.00    +0.000 C 
ENDBRANCH  29  30
ENDBRANCH  25  29
ENDBRANCH   7  21
BRANCH   4  32
ATOM     32  S   UNL     1      -1.671  10.687  18.036  0.00  0.00    +0.000 S 
ATOM     33  O   UNL     1      -1.483  12.094  17.751  0.00  0.00    +0.000 OA
ATOM     34  O   UNL     1      -1.067   9.674  17.204  0.00  0.00    +0.000 OA
BRANCH  32  35
ATOM     35  C   UNL     1      -3.439  10.403  18.142  0.00  0.00    +0.000 C 
BRANCH  35  36
ATOM     36  C   UNL     1      -4.181  11.731  18.022  0.00  0.00    +0.000 C 
ATOM     37  C   UNL     1      -4.812  12.162  19.332  0.00  0.00    +0.000 C 
ENDBRANCH  35  36
ENDBRANCH  32  35
ENDBRANCH   4  32
TORSDOF 11
ENDMDL
MODEL 5
REMARK VINA RESULT:      -7.4      1.150      1.385
REMARK  Name = 
REMARK  12 active torsions:
REMARK  status: ('A' for Active; 'I' for Inactive)
REMARK    1  A    between atoms: C_2  and  C_3
REMARK    2  A    between atoms: C_3  and  C_4
REMARK    3  A    between atoms: C_6  and  C_7
REMARK    4  A    between atoms: N_10  and  S_11
REMARK    5  A    between atoms: S_11  and  C_14
REMARK    6  A    between atoms: C_14  and  C_15
REMARK    7  A    between atoms: C_15  and  C_16
REMARK    8  A    between atoms: C_19  and  C_20
REMARK    9  A    between atoms: C_23  and  O_24
REMARK   10  A    between atoms: C_25  and  C_26
REMARK   11  A    between atoms: C_26  and  C_27
REMARK   12  A    between atoms: C_34  and  O_35
REMARK                            x       y       z     vdW  Elec       q    Type
REMARK                         _______ _______ _______ _____ _____    ______ ____
ROOT
ATOM      1  C   UNL     1       1.118   8.828  21.417  0.00  0.00    +0.000 C 
ATOM      2  C   UNL     1       0.077   9.686  21.302  0.00  0.00    +0.000 C 
ATOM      3  C   UNL     1      -0.660   9.959  20.032  0.00  0.00    +0.000 C 
ATOM      4  N   UNL     1      -1.100  11.360  19.952  0.00  0.00    +0.000 NA
ATOM      5  C   UNL     1      -2.054  11.664  21.033  0.00  0.00    +0.000 C 
ATOM      6  C   UNL     1      -1.407  11.472  22.371  0.00  0.00    +0.000 C 
ATOM      7  C   UNL     1      -1.747  12.177  23.471  0.00  0.00    +0.000 C 
ATOM      8  C   UNL     1      -0.370  10.407  22.533  0.00  0.00    +0.000 C 
ATOM      9  O   UNL     1       0.076  10.115  23.641  0.00  0.00    +0.000 OA
ENDROOT
BRANCH   1  12
ATOM     10  C   UNL     1       2.683   5.872  19.611  0.00  0.00    +0.000 A 
ATOM     11  C   UNL     1       2.087   6.678  20.605  0.00  0.00    +0.000 A 
ATOM     12  C   UNL     1       1.709   8.003  20.337  0.00  0.00    +0.000 A 
ATOM     13  C   UNL     1       1.876   8.482  19.030  0.00  0.00    +0.000 A 
ATOM     14  C   UNL     1       2.498   7.714  18.048  0.00  0.00    +0.000 A 
ATOM     15  C   UNL     1       2.885   6.414  18.338  0.00  0.00    +0.000 A 
BRANCH  15  16
ATOM     16  O   UNL     1       3.455   5.645  17.363  0.00  0.00    +0.000 OA
ATOM     17  H   UNL     1       4.311   6.036  17.122  0.00  0.00    +0.000 HD
ENDBRANCH  15  16
BRANCH  10  18
ATOM     18  C   UNL     1       3.061   4.442  19.921  0.00  0.00    +0.000 C 
BRANCH  18  20
ATOM     19  C   UNL     1       0.752   3.495  20.243  0.00  0.00    +0.000 C 
ATOM     20  C   UNL     1       1.943   3.479  19.631  0.00  0.00    +0.000 C 
ENDBRANCH  18  20
ENDBRANCH  10  18
ENDBRANCH   1  12
BRANCH   7  21
ATOM     21  C   UNL     1      -2.818  13.175  23.447  0.00  0.00    +0.000 A 
ATOM     22  C   UNL     1      -4.113  12.810  23.824  0.00  0.00    +0.000 A 
ATOM     23  C   UNL     1      -5.166  13.713  23.675  0.00  0.00    +0.000 A 
ATOM     24  C   UNL     1      -4.920  14.986  23.157  0.00  0.00    +0.000 A 
ATOM     25  C   UNL     1      -3.627  15.383  22.796  0.00  0.00    +0.000 A 
ATOM     26  C   UNL     1      -2.578  14.458  22.940  0.00  0.00    +0.000 A 
BRANCH  24  27
ATOM     27  O   UNL     1      -5.955  15.863  23.001  0.00  0.00    +0.000 OA
ATOM     28  H   UNL     1      -6.762  15.468  23.366  0.00  0.00    +0.000 HD
ENDBRANCH  24  27
BRANCH  25  29
ATOM     29  C   UNL     1      -3.326  16.767  22.266  0.00  0.00    +0.000 C 
BRANCH  29  30
ATOM     30  C   UNL     1      -2.085  16.941  21.429  0.00  0.00    +0.000 C 
ATOM     31  C   UNL     1      -1.966  16.924  20.094  0.00  0.00    +0.000 C 
ENDBRANCH  29  30
ENDBRANCH  25  29
ENDBRANCH   7  21
BRANCH   4  32
ATOM     32  S   UNL     1      -1.706  11.750  18.391  0.00  0.00    +0.000 S 
ATOM     33  O   UNL     1      -3.141  11.918  18.488  0.00  0.00    +0.000 OA
ATOM     34  O   UNL     1      -0.871  12.796  17.848  0.00  0.00    +0.000 OA
BRANCH  32  35
ATOM     35  C   UNL     1      -1.413  10.222  17.499  0.00  0.00    +0.000 C 
BRANCH  35  36
ATOM     36  C   UNL     1      -2.695   9.784  16.796  0.00  0.00    +0.000 C 
ATOM     37  C   UNL     1      -2.773  10.287  15.367  0.00  0.00    +0.000 C 
ENDBRANCH  35  36
ENDBRANCH  32  35
ENDBRANCH   4  32
TORSDOF 11
ENDMDL
MODEL 6
REMARK VINA RESULT:      -7.3      1.267      2.494
REMARK  Name = 
REMARK  12 active torsions:
REMARK  status: ('A' for Active; 'I' for Inactive)
REMARK    1  A    between atoms: C_2  and  C_3
REMARK    2  A    between atoms: C_3  and  C_4
REMARK    3  A    between atoms: C_6  and  C_7
REMARK    4  A    between atoms: N_10  and  S_11
REMARK    5  A    between atoms: S_11  and  C_14
REMARK    6  A    between atoms: C_14  and  C_15
REMARK    7  A    between atoms: C_15  and  C_16
REMARK    8  A    between atoms: C_19  and  C_20
REMARK    9  A    between atoms: C_23  and  O_24
REMARK   10  A    between atoms: C_25  and  C_26
REMARK   11  A    between atoms: C_26  and  C_27
REMARK   12  A    between atoms: C_34  and  O_35
REMARK                            x       y       z     vdW  Elec       q    Type
REMARK                         _______ _______ _______ _____ _____    ______ ____
ROOT
ATOM      1  C   UNL     1       1.083   8.633  21.424  0.00  0.00    +0.000 C 
ATOM      2  C   UNL     1       0.106   9.566  21.326  0.00  0.00    +0.000 C 
ATOM      3  C   UNL     1      -0.492  10.035  20.040  0.00  0.00    +0.000 C 
ATOM      4  N   UNL     1      -0.845  11.461  20.096  0.00  0.00    +0.000 NA
ATOM      5  C   UNL     1      -1.878  11.698  21.120  0.00  0.00    +0.000 C 
ATOM      6  C   UNL     1      -1.371  11.308  22.475  0.00  0.00    +0.000 C 
ATOM      7  C   UNL     1      -1.773  11.899  23.619  0.00  0.00    +0.000 C 
ATOM      8  C   UNL     1      -0.414  10.165  22.593  0.00  0.00    +0.000 C 
ATOM      9  O   UNL     1      -0.091   9.716  23.691  0.00  0.00    +0.000 OA
ENDROOT
BRANCH   1  12
ATOM     10  C   UNL     1       2.672   5.821  19.420  0.00  0.00    +0.000 A 
ATOM     11  C   UNL     1       2.031   6.541  20.451  0.00  0.00    +0.000 A 
ATOM     12  C   UNL     1       1.725   7.904  20.305  0.00  0.00    +0.000 A 
ATOM     13  C   UNL     1       2.014   8.514  19.077  0.00  0.00    +0.000 A 
ATOM     14  C   UNL     1       2.682   7.828  18.064  0.00  0.00    +0.000 A 
ATOM     15  C   UNL     1       2.995   6.488  18.234  0.00  0.00    +0.000 A 
BRANCH  15  16
ATOM     16  O   UNL     1       3.611   5.804  17.225  0.00  0.00    +0.000 OA
ATOM     17  H   UNL     1       4.241   6.400  16.786  0.00  0.00    +0.000 HD
ENDBRANCH  15  16
BRANCH  10  18
ATOM     18  C   UNL     1       2.970   4.350  19.595  0.00  0.00    +0.000 C 
BRANCH  18  20
ATOM     19  C   UNL     1       0.815   3.104  19.967  0.00  0.00    +0.000 C 
ATOM     20  C   UNL     1       1.821   3.479  19.167  0.00  0.00    +0.000 C 
ENDBRANCH  18  20
ENDBRANCH  10  18
ENDBRANCH   1  12
BRANCH   7  21
ATOM     21  C   UNL     1      -2.780  12.962  23.626  0.00  0.00    +0.000 A 
ATOM     22  C   UNL     1      -2.375  14.298  23.682  0.00  0.00    +0.000 A 
ATOM     23  C   UNL     1      -3.324  15.311  23.826  0.00  0.00    +0.000 A 
ATOM     24  C   UNL     1      -4.679  14.986  23.906  0.00  0.00    +0.000 A 
ATOM     25  C   UNL     1      -5.111  13.656  23.826  0.00  0.00    +0.000 A 
ATOM     26  C   UNL     1      -4.142  12.645  23.693  0.00  0.00    +0.000 A 
BRANCH  24  27
ATOM     27  O   UNL     1      -5.604  15.978  24.059  0.00  0.00    +0.000 OA
ATOM     28  H   UNL     1      -6.026  16.152  23.204  0.00  0.00    +0.000 HD
ENDBRANCH  24  27
BRANCH  25  29
ATOM     29  C   UNL     1      -6.574  13.278  23.874  0.00  0.00    +0.000 C 
BRANCH  29  30
ATOM     30  C   UNL     1      -7.316  13.184  22.566  0.00  0.00    +0.000 C 
ATOM     31  C   UNL     1      -7.322  12.183  21.676  0.00  0.00    +0.000 C 
ENDBRANCH  29  30
ENDBRANCH  25  29
ENDBRANCH   7  21
BRANCH   4  32
ATOM     32  S   UNL     1      -1.279  12.072  18.548  0.00  0.00    +0.000 S 
ATOM     33  O   UNL     1      -2.575  12.712  18.658  0.00  0.00    +0.000 OA
ATOM     34  O   UNL     1      -0.140  12.788  18.027  0.00  0.00    +0.000 OA
BRANCH  32  35
ATOM     35  C   UNL     1      -1.516  10.558  17.617  0.00  0.00    +0.000 C 
BRANCH  35  36
ATOM     36  C   UNL     1      -2.528  10.795  16.500  0.00  0.00    +0.000 C 
ATOM     37  C   UNL     1      -2.801   9.542  15.690  0.00  0.00    +0.000 C 
ENDBRANCH  35  36
ENDBRANCH  32  35
ENDBRANCH   4  32
TORSDOF 11
ENDMDL
MODEL 7
REMARK VINA RESULT:      -7.3      1.128      2.210
REMARK  Name = 
REMARK  12 active torsions:
REMARK  status: ('A' for Active; 'I' for Inactive)
REMARK    1  A    between atoms: C_2  and  C_3
REMARK    2  A    between atoms: C_3  and  C_4
REMARK    3  A    between atoms: C_6  and  C_7
REMARK    4  A    between atoms: N_10  and  S_11
REMARK    5  A    between atoms: S_11  and  C_14
REMARK    6  A    between atoms: C_14  and  C_15
REMARK    7  A    between atoms: C_15  and  C_16
REMARK    8  A    between atoms: C_19  and  C_20
REMARK    9  A    between atoms: C_23  and  O_24
REMARK   10  A    between atoms: C_25  and  C_26
REMARK   11  A    between atoms: C_26  and  C_27
REMARK   12  A    between atoms: C_34  and  O_35
REMARK                            x       y       z     vdW  Elec       q    Type
REMARK                         _______ _______ _______ _____ _____    ______ ____
ROOT
ATOM      1  C   UNL     1       1.036   8.199  21.468  0.00  0.00    +0.000 C 
ATOM      2  C   UNL     1       0.260   9.297  21.306  0.00  0.00    +0.000 C 
ATOM      3  C   UNL     1      -0.110   9.885  19.984  0.00  0.00    +0.000 C 
ATOM      4  N   UNL     1      -0.201  11.351  20.049  0.00  0.00    +0.000 NA
ATOM      5  C   UNL     1      -1.271  11.761  20.976  0.00  0.00    +0.000 C 
ATOM      6  C   UNL     1      -0.982  11.266  22.361  0.00  0.00    +0.000 C 
ATOM      7  C   UNL     1      -1.383  11.906  23.479  0.00  0.00    +0.000 C 
ATOM      8  C   UNL     1      -0.267   9.965  22.535  0.00  0.00    +0.000 C 
ATOM      9  O   UNL     1      -0.143   9.450  23.645  0.00  0.00    +0.000 OA
ENDROOT
BRANCH   1  12
ATOM     10  C   UNL     1       2.205   5.164  19.501  0.00  0.00    +0.000 A 
ATOM     11  C   UNL     1       1.608   5.978  20.487  0.00  0.00    +0.000 A 
ATOM     12  C   UNL     1       1.645   7.379  20.395  0.00  0.00    +0.000 A 
ATOM     13  C   UNL     1       2.233   7.946  19.256  0.00  0.00    +0.000 A 
ATOM     14  C   UNL     1       2.861   7.158  18.293  0.00  0.00    +0.000 A 
ATOM     15  C   UNL     1       2.833   5.777  18.413  0.00  0.00    +0.000 A 
BRANCH  15  16
ATOM     16  O   UNL     1       3.411   5.003  17.447  0.00  0.00    +0.000 OA
ATOM     17  H   UNL     1       3.849   5.585  16.805  0.00  0.00    +0.000 HD
ENDBRANCH  15  16
BRANCH  10  18
ATOM     18  C   UNL     1       2.131   3.658  19.615  0.00  0.00    +0.000 C 
BRANCH  18  20
ATOM     19  C   UNL     1       1.614   2.586  21.831  0.00  0.00    +0.000 C 
ATOM     20  C   UNL     1       1.212   3.211  20.717  0.00  0.00    +0.000 C 
ENDBRANCH  18  20
ENDBRANCH  10  18
ENDBRANCH   1  12
BRANCH   7  21
ATOM     21  C   UNL     1      -2.176  13.136  23.422  0.00  0.00    +0.000 A 
ATOM     22  C   UNL     1      -1.622  14.337  23.874  0.00  0.00    +0.000 A 
ATOM     23  C   UNL     1      -2.412  15.485  23.951  0.00  0.00    +0.000 A 
ATOM     24  C   UNL     1      -3.753  15.433  23.568  0.00  0.00    +0.000 A 
ATOM     25  C   UNL     1      -4.322  14.247  23.087  0.00  0.00    +0.000 A 
ATOM     26  C   UNL     1      -3.518  13.095  23.026  0.00  0.00    +0.000 A 
BRANCH  24  27
ATOM     27  O   UNL     1      -4.525  16.555  23.656  0.00  0.00    +0.000 OA
ATOM     28  H   UNL     1      -4.169  17.130  24.352  0.00  0.00    +0.000 HD
ENDBRANCH  24  27
BRANCH  25  29
ATOM     29  C   UNL     1      -5.762  14.170  22.632  0.00  0.00    +0.000 C 
BRANCH  29  30
ATOM     30  C   UNL     1      -6.800  13.788  23.655  0.00  0.00    +0.000 C 
ATOM     31  C   UNL     1      -7.250  12.568  23.977  0.00  0.00    +0.000 C 
ENDBRANCH  29  30
ENDBRANCH  25  29
ENDBRANCH   7  21
BRANCH   4  32
ATOM     32  S   UNL     1      -0.359  12.051  18.487  0.00  0.00    +0.000 S 
ATOM     33  O   UNL     1      -1.447  13.007  18.524  0.00  0.00    +0.000 OA
ATOM     34  O   UNL     1       0.959  12.444  18.050  0.00  0.00    +0.000 OA
BRANCH  32  35
ATOM     35  C   UNL     1      -0.922  10.650  17.520  0.00  0.00    +0.000 C 
BRANCH  35  36
ATOM     36  C   UNL     1      -2.387  10.844  17.139  0.00  0.00    +0.000 C 
ATOM     37  C   UNL     1      -3.267   9.709  17.626  0.00  0.00    +0.000 C 
ENDBRANCH  35  36
ENDBRANCH  32  35
ENDBRANCH   4  32
TORSDOF 11
ENDMDL
MODEL 8
REMARK VINA RESULT:      -7.3      1.153      2.068
REMARK  Name = 
REMARK  12 active torsions:
REMARK  status: ('A' for Active; 'I' for Inactive)
REMARK    1  A    between atoms: C_2  and  C_3
REMARK    2  A    between atoms: C_3  and  C_4
REMARK    3  A    between atoms: C_6  and  C_7
REMARK    4  A    between atoms: N_10  and  S_11
REMARK    5  A    between atoms: S_11  and  C_14
REMARK    6  A    between atoms: C_14  and  C_15
REMARK    7  A    between atoms: C_15  and  C_16
REMARK    8  A    between atoms: C_19  and  C_20
REMARK    9  A    between atoms: C_23  and  O_24
REMARK   10  A    between atoms: C_25  and  C_26
REMARK   11  A    between atoms: C_26  and  C_27
REMARK   12  A    between atoms: C_34  and  O_35
REMARK                            x       y       z     vdW  Elec       q    Type
REMARK                         _______ _______ _______ _____ _____    ______ ____
ROOT
ATOM      1  C   UNL     1       1.156   8.614  21.413  0.00  0.00    +0.000 C 
ATOM      2  C   UNL     1       0.164   9.521  21.246  0.00  0.00    +0.000 C 
ATOM      3  C   UNL     1      -0.562   9.755  19.962  0.00  0.00    +0.000 C 
ATOM      4  N   UNL     1      -0.923  11.171  19.795  0.00  0.00    +0.000 NA
ATOM      5  C   UNL     1      -1.852  11.596  20.857  0.00  0.00    +0.000 C 
ATOM      6  C   UNL     1      -1.210  11.452  22.203  0.00  0.00    +0.000 C 
ATOM      7  C   UNL     1      -1.504  12.243  23.257  0.00  0.00    +0.000 C 
ATOM      8  C   UNL     1      -0.235  10.342  22.429  0.00  0.00    +0.000 C 
ATOM      9  O   UNL     1       0.200  10.095  23.553  0.00  0.00    +0.000 OA
ENDROOT
BRANCH   1  12
ATOM     10  C   UNL     1       2.340   5.416  19.734  0.00  0.00    +0.000 A 
ATOM     11  C   UNL     1       1.803   6.321  20.675  0.00  0.00    +0.000 A 
ATOM     12  C   UNL     1       1.693   7.691  20.386  0.00  0.00    +0.000 A 
ATOM     13  C   UNL     1       2.068   8.124  19.107  0.00  0.00    +0.000 A 
ATOM     14  C   UNL     1       2.636   7.251  18.181  0.00  0.00    +0.000 A 
ATOM     15  C   UNL     1       2.758   5.905  18.493  0.00  0.00    +0.000 A 
BRANCH  15  16
ATOM     16  O   UNL     1       3.274   5.041  17.569  0.00  0.00    +0.000 OA
ATOM     17  H   UNL     1       4.188   4.829  17.821  0.00  0.00    +0.000 HD
ENDBRANCH  15  16
BRANCH  10  18
ATOM     18  C   UNL     1       2.427   3.943  20.063  0.00  0.00    +0.000 C 
BRANCH  18  20
ATOM     19  C   UNL     1       0.730   2.545  18.840  0.00  0.00    +0.000 C 
ATOM     20  C   UNL     1       1.103   3.245  19.919  0.00  0.00    +0.000 C 
ENDBRANCH  18  20
ENDBRANCH  10  18
ENDBRANCH   1  12
BRANCH   7  21
ATOM     21  C   UNL     1      -2.517  13.297  23.171  0.00  0.00    +0.000 A 
ATOM     22  C   UNL     1      -2.827  14.051  24.306  0.00  0.00    +0.000 A 
ATOM     23  C   UNL     1      -3.883  14.963  24.272  0.00  0.00    +0.000 A 
ATOM     24  C   UNL     1      -4.622  15.125  23.100  0.00  0.00    +0.000 A 
ATOM     25  C   UNL     1      -4.313  14.399  21.943  0.00  0.00    +0.000 A 
ATOM     26  C   UNL     1      -3.255  13.475  21.995  0.00  0.00    +0.000 A 
BRANCH  24  27
ATOM     27  O   UNL     1      -5.663  16.009  23.074  0.00  0.00    +0.000 OA
ATOM     28  H   UNL     1      -6.371  15.648  22.519  0.00  0.00    +0.000 HD
ENDBRANCH  24  27
BRANCH  25  29
ATOM     29  C   UNL     1      -5.075  14.580  20.649  0.00  0.00    +0.000 C 
BRANCH  29  30
ATOM     30  C   UNL     1      -6.166  13.591  20.335  0.00  0.00    +0.000 C 
ATOM     31  C   UNL     1      -6.524  12.493  21.016  0.00  0.00    +0.000 C 
ENDBRANCH  29  30
ENDBRANCH  25  29
ENDBRANCH   7  21
BRANCH   4  32
ATOM     32  S   UNL     1      -1.514  11.497  18.214  0.00  0.00    +0.000 S 
ATOM     33  O   UNL     1      -0.960  12.760  17.772  0.00  0.00    +0.000 OA
ATOM     34  O   UNL     1      -1.344  10.297  17.429  0.00  0.00    +0.000 OA
BRANCH  32  35
ATOM     35  C   UNL     1      -3.258  11.768  18.530  0.00  0.00    +0.000 C 
BRANCH  35  36
ATOM     36  C   UNL     1      -4.085  11.173  17.393  0.00  0.00    +0.000 C 
ATOM     37  C   UNL     1      -5.304  12.012  17.063  0.00  0.00    +0.000 C 
ENDBRANCH  35  36
ENDBRANCH  32  35
ENDBRANCH   4  32
TORSDOF 11
ENDMDL
MODEL 9
REMARK VINA RESULT:      -7.2      2.228      2.998
REMARK  Name = 
REMARK  12 active torsions:
REMARK  status: ('A' for Active; 'I' for Inactive)
REMARK    1  A    between atoms: C_2  and  C_3
REMARK    2  A    between atoms: C_3  and  C_4
REMARK    3  A    between atoms: C_6  and  C_7
REMARK    4  A    between atoms: N_10  and  S_11
REMARK    5  A    between atoms: S_11  and  C_14
REMARK    6  A    between atoms: C_14  and  C_15
REMARK    7  A    between atoms: C_15  and  C_16
REMARK    8  A    between atoms: C_19  and  C_20
REMARK    9  A    between atoms: C_23  and  O_24
REMARK   10  A    between atoms: C_25  and  C_26
REMARK   11  A    between atoms: C_26  and  C_27
REMARK   12  A    between atoms: C_34  and  O_35
REMARK                            x       y       z     vdW  Elec       q    Type
REMARK                         _______ _______ _______ _____ _____    ______ ____
ROOT
ATOM      1  C   UNL     1       1.219   7.688  20.763  0.00  0.00    +0.000 C 
ATOM      2  C   UNL     1       0.703   8.940  20.749  0.00  0.00    +0.000 C 
ATOM      3  C   UNL     1       1.000   9.967  19.707  0.00  0.00    +0.000 C 
ATOM      4  N   UNL     1       1.035  11.322  20.276  0.00  0.00    +0.000 NA
ATOM      5  C   UNL     1      -0.284  11.686  20.824  0.00  0.00    +0.000 C 
ATOM      6  C   UNL     1      -0.672  10.746  21.924  0.00  0.00    +0.000 C 
ATOM      7  C   UNL     1      -1.451  11.101  22.967  0.00  0.00    +0.000 C 
ATOM      8  C   UNL     1      -0.235   9.319  21.850  0.00  0.00    +0.000 C 
ATOM      9  O   UNL     1      -0.654   8.482  22.648  0.00  0.00    +0.000 OA
ENDROOT
BRANCH   1  12
ATOM     10  C   UNL     1       3.559   5.227  19.057  0.00  0.00    +0.000 A 
ATOM     11  C   UNL     1       2.648   5.806  19.966  0.00  0.00    +0.000 A 
ATOM     12  C   UNL     1       2.147   7.102  19.768  0.00  0.00    +0.000 A 
ATOM     13  C   UNL     1       2.525   7.780  18.601  0.00  0.00    +0.000 A 
ATOM     14  C   UNL     1       3.453   7.239  17.713  0.00  0.00    +0.000 A 
ATOM     15  C   UNL     1       3.954   5.966  17.937  0.00  0.00    +0.000 A 
BRANCH  15  16
ATOM     16  O   UNL     1       4.830   5.417  17.044  0.00  0.00    +0.000 OA
ATOM     17  H   UNL     1       4.333   4.853  16.429  0.00  0.00    +0.000 HD
ENDBRANCH  15  16
BRANCH  10  18
ATOM     18  C   UNL     1       4.066   3.821  19.283  0.00  0.00    +0.000 C 
BRANCH  18  20
ATOM     19  C   UNL     1       2.317   2.480  18.069  0.00  0.00    +0.000 C 
ATOM     20  C   UNL     1       2.970   2.796  19.195  0.00  0.00    +0.000 C 
ENDBRANCH  18  20
ENDBRANCH  10  18
ENDBRANCH   1  12
BRANCH   7  21
ATOM     21  C   UNL     1      -2.015  12.447  23.086  0.00  0.00    +0.000 A 
ATOM     22  C   UNL     1      -1.200  13.506  23.497  0.00  0.00    +0.000 A 
ATOM     23  C   UNL     1      -1.756  14.761  23.744  0.00  0.00    +0.000 A 
ATOM     24  C   UNL     1      -3.126  14.960  23.572  0.00  0.00    +0.000 A 
ATOM     25  C   UNL     1      -3.959  13.922  23.135  0.00  0.00    +0.000 A 
ATOM     26  C   UNL     1      -3.387  12.659  22.902  0.00  0.00    +0.000 A 
BRANCH  24  27
ATOM     27  O   UNL     1      -3.669  16.187  23.826  0.00  0.00    +0.000 OA
ATOM     28  H   UNL     1      -2.953  16.828  23.956  0.00  0.00    +0.000 HD
ENDBRANCH  24  27
BRANCH  25  29
ATOM     29  C   UNL     1      -5.440  14.118  22.906  0.00  0.00    +0.000 C 
BRANCH  29  30
ATOM     30  C   UNL     1      -6.386  13.151  23.570  0.00  0.00    +0.000 C 
ATOM     31  C   UNL     1      -7.508  13.413  24.254  0.00  0.00    +0.000 C 
ENDBRANCH  29  30
ENDBRANCH  25  29
ENDBRANCH   7  21
BRANCH   4  32
ATOM     32  S   UNL     1       1.637  12.473  19.151  0.00  0.00    +0.000 S 
ATOM     33  O   UNL     1       2.361  13.492  19.883  0.00  0.00    +0.000 OA
ATOM     34  O   UNL     1       2.266  11.744  18.075  0.00  0.00    +0.000 OA
BRANCH  32  35
ATOM     35  C   UNL     1       0.121  13.226  18.560  0.00  0.00    +0.000 C 
BRANCH  35  36
ATOM     36  C   UNL     1       0.136  14.721  18.866  0.00  0.00    +0.000 C 
ATOM     37  C   UNL     1      -0.903  15.111  19.899  0.00  0.00    +0.000 C 
ENDBRANCH  35  36
ENDBRANCH  32  35
ENDBRANCH   4  32
TORSDOF 11
ENDMDL
