MODEL 1
REMARK VINA RESULT:      -8.6      0.000      0.000
REMARK  Name = 
REMARK  6 active torsions:
REMARK  status: ('A' for Active; 'I' for Inactive)
REMARK    1  A    between atoms: C_4  and  C_5
REMARK    2  A    between atoms: C_4  and  C_11
REMARK    3  A    between atoms: N_19  and  C_20
REMARK    4  A    between atoms: C_20  and  N_21
REMARK    5  A    between atoms: N_24  and  C_25
REMARK    6  A    between atoms: C_29  and  C_30
REMARK                            x       y       z     vdW  Elec       q    Type
REMARK                         _______ _______ _______ _____ _____    ______ ____
ROOT
ATOM      1  O   UNL     1      -0.833   9.867  22.570  0.00  0.00    +0.000 OA
ATOM      2  C   UNL     1      -0.890  10.915  21.949  0.00  0.00    +0.000 C 
ATOM      3  C   UNL     1      -1.047  12.272  22.533  0.00  0.00    +0.000 C 
ATOM      4  C   UNL     1      -2.172  12.860  21.639  0.00  0.00    +0.000 C 
ATOM      5  C   UNL     1      -1.958  11.928  20.373  0.00  0.00    +0.000 C 
ATOM      6  O   UNL     1      -2.678  11.890  19.382  0.00  0.00    +0.000 OA
ATOM      7  N   UNL     1      -0.897  11.085  20.608  0.00  0.00    +0.000 N 
ENDROOT
BRANCH   4   8
ATOM      8  C   UNL     1      -3.491  12.678  22.484  0.00  0.00    +0.000 A 
ATOM      9  C   UNL     1      -4.730  12.905  21.852  0.00  0.00    +0.000 A 
ATOM     10  C   UNL     1      -5.904  13.019  22.598  0.00  0.00    +0.000 A 
ATOM     11  C   UNL     1      -5.874  12.889  23.977  0.00  0.00    +0.000 A 
ATOM     12  C   UNL     1      -4.664  12.571  24.591  0.00  0.00    +0.000 A 
ATOM     13  C   UNL     1      -3.476  12.473  23.861  0.00  0.00    +0.000 A 
ENDBRANCH   4   8
BRANCH   4  14
ATOM     14  C   UNL     1      -1.932  14.342  21.264  0.00  0.00    +0.000 A 
ATOM     15  C   UNL     1      -2.518  15.383  22.011  0.00  0.00    +0.000 A 
ATOM     16  C   UNL     1      -2.360  16.722  21.641  0.00  0.00    +0.000 A 
ATOM     17  C   UNL     1      -1.584  17.057  20.535  0.00  0.00    +0.000 A 
ATOM     18  C   UNL     1      -0.950  16.053  19.813  0.00  0.00    +0.000 A 
ATOM     19  C   UNL     1      -1.117  14.713  20.177  0.00  0.00    +0.000 A 
ENDBRANCH   4  14
BRANCH   7  20
ATOM     20  C   UNL     1      -0.360  10.064  19.716  0.00  0.00    +0.000 C 
BRANCH  20  21
ATOM     21  N   UNL     1       1.113  10.115  19.703  0.00  0.00    +0.000 NA
ATOM     22  C   UNL     1       1.809   9.205  20.624  0.00  0.00    +0.000 C 
ATOM     23  C   UNL     1       1.837   7.708  20.256  0.00  0.00    +0.000 C 
ATOM     24  N   UNL     1       2.182   7.427  18.856  0.00  0.00    +0.000 N 
ATOM     25  C   UNL     1       1.996   8.472  17.835  0.00  0.00    +0.000 C 
ATOM     26  C   UNL     1       1.710   9.909  18.367  0.00  0.00    +0.000 C 
BRANCH  24  27
ATOM     27  C   UNL     1       2.513   6.118  18.482  0.00  0.00    +0.000 A 
ATOM     28  C   UNL     1       3.564   5.826  17.596  0.00  0.00    +0.000 A 
ATOM     29  C   UNL     1       3.937   4.507  17.281  0.00  0.00    +0.000 A 
ATOM     30  C   UNL     1       3.237   3.432  17.812  0.00  0.00    +0.000 A 
ATOM     31  C   UNL     1       2.158   3.671  18.666  0.00  0.00    +0.000 A 
ATOM     32  C   UNL     1       1.829   5.003  19.001  0.00  0.00    +0.000 A 
BRANCH  31  33
ATOM     33  C   UNL     1       1.317   2.548  19.217  0.00  0.00    +0.000 C 
ATOM     34  F   UNL     1       0.220   2.258  18.463  0.00  0.00    +0.000 F 
ATOM     35  F   UNL     1       2.009   1.381  19.334  0.00  0.00    +0.000 F 
ATOM     36  F   UNL     1       0.846   2.825  20.466  0.00  0.00    +0.000 F 
ENDBRANCH  31  33
ENDBRANCH  24  27
ENDBRANCH  20  21
ENDBRANCH   7  20
TORSDOF 6
ENDMDL
MODEL 2
REMARK VINA RESULT:      -8.5      0.570      1.403
REMARK  Name = 
REMARK  6 active torsions:
REMARK  status: ('A' for Active; 'I' for Inactive)
REMARK    1  A    between atoms: C_4  and  C_5
REMARK    2  A    between atoms: C_4  and  C_11
REMARK    3  A    between atoms: N_19  and  C_20
REMARK    4  A    between atoms: C_20  and  N_21
REMARK    5  A    between atoms: N_24  and  C_25
REMARK    6  A    between atoms: C_29  and  C_30
REMARK                            x       y       z     vdW  Elec       q    Type
REMARK                         _______ _______ _______ _____ _____    ______ ____
ROOT
ATOM      1  O   UNL     1      -1.097  10.468  22.885  0.00  0.00    +0.000 OA
ATOM      2  C   UNL     1      -1.063  11.354  22.048  0.00  0.00    +0.000 C 
ATOM      3  C   UNL     1      -1.198  12.811  22.306  0.00  0.00    +0.000 C 
ATOM      4  C   UNL     1      -2.230  13.218  21.221  0.00  0.00    +0.000 C 
ATOM      5  C   UNL     1      -1.972  12.022  20.210  0.00  0.00    +0.000 C 
ATOM      6  O   UNL     1      -2.622  11.786  19.198  0.00  0.00    +0.000 OA
ATOM      7  N   UNL     1      -0.969  11.222  20.706  0.00  0.00    +0.000 N 
ENDROOT
BRANCH   4   8
ATOM      8  C   UNL     1      -3.612  13.267  21.979  0.00  0.00    +0.000 A 
ATOM      9  C   UNL     1      -3.604  13.382  23.383  0.00  0.00    +0.000 A 
ATOM     10  C   UNL     1      -4.766  13.167  24.125  0.00  0.00    +0.000 A 
ATOM     11  C   UNL     1      -5.957  12.855  23.490  0.00  0.00    +0.000 A 
ATOM     12  C   UNL     1      -5.984  12.835  22.096  0.00  0.00    +0.000 A 
ATOM     13  C   UNL     1      -4.826  13.029  21.339  0.00  0.00    +0.000 A 
ENDBRANCH   4   8
BRANCH   4  14
ATOM     14  C   UNL     1      -1.898  14.572  20.550  0.00  0.00    +0.000 A 
ATOM     15  C   UNL     1      -0.800  14.699  19.676  0.00  0.00    +0.000 A 
ATOM     16  C   UNL     1      -0.454  15.933  19.116  0.00  0.00    +0.000 A 
ATOM     17  C   UNL     1      -1.216  17.064  19.388  0.00  0.00    +0.000 A 
ATOM     18  C   UNL     1      -2.336  16.956  20.204  0.00  0.00    +0.000 A 
ATOM     19  C   UNL     1      -2.676  15.725  20.771  0.00  0.00    +0.000 A 
ENDBRANCH   4  14
BRANCH   7  20
ATOM     20  C   UNL     1      -0.419  10.013  20.104  0.00  0.00    +0.000 C 
BRANCH  20  21
ATOM     21  N   UNL     1       1.054  10.056  20.119  0.00  0.00    +0.000 NA
ATOM     22  C   UNL     1       1.729   9.080  20.988  0.00  0.00    +0.000 C 
ATOM     23  C   UNL     1       1.755   7.612  20.520  0.00  0.00    +0.000 C 
ATOM     24  N   UNL     1       2.123   7.424  19.109  0.00  0.00    +0.000 N 
ATOM     25  C   UNL     1       1.960   8.537  18.158  0.00  0.00    +0.000 C 
ATOM     26  C   UNL     1       1.673   9.937  18.782  0.00  0.00    +0.000 C 
BRANCH  24  27
ATOM     27  C   UNL     1       2.453   6.141  18.653  0.00  0.00    +0.000 A 
ATOM     28  C   UNL     1       3.455   5.913  17.695  0.00  0.00    +0.000 A 
ATOM     29  C   UNL     1       3.831   4.618  17.294  0.00  0.00    +0.000 A 
ATOM     30  C   UNL     1       3.182   3.506  17.811  0.00  0.00    +0.000 A 
ATOM     31  C   UNL     1       2.151   3.682  18.736  0.00  0.00    +0.000 A 
ATOM     32  C   UNL     1       1.820   4.989  19.155  0.00  0.00    +0.000 A 
BRANCH  31  33
ATOM     33  C   UNL     1       1.362   2.518  19.279  0.00  0.00    +0.000 C 
ATOM     34  F   UNL     1       1.001   2.656  20.586  0.00  0.00    +0.000 F 
ATOM     35  F   UNL     1       0.206   2.300  18.593  0.00  0.00    +0.000 F 
ATOM     36  F   UNL     1       2.059   1.348  19.209  0.00  0.00    +0.000 F 
ENDBRANCH  31  33
ENDBRANCH  24  27
ENDBRANCH  20  21
ENDBRANCH   7  20
TORSDOF 6
ENDMDL
MODEL 3
REMARK VINA RESULT:      -8.5      0.963      3.391
REMARK  Name = 
REMARK  6 active torsions:
REMARK  status: ('A' for Active; 'I' for Inactive)
REMARK    1  A    between atoms: C_4  and  C_5
REMARK    2  A    between atoms: C_4  and  C_11
REMARK    3  A    between atoms: N_19  and  C_20
REMARK    4  A    between atoms: C_20  and  N_21
REMARK    5  A    between atoms: N_24  and  C_25
REMARK    6  A    between atoms: C_29  and  C_30
REMARK                            x       y       z     vdW  Elec       q    Type
REMARK                         _______ _______ _______ _____ _____    ______ ____
ROOT
ATOM      1  O   UNL     1      -0.743  12.480  18.397  0.00  0.00    +0.000 OA
ATOM      2  C   UNL     1      -1.410  12.205  19.380  0.00  0.00    +0.000 C 
ATOM      3  C   UNL     1      -2.498  13.034  19.961  0.00  0.00    +0.000 C 
ATOM      4  C   UNL     1      -2.122  13.020  21.467  0.00  0.00    +0.000 C 
ATOM      5  C   UNL     1      -1.265  11.684  21.468  0.00  0.00    +0.000 C 
ATOM      6  O   UNL     1      -0.616  11.251  22.413  0.00  0.00    +0.000 OA
ATOM      7  N   UNL     1      -1.273  11.143  20.204  0.00  0.00    +0.000 N 
ENDROOT
BRANCH   4   8
ATOM      8  C   UNL     1      -1.372  14.386  21.705  0.00  0.00    +0.000 A 
ATOM      9  C   UNL     1      -1.878  15.547  21.088  0.00  0.00    +0.000 A 
ATOM     10  C   UNL     1      -1.124  16.720  21.043  0.00  0.00    +0.000 A 
ATOM     11  C   UNL     1       0.133  16.770  21.624  0.00  0.00    +0.000 A 
ATOM     12  C   UNL     1       0.592  15.650  22.316  0.00  0.00    +0.000 A 
ATOM     13  C   UNL     1      -0.143  14.462  22.355  0.00  0.00    +0.000 A 
ENDBRANCH   4   8
BRANCH   4  14
ATOM     14  C   UNL     1      -3.352  12.872  22.395  0.00  0.00    +0.000 A 
ATOM     15  C   UNL     1      -4.656  13.090  21.910  0.00  0.00    +0.000 A 
ATOM     16  C   UNL     1      -5.767  13.022  22.757  0.00  0.00    +0.000 A 
ATOM     17  C   UNL     1      -5.606  12.702  24.101  0.00  0.00    +0.000 A 
ATOM     18  C   UNL     1      -4.335  12.429  24.593  0.00  0.00    +0.000 A 
ATOM     19  C   UNL     1      -3.224  12.506  23.749  0.00  0.00    +0.000 A 
ENDBRANCH   4  14
BRANCH   7  20
ATOM     20  C   UNL     1      -0.610   9.923  19.757  0.00  0.00    +0.000 C 
BRANCH  20  21
ATOM     21  N   UNL     1       0.853  10.062  19.867  0.00  0.00    +0.000 NA
ATOM     22  C   UNL     1       1.532   9.135  20.784  0.00  0.00    +0.000 C 
ATOM     23  C   UNL     1       1.684   7.671  20.328  0.00  0.00    +0.000 C 
ATOM     24  N   UNL     1       2.155   7.504  18.946  0.00  0.00    +0.000 N 
ATOM     25  C   UNL     1       1.982   8.602  17.980  0.00  0.00    +0.000 C 
ATOM     26  C   UNL     1       1.564   9.981  18.574  0.00  0.00    +0.000 C 
BRANCH  24  27
ATOM     27  C   UNL     1       2.597   6.245  18.521  0.00  0.00    +0.000 A 
ATOM     28  C   UNL     1       3.669   6.081  17.627  0.00  0.00    +0.000 A 
ATOM     29  C   UNL     1       4.155   4.814  17.260  0.00  0.00    +0.000 A 
ATOM     30  C   UNL     1       3.551   3.661  17.745  0.00  0.00    +0.000 A 
ATOM     31  C   UNL     1       2.456   3.771  18.604  0.00  0.00    +0.000 A 
ATOM     32  C   UNL     1       2.013   5.055  18.993  0.00  0.00    +0.000 A 
BRANCH  31  33
ATOM     33  C   UNL     1       1.715   2.558  19.107  0.00  0.00    +0.000 C 
ATOM     34  F   UNL     1       1.477   2.574  20.449  0.00  0.00    +0.000 F 
ATOM     35  F   UNL     1       0.500   2.401  18.513  0.00  0.00    +0.000 F 
ATOM     36  F   UNL     1       2.398   1.403  18.866  0.00  0.00    +0.000 F 
ENDBRANCH  31  33
ENDBRANCH  24  27
ENDBRANCH  20  21
ENDBRANCH   7  20
TORSDOF 6
ENDMDL
MODEL 4
REMARK VINA RESULT:      -8.4      0.986      3.393
REMARK  Name = 
REMARK  6 active torsions:
REMARK  status: ('A' for Active; 'I' for Inactive)
REMARK    1  A    between atoms: C_4  and  C_5
REMARK    2  A    between atoms: C_4  and  C_11
REMARK    3  A    between atoms: N_19  and  C_20
REMARK    4  A    between atoms: C_20  and  N_21
REMARK    5  A    between atoms: N_24  and  C_25
REMARK    6  A    between atoms: C_29  and  C_30
REMARK                            x       y       z     vdW  Elec       q    Type
REMARK                         _______ _______ _______ _____ _____    ______ ____
ROOT
ATOM      1  O   UNL     1      -0.835  12.531  18.339  0.00  0.00    +0.000 OA
ATOM      2  C   UNL     1      -1.479  12.244  19.335  0.00  0.00    +0.000 C 
ATOM      3  C   UNL     1      -2.570  13.053  19.937  0.00  0.00    +0.000 C 
ATOM      4  C   UNL     1      -2.165  13.044  21.436  0.00  0.00    +0.000 C 
ATOM      5  C   UNL     1      -1.286  11.723  21.419  0.00  0.00    +0.000 C 
ATOM      6  O   UNL     1      -0.611  11.299  22.351  0.00  0.00    +0.000 OA
ATOM      7  N   UNL     1      -1.308  11.183  20.155  0.00  0.00    +0.000 N 
ENDROOT
BRANCH   4   8
ATOM      8  C   UNL     1      -1.434  14.423  21.662  0.00  0.00    +0.000 A 
ATOM      9  C   UNL     1      -0.118  14.411  22.164  0.00  0.00    +0.000 A 
ATOM     10  C   UNL     1       0.481  15.582  22.630  0.00  0.00    +0.000 A 
ATOM     11  C   UNL     1      -0.205  16.786  22.589  0.00  0.00    +0.000 A 
ATOM     12  C   UNL     1      -1.471  16.812  22.006  0.00  0.00    +0.000 A 
ATOM     13  C   UNL     1      -2.092  15.646  21.552  0.00  0.00    +0.000 A 
ENDBRANCH   4   8
BRANCH   4  14
ATOM     14  C   UNL     1      -3.374  12.874  22.387  0.00  0.00    +0.000 A 
ATOM     15  C   UNL     1      -4.695  12.958  21.903  0.00  0.00    +0.000 A 
ATOM     16  C   UNL     1      -5.792  12.870  22.765  0.00  0.00    +0.000 A 
ATOM     17  C   UNL     1      -5.599  12.663  24.127  0.00  0.00    +0.000 A 
ATOM     18  C   UNL     1      -4.308  12.523  24.623  0.00  0.00    +0.000 A 
ATOM     19  C   UNL     1      -3.210  12.620  23.762  0.00  0.00    +0.000 A 
ENDBRANCH   4  14
BRANCH   7  20
ATOM     20  C   UNL     1      -0.633   9.975  19.693  0.00  0.00    +0.000 C 
BRANCH  20  21
ATOM     21  N   UNL     1       0.829  10.129  19.803  0.00  0.00    +0.000 NA
ATOM     22  C   UNL     1       1.513   9.227  20.742  0.00  0.00    +0.000 C 
ATOM     23  C   UNL     1       1.678   7.755  20.318  0.00  0.00    +0.000 C 
ATOM     24  N   UNL     1       2.153   7.562  18.941  0.00  0.00    +0.000 N 
ATOM     25  C   UNL     1       1.974   8.637  17.950  0.00  0.00    +0.000 C 
ATOM     26  C   UNL     1       1.543  10.026  18.514  0.00  0.00    +0.000 C 
BRANCH  24  27
ATOM     27  C   UNL     1       2.606   6.297  18.543  0.00  0.00    +0.000 A 
ATOM     28  C   UNL     1       3.716   6.122  17.698  0.00  0.00    +0.000 A 
ATOM     29  C   UNL     1       4.209   4.848  17.362  0.00  0.00    +0.000 A 
ATOM     30  C   UNL     1       3.578   3.703  17.827  0.00  0.00    +0.000 A 
ATOM     31  C   UNL     1       2.447   3.825  18.636  0.00  0.00    +0.000 A 
ATOM     32  C   UNL     1       1.995   5.113  18.996  0.00  0.00    +0.000 A 
BRANCH  31  33
ATOM     33  C   UNL     1       1.677   2.620  19.114  0.00  0.00    +0.000 C 
ATOM     34  F   UNL     1       2.336   1.440  18.943  0.00  0.00    +0.000 F 
ATOM     35  F   UNL     1       1.367   2.686  20.439  0.00  0.00    +0.000 F 
ATOM     36  F   UNL     1       0.488   2.478  18.462  0.00  0.00    +0.000 F 
ENDBRANCH  31  33
ENDBRANCH  24  27
ENDBRANCH  20  21
ENDBRANCH   7  20
TORSDOF 6
ENDMDL
MODEL 5
REMARK VINA RESULT:      -8.4      0.970      3.375
REMARK  Name = 
REMARK  6 active torsions:
REMARK  status: ('A' for Active; 'I' for Inactive)
REMARK    1  A    between atoms: C_4  and  C_5
REMARK    2  A    between atoms: C_4  and  C_11
REMARK    3  A    between atoms: N_19  and  C_20
REMARK    4  A    between atoms: C_20  and  N_21
REMARK    5  A    between atoms: N_24  and  C_25
REMARK    6  A    between atoms: C_29  and  C_30
REMARK                            x       y       z     vdW  Elec       q    Type
REMARK                         _______ _______ _______ _____ _____    ______ ____
ROOT
ATOM      1  O   UNL     1      -0.791  12.460  18.393  0.00  0.00    +0.000 OA
ATOM      2  C   UNL     1      -1.445  12.203  19.389  0.00  0.00    +0.000 C 
ATOM      3  C   UNL     1      -2.527  13.042  19.967  0.00  0.00    +0.000 C 
ATOM      4  C   UNL     1      -2.134  13.056  21.469  0.00  0.00    +0.000 C 
ATOM      5  C   UNL     1      -1.276  11.720  21.484  0.00  0.00    +0.000 C 
ATOM      6  O   UNL     1      -0.616  11.304  22.429  0.00  0.00    +0.000 OA
ATOM      7  N   UNL     1      -1.299  11.156  20.231  0.00  0.00    +0.000 N 
ENDROOT
BRANCH   4   8
ATOM      8  C   UNL     1      -1.381  14.426  21.674  0.00  0.00    +0.000 A 
ATOM      9  C   UNL     1      -1.779  15.534  20.899  0.00  0.00    +0.000 A 
ATOM     10  C   UNL     1      -0.993  16.686  20.841  0.00  0.00    +0.000 A 
ATOM     11  C   UNL     1       0.186  16.768  21.564  0.00  0.00    +0.000 A 
ATOM     12  C   UNL     1       0.530  15.709  22.403  0.00  0.00    +0.000 A 
ATOM     13  C   UNL     1      -0.236  14.542  22.458  0.00  0.00    +0.000 A 
ENDBRANCH   4   8
BRANCH   4  14
ATOM     14  C   UNL     1      -3.352  12.925  22.413  0.00  0.00    +0.000 A 
ATOM     15  C   UNL     1      -3.179  12.740  23.799  0.00  0.00    +0.000 A 
ATOM     16  C   UNL     1      -4.273  12.557  24.651  0.00  0.00    +0.000 A 
ATOM     17  C   UNL     1      -5.568  12.587  24.145  0.00  0.00    +0.000 A 
ATOM     18  C   UNL     1      -5.769  12.821  22.790  0.00  0.00    +0.000 A 
ATOM     19  C   UNL     1      -4.675  12.995  21.937  0.00  0.00    +0.000 A 
ENDBRANCH   4  14
BRANCH   7  20
ATOM     20  C   UNL     1      -0.641   9.928  19.798  0.00  0.00    +0.000 C 
BRANCH  20  21
ATOM     21  N   UNL     1       0.821  10.050  19.941  0.00  0.00    +0.000 NA
ATOM     22  C   UNL     1       1.470   9.102  20.859  0.00  0.00    +0.000 C 
ATOM     23  C   UNL     1       1.616   7.643  20.385  0.00  0.00    +0.000 C 
ATOM     24  N   UNL     1       2.115   7.491  19.011  0.00  0.00    +0.000 N 
ATOM     25  C   UNL     1       1.974   8.604  18.057  0.00  0.00    +0.000 C 
ATOM     26  C   UNL     1       1.558   9.979  18.663  0.00  0.00    +0.000 C 
BRANCH  24  27
ATOM     27  C   UNL     1       2.552   6.233  18.576  0.00  0.00    +0.000 A 
ATOM     28  C   UNL     1       3.623   6.072  17.680  0.00  0.00    +0.000 A 
ATOM     29  C   UNL     1       4.104   4.805  17.304  0.00  0.00    +0.000 A 
ATOM     30  C   UNL     1       3.496   3.652  17.782  0.00  0.00    +0.000 A 
ATOM     31  C   UNL     1       2.402   3.759  18.643  0.00  0.00    +0.000 A 
ATOM     32  C   UNL     1       1.964   5.042  19.040  0.00  0.00    +0.000 A 
BRANCH  31  33
ATOM     33  C   UNL     1       1.658   2.546  19.139  0.00  0.00    +0.000 C 
ATOM     34  F   UNL     1       2.358   1.383  19.022  0.00  0.00    +0.000 F 
ATOM     35  F   UNL     1       1.310   2.643  20.452  0.00  0.00    +0.000 F 
ATOM     36  F   UNL     1       0.492   2.346  18.461  0.00  0.00    +0.000 F 
ENDBRANCH  31  33
ENDBRANCH  24  27
ENDBRANCH  20  21
ENDBRANCH   7  20
TORSDOF 6
ENDMDL
MODEL 6
REMARK VINA RESULT:      -8.3      0.314      1.091
REMARK  Name = 
REMARK  6 active torsions:
REMARK  status: ('A' for Active; 'I' for Inactive)
REMARK    1  A    between atoms: C_4  and  C_5
REMARK    2  A    between atoms: C_4  and  C_11
REMARK    3  A    between atoms: N_19  and  C_20
REMARK    4  A    between atoms: C_20  and  N_21
REMARK    5  A    between atoms: N_24  and  C_25
REMARK    6  A    between atoms: C_29  and  C_30
REMARK                            x       y       z     vdW  Elec       q    Type
REMARK                         _______ _______ _______ _____ _____    ______ ____
ROOT
ATOM      1  O   UNL     1      -0.866   9.965  22.606  0.00  0.00    +0.000 OA
ATOM      2  C   UNL     1      -0.959  11.019  22.000  0.00  0.00    +0.000 C 
ATOM      3  C   UNL     1      -1.154  12.363  22.603  0.00  0.00    +0.000 C 
ATOM      4  C   UNL     1      -2.303  12.927  21.724  0.00  0.00    +0.000 C 
ATOM      5  C   UNL     1      -2.068  12.018  20.444  0.00  0.00    +0.000 C 
ATOM      6  O   UNL     1      -2.793  11.971  19.456  0.00  0.00    +0.000 OA
ATOM      7  N   UNL     1      -0.980  11.206  20.662  0.00  0.00    +0.000 N 
ENDROOT
BRANCH   4   8
ATOM      8  C   UNL     1      -3.610  12.693  22.574  0.00  0.00    +0.000 A 
ATOM      9  C   UNL     1      -4.859  12.899  21.955  0.00  0.00    +0.000 A 
ATOM     10  C   UNL     1      -6.030  12.967  22.713  0.00  0.00    +0.000 A 
ATOM     11  C   UNL     1      -5.986  12.811  24.089  0.00  0.00    +0.000 A 
ATOM     12  C   UNL     1      -4.763  12.513  24.687  0.00  0.00    +0.000 A 
ATOM     13  C   UNL     1      -3.579  12.461  23.947  0.00  0.00    +0.000 A 
ENDBRANCH   4   8
BRANCH   4  14
ATOM     14  C   UNL     1      -2.111  14.421  21.367  0.00  0.00    +0.000 A 
ATOM     15  C   UNL     1      -1.294  14.809  20.288  0.00  0.00    +0.000 A 
ATOM     16  C   UNL     1      -1.064  16.158  19.998  0.00  0.00    +0.000 A 
ATOM     17  C   UNL     1      -1.673  17.152  20.758  0.00  0.00    +0.000 A 
ATOM     18  C   UNL     1      -2.527  16.795  21.795  0.00  0.00    +0.000 A 
ATOM     19  C   UNL     1      -2.748  15.447  22.090  0.00  0.00    +0.000 A 
ENDBRANCH   4  14
BRANCH   7  20
ATOM     20  C   UNL     1      -0.418  10.214  19.753  0.00  0.00    +0.000 C 
BRANCH  20  21
ATOM     21  N   UNL     1       1.054  10.294  19.750  0.00  0.00    +0.000 NA
ATOM     22  C   UNL     1       1.761   9.390  20.669  0.00  0.00    +0.000 C 
ATOM     23  C   UNL     1       1.821   7.897  20.289  0.00  0.00    +0.000 C 
ATOM     24  N   UNL     1       2.181   7.634  18.889  0.00  0.00    +0.000 N 
ATOM     25  C   UNL     1       1.982   8.684  17.875  0.00  0.00    +0.000 C 
ATOM     26  C   UNL     1       1.664  10.111  18.417  0.00  0.00    +0.000 C 
BRANCH  24  27
ATOM     27  C   UNL     1       2.540   6.335  18.507  0.00  0.00    +0.000 A 
ATOM     28  C   UNL     1       3.581   6.073  17.600  0.00  0.00    +0.000 A 
ATOM     29  C   UNL     1       3.984   4.765  17.276  0.00  0.00    +0.000 A 
ATOM     30  C   UNL     1       3.325   3.671  17.820  0.00  0.00    +0.000 A 
ATOM     31  C   UNL     1       2.257   3.879  18.695  0.00  0.00    +0.000 A 
ATOM     32  C   UNL     1       1.898   5.201  19.039  0.00  0.00    +0.000 A 
BRANCH  31  33
ATOM     33  C   UNL     1       1.458   2.733  19.261  0.00  0.00    +0.000 C 
ATOM     34  F   UNL     1       2.165   1.931  20.105  0.00  0.00    +0.000 F 
ATOM     35  F   UNL     1       0.369   3.150  19.966  0.00  0.00    +0.000 F 
ATOM     36  F   UNL     1       0.975   1.912  18.286  0.00  0.00    +0.000 F 
ENDBRANCH  31  33
ENDBRANCH  24  27
ENDBRANCH  20  21
ENDBRANCH   7  20
TORSDOF 6
ENDMDL
MODEL 7
REMARK VINA RESULT:      -8.3      1.022      1.484
REMARK  Name = 
REMARK  6 active torsions:
REMARK  status: ('A' for Active; 'I' for Inactive)
REMARK    1  A    between atoms: C_4  and  C_5
REMARK    2  A    between atoms: C_4  and  C_11
REMARK    3  A    between atoms: N_19  and  C_20
REMARK    4  A    between atoms: C_20  and  N_21
REMARK    5  A    between atoms: N_24  and  C_25
REMARK    6  A    between atoms: C_29  and  C_30
REMARK                            x       y       z     vdW  Elec       q    Type
REMARK                         _______ _______ _______ _____ _____    ______ ____
ROOT
ATOM      1  O   UNL     1      -1.209  10.471  23.131  0.00  0.00    +0.000 OA
ATOM      2  C   UNL     1      -1.254  11.463  22.423  0.00  0.00    +0.000 C 
ATOM      3  C   UNL     1      -1.443  12.862  22.886  0.00  0.00    +0.000 C 
ATOM      4  C   UNL     1      -2.542  13.360  21.909  0.00  0.00    +0.000 C 
ATOM      5  C   UNL     1      -2.277  12.327  20.733  0.00  0.00    +0.000 C 
ATOM      6  O   UNL     1      -2.963  12.197  19.725  0.00  0.00    +0.000 OA
ATOM      7  N   UNL     1      -1.217  11.520  21.073  0.00  0.00    +0.000 N 
ENDROOT
BRANCH   4   8
ATOM      8  C   UNL     1      -3.888  13.234  22.721  0.00  0.00    +0.000 A 
ATOM      9  C   UNL     1      -3.818  12.909  24.091  0.00  0.00    +0.000 A 
ATOM     10  C   UNL     1      -4.961  12.528  24.794  0.00  0.00    +0.000 A 
ATOM     11  C   UNL     1      -6.193  12.481  24.161  0.00  0.00    +0.000 A 
ATOM     12  C   UNL     1      -6.275  12.893  22.832  0.00  0.00    +0.000 A 
ATOM     13  C   UNL     1      -5.138  13.259  22.108  0.00  0.00    +0.000 A 
ENDBRANCH   4   8
BRANCH   4  14
ATOM     14  C   UNL     1      -2.304  14.808  21.418  0.00  0.00    +0.000 A 
ATOM     15  C   UNL     1      -2.990  15.892  21.998  0.00  0.00    +0.000 A 
ATOM     16  C   UNL     1      -2.829  17.196  21.518  0.00  0.00    +0.000 A 
ATOM     17  C   UNL     1      -1.952  17.453  20.469  0.00  0.00    +0.000 A 
ATOM     18  C   UNL     1      -1.222  16.409  19.914  0.00  0.00    +0.000 A 
ATOM     19  C   UNL     1      -1.391  15.105  20.388  0.00  0.00    +0.000 A 
ENDBRANCH   4  14
BRANCH   7  20
ATOM     20  C   UNL     1      -0.641  10.434  20.289  0.00  0.00    +0.000 C 
BRANCH  20  21
ATOM     21  N   UNL     1       0.831  10.490  20.337  0.00  0.00    +0.000 NA
ATOM     22  C   UNL     1       1.489   9.606  21.311  0.00  0.00    +0.000 C 
ATOM     23  C   UNL     1       1.535   8.101  20.985  0.00  0.00    +0.000 C 
ATOM     24  N   UNL     1       1.940   7.783  19.609  0.00  0.00    +0.000 N 
ATOM     25  C   UNL     1       1.796   8.799  18.552  0.00  0.00    +0.000 C 
ATOM     26  C   UNL     1       1.484  10.249  19.033  0.00  0.00    +0.000 C 
BRANCH  24  27
ATOM     27  C   UNL     1       2.289   6.465  19.285  0.00  0.00    +0.000 A 
ATOM     28  C   UNL     1       2.725   6.091  18.002  0.00  0.00    +0.000 A 
ATOM     29  C   UNL     1       3.142   4.782  17.702  0.00  0.00    +0.000 A 
ATOM     30  C   UNL     1       3.095   3.789  18.672  0.00  0.00    +0.000 A 
ATOM     31  C   UNL     1       2.630   4.102  19.951  0.00  0.00    +0.000 A 
ATOM     32  C   UNL     1       2.257   5.433  20.241  0.00  0.00    +0.000 A 
BRANCH  31  33
ATOM     33  C   UNL     1       2.490   3.053  21.025  0.00  0.00    +0.000 C 
ATOM     34  F   UNL     1       2.208   3.558  22.258  0.00  0.00    +0.000 F 
ATOM     35  F   UNL     1       1.503   2.154  20.755  0.00  0.00    +0.000 F 
ATOM     36  F   UNL     1       3.628   2.318  21.177  0.00  0.00    +0.000 F 
ENDBRANCH  31  33
ENDBRANCH  24  27
ENDBRANCH  20  21
ENDBRANCH   7  20
TORSDOF 6
ENDMDL
MODEL 8
REMARK VINA RESULT:      -8.3      1.433      3.549
REMARK  Name = 
REMARK  6 active torsions:
REMARK  status: ('A' for Active; 'I' for Inactive)
REMARK    1  A    between atoms: C_4  and  C_5
REMARK    2  A    between atoms: C_4  and  C_11
REMARK    3  A    between atoms: N_19  and  C_20
REMARK    4  A    between atoms: C_20  and  N_21
REMARK    5  A    between atoms: N_24  and  C_25
REMARK    6  A    between atoms: C_29  and  C_30
REMARK                            x       y       z     vdW  Elec       q    Type
REMARK                         _______ _______ _______ _____ _____    ______ ____
ROOT
ATOM      1  O   UNL     1      -0.809  13.407  19.237  0.00  0.00    +0.000 OA
ATOM      2  C   UNL     1      -1.611  12.986  20.053  0.00  0.00    +0.000 C 
ATOM      3  C   UNL     1      -2.747  13.744  20.637  0.00  0.00    +0.000 C 
ATOM      4  C   UNL     1      -2.583  13.424  22.147  0.00  0.00    +0.000 C 
ATOM      5  C   UNL     1      -1.769  12.069  21.999  0.00  0.00    +0.000 C 
ATOM      6  O   UNL     1      -1.268  11.430  22.917  0.00  0.00    +0.000 OA
ATOM      7  N   UNL     1      -1.617  11.780  20.663  0.00  0.00    +0.000 N 
ENDROOT
BRANCH   4   8
ATOM      8  C   UNL     1      -1.837  14.679  22.744  0.00  0.00    +0.000 A 
ATOM      9  C   UNL     1      -1.326  14.596  24.055  0.00  0.00    +0.000 A 
ATOM     10  C   UNL     1      -0.897  15.741  24.729  0.00  0.00    +0.000 A 
ATOM     11  C   UNL     1      -0.947  16.980  24.111  0.00  0.00    +0.000 A 
ATOM     12  C   UNL     1      -1.364  17.046  22.782  0.00  0.00    +0.000 A 
ATOM     13  C   UNL     1      -1.815  15.913  22.100  0.00  0.00    +0.000 A 
ENDBRANCH   4   8
BRANCH   4  14
ATOM     14  C   UNL     1      -3.932  13.167  22.861  0.00  0.00    +0.000 A 
ATOM     15  C   UNL     1      -3.974  12.597  24.148  0.00  0.00    +0.000 A 
ATOM     16  C   UNL     1      -5.190  12.301  24.773  0.00  0.00    +0.000 A 
ATOM     17  C   UNL     1      -6.393  12.600  24.142  0.00  0.00    +0.000 A 
ATOM     18  C   UNL     1      -6.380  13.212  22.894  0.00  0.00    +0.000 A 
ATOM     19  C   UNL     1      -5.164  13.498  22.265  0.00  0.00    +0.000 A 
ENDBRANCH   4  14
BRANCH   7  20
ATOM     20  C   UNL     1      -0.931  10.635  20.075  0.00  0.00    +0.000 C 
BRANCH  20  21
ATOM     21  N   UNL     1       0.528  10.777  20.225  0.00  0.00    +0.000 NA
ATOM     22  C   UNL     1       1.166   9.940  21.252  0.00  0.00    +0.000 C 
ATOM     23  C   UNL     1       1.322   8.437  20.946  0.00  0.00    +0.000 C 
ATOM     24  N   UNL     1       1.841   8.135  19.604  0.00  0.00    +0.000 N 
ATOM     25  C   UNL     1       1.712   9.135  18.530  0.00  0.00    +0.000 C 
ATOM     26  C   UNL     1       1.284  10.568  18.973  0.00  0.00    +0.000 C 
BRANCH  24  27
ATOM     27  C   UNL     1       2.287   6.839  19.319  0.00  0.00    +0.000 A 
ATOM     28  C   UNL     1       3.028   6.529  18.165  0.00  0.00    +0.000 A 
ATOM     29  C   UNL     1       3.535   5.241  17.921  0.00  0.00    +0.000 A 
ATOM     30  C   UNL     1       3.277   4.203  18.807  0.00  0.00    +0.000 A 
ATOM     31  C   UNL     1       2.511   4.451  19.947  0.00  0.00    +0.000 A 
ATOM     32  C   UNL     1       2.049   5.762  20.194  0.00  0.00    +0.000 A 
BRANCH  31  33
ATOM     33  C   UNL     1       2.139   3.351  20.909  0.00  0.00    +0.000 C 
ATOM     34  F   UNL     1       2.348   3.667  22.218  0.00  0.00    +0.000 F 
ATOM     35  F   UNL     1       0.828   2.993  20.816  0.00  0.00    +0.000 F 
ATOM     36  F   UNL     1       2.851   2.210  20.685  0.00  0.00    +0.000 F 
ENDBRANCH  31  33
ENDBRANCH  24  27
ENDBRANCH  20  21
ENDBRANCH   7  20
TORSDOF 6
ENDMDL
MODEL 9
REMARK VINA RESULT:      -8.2      1.882      2.351
REMARK  Name = 
REMARK  6 active torsions:
REMARK  status: ('A' for Active; 'I' for Inactive)
REMARK    1  A    between atoms: C_4  and  C_5
REMARK    2  A    between atoms: C_4  and  C_11
REMARK    3  A    between atoms: N_19  and  C_20
REMARK    4  A    between atoms: C_20  and  N_21
REMARK    5  A    between atoms: N_24  and  C_25
REMARK    6  A    between atoms: C_29  and  C_30
REMARK                            x       y       z     vdW  Elec       q    Type
REMARK                         _______ _______ _______ _____ _____    ______ ____
ROOT
ATOM      1  O   UNL     1      -0.784  10.014  22.550  0.00  0.00    +0.000 OA
ATOM      2  C   UNL     1      -0.868  11.000  21.838  0.00  0.00    +0.000 C 
ATOM      3  C   UNL     1      -1.074  12.398  22.296  0.00  0.00    +0.000 C 
ATOM      4  C   UNL     1      -2.208  12.867  21.346  0.00  0.00    +0.000 C 
ATOM      5  C   UNL     1      -1.953  11.833  20.170  0.00  0.00    +0.000 C 
ATOM      6  O   UNL     1      -2.662  11.682  19.181  0.00  0.00    +0.000 OA
ATOM      7  N   UNL     1      -0.868  11.049  20.487  0.00  0.00    +0.000 N 
ENDROOT
BRANCH   4   8
ATOM      8  C   UNL     1      -3.529  12.719  22.195  0.00  0.00    +0.000 A 
ATOM      9  C   UNL     1      -4.767  12.764  21.524  0.00  0.00    +0.000 A 
ATOM     10  C   UNL     1      -5.961  12.903  22.234  0.00  0.00    +0.000 A 
ATOM     11  C   UNL     1      -5.950  12.979  23.617  0.00  0.00    +0.000 A 
ATOM     12  C   UNL     1      -4.734  12.840  24.284  0.00  0.00    +0.000 A 
ATOM     13  C   UNL     1      -3.528  12.719  23.587  0.00  0.00    +0.000 A 
ENDBRANCH   4   8
BRANCH   4  14
ATOM     14  C   UNL     1      -2.012  14.317  20.841  0.00  0.00    +0.000 A 
ATOM     15  C   UNL     1      -2.957  15.320  21.131  0.00  0.00    +0.000 A 
ATOM     16  C   UNL     1      -2.821  16.616  20.625  0.00  0.00    +0.000 A 
ATOM     17  C   UNL     1      -1.720  16.951  19.843  0.00  0.00    +0.000 A 
ATOM     18  C   UNL     1      -0.745  15.995  19.586  0.00  0.00    +0.000 A 
ATOM     19  C   UNL     1      -0.886  14.696  20.085  0.00  0.00    +0.000 A 
ENDBRANCH   4  14
BRANCH   7  20
ATOM     20  C   UNL     1      -0.291   9.970  19.694  0.00  0.00    +0.000 C 
BRANCH  20  21
ATOM     21  N   UNL     1       1.181  10.039  19.726  0.00  0.00    +0.000 NA
ATOM     22  C   UNL     1       1.865   9.057  20.582  0.00  0.00    +0.000 C 
ATOM     23  C   UNL     1       1.922   7.600  20.084  0.00  0.00    +0.000 C 
ATOM     24  N   UNL     1       2.308   7.448  18.674  0.00  0.00    +0.000 N 
ATOM     25  C   UNL     1       2.135   8.578  17.744  0.00  0.00    +0.000 C 
ATOM     26  C   UNL     1       1.816   9.959  18.394  0.00  0.00    +0.000 C 
BRANCH  24  27
ATOM     27  C   UNL     1       2.666   6.182  18.195  0.00  0.00    +0.000 A 
ATOM     28  C   UNL     1       1.883   5.036  18.424  0.00  0.00    +0.000 A 
ATOM     29  C   UNL     1       2.211   3.782  17.880  0.00  0.00    +0.000 A 
ATOM     30  C   UNL     1       3.363   3.623  17.121  0.00  0.00    +0.000 A 
ATOM     31  C   UNL     1       4.195   4.722  16.900  0.00  0.00    +0.000 A 
ATOM     32  C   UNL     1       3.824   5.981  17.420  0.00  0.00    +0.000 A 
BRANCH  31  33
ATOM     33  C   UNL     1       5.493   4.596  16.144  0.00  0.00    +0.000 C 
ATOM     34  F   UNL     1       6.573   5.082  16.818  0.00  0.00    +0.000 F 
ATOM     35  F   UNL     1       5.797   3.306  15.831  0.00  0.00    +0.000 F 
ATOM     36  F   UNL     1       5.464   5.268  14.958  0.00  0.00    +0.000 F 
ENDBRANCH  31  33
ENDBRANCH  24  27
ENDBRANCH  20  21
ENDBRANCH   7  20
TORSDOF 6
ENDMDL
