MODEL 1
REMARK VINA RESULT:      -7.4      0.000      0.000
REMARK  Name = 
REMARK  5 active torsions:
REMARK  status: ('A' for Active; 'I' for Inactive)
REMARK    1  A    between atoms: C_1  and  C_2
REMARK    2  A    between atoms: C_2  and  C_3
REMARK    3  A    between atoms: C_2  and  C_4
REMARK    4  A    between atoms: C_2  and  N_5
REMARK    5  A    between atoms: N_5  and  C_6
REMARK                            x       y       z     vdW  Elec       q    Type
REMARK                         _______ _______ _______ _____ _____    ______ ____
ROOT
ATOM      1  C   UNL     1       3.503   5.667  18.939  0.00  0.00    +0.000 A 
ATOM      2  C   UNL     1       2.713   6.826  18.885  0.00  0.00    +0.000 A 
ATOM      3  C   UNL     1       2.916   7.801  17.923  0.00  0.00    +0.000 A 
ATOM      4  C   UNL     1       3.950   7.653  17.009  0.00  0.00    +0.000 A 
ATOM      5  C   UNL     1       4.809   6.574  17.057  0.00  0.00    +0.000 A 
ATOM      6  N   UNL     1       5.780   6.544  16.140  0.00  0.00    +0.000 NA
ATOM      7  C   UNL     1       6.610   5.508  16.159  0.00  0.00    +0.000 A 
ATOM      8  N   UNL     1       7.601   5.489  15.196  0.00  0.00    +0.000 N 
ATOM      9  N   UNL     1       6.581   4.519  17.046  0.00  0.00    +0.000 NA
ATOM     10  C   UNL     1       5.588   4.555  17.951  0.00  0.00    +0.000 A 
ATOM     11  N   UNL     1       5.614   3.488  18.866  0.00  0.00    +0.000 N 
ATOM     12  C   UNL     1       4.620   5.575  18.028  0.00  0.00    +0.000 A 
ATOM     13  H   UNL     1       7.768   6.429  14.870  0.00  0.00    +0.000 HD
ATOM     14  H   UNL     1       8.395   4.970  15.542  0.00  0.00    +0.000 HD
ATOM     15  H   UNL     1       6.346   2.855  18.553  0.00  0.00    +0.000 HD
ATOM     16  H   UNL     1       4.696   3.043  18.868  0.00  0.00    +0.000 HD
ENDROOT
BRANCH   1  17
ATOM     17  N   UNL     1       3.182   4.590  19.774  0.00  0.00    +0.000 N 
ATOM     18  H   UNL     1       3.534   4.724  20.724  0.00  0.00    +0.000 HD
BRANCH  17  20
ATOM     19  C   UNL     1       1.683   3.434  18.139  0.00  0.00    +0.000 C 
ATOM     20  C   UNL     1       2.051   3.656  19.620  0.00  0.00    +0.000 C 
ATOM     21  C   UNL     1       0.848   4.107  20.456  0.00  0.00    +0.000 C 
ATOM     22  C   UNL     1       2.510   2.280  20.154  0.00  0.00    +0.000 C 
ENDBRANCH  17  20
ENDBRANCH   1  17
TORSDOF 2
ENDMDL
MODEL 2
REMARK VINA RESULT:      -7.4      0.095      1.022
REMARK  Name = 
REMARK  5 active torsions:
REMARK  status: ('A' for Active; 'I' for Inactive)
REMARK    1  A    between atoms: C_1  and  C_2
REMARK    2  A    between atoms: C_2  and  C_3
REMARK    3  A    between atoms: C_2  and  C_4
REMARK    4  A    between atoms: C_2  and  N_5
REMARK    5  A    between atoms: N_5  and  C_6
REMARK                            x       y       z     vdW  Elec       q    Type
REMARK                         _______ _______ _______ _____ _____    ______ ____
ROOT
ATOM      1  C   UNL     1       3.471   5.663  18.926  0.00  0.00    +0.000 A 
ATOM      2  C   UNL     1       2.695   6.831  18.882  0.00  0.00    +0.000 A 
ATOM      3  C   UNL     1       2.918   7.817  17.935  0.00  0.00    +0.000 A 
ATOM      4  C   UNL     1       3.957   7.670  17.027  0.00  0.00    +0.000 A 
ATOM      5  C   UNL     1       4.802   6.580  17.067  0.00  0.00    +0.000 A 
ATOM      6  N   UNL     1       5.780   6.551  16.157  0.00  0.00    +0.000 NA
ATOM      7  C   UNL     1       6.598   5.506  16.168  0.00  0.00    +0.000 A 
ATOM      8  N   UNL     1       7.596   5.489  15.213  0.00  0.00    +0.000 N 
ATOM      9  N   UNL     1       6.551   4.505  17.041  0.00  0.00    +0.000 NA
ATOM     10  C   UNL     1       5.551   4.540  17.939  0.00  0.00    +0.000 A 
ATOM     11  N   UNL     1       5.558   3.460  18.839  0.00  0.00    +0.000 N 
ATOM     12  C   UNL     1       4.595   5.570  18.023  0.00  0.00    +0.000 A 
ATOM     13  H   UNL     1       7.777   6.430  14.900  0.00  0.00    +0.000 HD
ATOM     14  H   UNL     1       8.381   4.955  15.557  0.00  0.00    +0.000 HD
ATOM     15  H   UNL     1       6.284   2.824  18.523  0.00  0.00    +0.000 HD
ATOM     16  H   UNL     1       4.634   3.026  18.828  0.00  0.00    +0.000 HD
ENDROOT
BRANCH   1  17
ATOM     17  N   UNL     1       3.131   4.578  19.744  0.00  0.00    +0.000 N 
ATOM     18  H   UNL     1       3.435   4.716  20.709  0.00  0.00    +0.000 HD
BRANCH  17  20
ATOM     19  C   UNL     1       2.405   2.197  19.982  0.00  0.00    +0.000 C 
ATOM     20  C   UNL     1       2.027   3.623  19.534  0.00  0.00    +0.000 C 
ATOM     21  C   UNL     1       1.533   3.665  18.084  0.00  0.00    +0.000 C 
ATOM     22  C   UNL     1       0.858   4.059  20.446  0.00  0.00    +0.000 C 
ENDBRANCH  17  20
ENDBRANCH   1  17
TORSDOF 2
ENDMDL
MODEL 3
REMARK VINA RESULT:      -7.3      0.100      1.081
REMARK  Name = 
REMARK  5 active torsions:
REMARK  status: ('A' for Active; 'I' for Inactive)
REMARK    1  A    between atoms: C_1  and  C_2
REMARK    2  A    between atoms: C_2  and  C_3
REMARK    3  A    between atoms: C_2  and  C_4
REMARK    4  A    between atoms: C_2  and  N_5
REMARK    5  A    between atoms: N_5  and  C_6
REMARK                            x       y       z     vdW  Elec       q    Type
REMARK                         _______ _______ _______ _____ _____    ______ ____
ROOT
ATOM      1  C   UNL     1       3.498   5.635  18.981  0.00  0.00    +0.000 A 
ATOM      2  C   UNL     1       2.704   6.791  18.945  0.00  0.00    +0.000 A 
ATOM      3  C   UNL     1       2.905   7.784  18.001  0.00  0.00    +0.000 A 
ATOM      4  C   UNL     1       3.942   7.656  17.087  0.00  0.00    +0.000 A 
ATOM      5  C   UNL     1       4.804   6.579  17.118  0.00  0.00    +0.000 A 
ATOM      6  N   UNL     1       5.777   6.569  16.202  0.00  0.00    +0.000 NA
ATOM      7  C   UNL     1       6.611   5.537  16.205  0.00  0.00    +0.000 A 
ATOM      8  N   UNL     1       7.605   5.538  15.244  0.00  0.00    +0.000 N 
ATOM      9  N   UNL     1       6.584   4.532  17.075  0.00  0.00    +0.000 NA
ATOM     10  C   UNL     1       5.589   4.548  17.978  0.00  0.00    +0.000 A 
ATOM     11  N   UNL     1       5.618   3.465  18.875  0.00  0.00    +0.000 N 
ATOM     12  C   UNL     1       4.618   5.563  18.071  0.00  0.00    +0.000 A 
ATOM     13  H   UNL     1       7.769   6.484  14.935  0.00  0.00    +0.000 HD
ATOM     14  H   UNL     1       8.400   5.016  15.582  0.00  0.00    +0.000 HD
ATOM     15  H   UNL     1       6.352   2.841  18.552  0.00  0.00    +0.000 HD
ATOM     16  H   UNL     1       4.701   3.017  18.867  0.00  0.00    +0.000 HD
ENDROOT
BRANCH   1  17
ATOM     17  N   UNL     1       3.179   4.542  19.796  0.00  0.00    +0.000 N 
ATOM     18  H   UNL     1       3.521   4.664  20.751  0.00  0.00    +0.000 HD
BRANCH  17  20
ATOM     19  C   UNL     1       0.815   4.020  20.423  0.00  0.00    +0.000 C 
ATOM     20  C   UNL     1       2.059   3.599  19.616  0.00  0.00    +0.000 C 
ATOM     21  C   UNL     1       2.496   2.164  19.929  0.00  0.00    +0.000 C 
ATOM     22  C   UNL     1       1.641   3.654  18.129  0.00  0.00    +0.000 C 
ENDBRANCH  17  20
ENDBRANCH   1  17
TORSDOF 2
ENDMDL
MODEL 4
REMARK VINA RESULT:      -7.2      1.686      4.971
REMARK  Name = 
REMARK  5 active torsions:
REMARK  status: ('A' for Active; 'I' for Inactive)
REMARK    1  A    between atoms: C_1  and  C_2
REMARK    2  A    between atoms: C_2  and  C_3
REMARK    3  A    between atoms: C_2  and  C_4
REMARK    4  A    between atoms: C_2  and  N_5
REMARK    5  A    between atoms: N_5  and  C_6
REMARK                            x       y       z     vdW  Elec       q    Type
REMARK                         _______ _______ _______ _____ _____    ______ ____
ROOT
ATOM      1  C   UNL     1       4.125   5.660  18.218  0.00  0.00    +0.000 A 
ATOM      2  C   UNL     1       3.579   6.942  18.050  0.00  0.00    +0.000 A 
ATOM      3  C   UNL     1       2.560   7.411  18.862  0.00  0.00    +0.000 A 
ATOM      4  C   UNL     1       2.035   6.585  19.846  0.00  0.00    +0.000 A 
ATOM      5  C   UNL     1       2.477   5.287  20.011  0.00  0.00    +0.000 A 
ATOM      6  N   UNL     1       1.887   4.576  20.976  0.00  0.00    +0.000 NA
ATOM      7  C   UNL     1       2.304   3.331  21.162  0.00  0.00    +0.000 A 
ATOM      8  N   UNL     1       1.689   2.614  22.171  0.00  0.00    +0.000 N 
ATOM      9  N   UNL     1       3.233   2.717  20.436  0.00  0.00    +0.000 NA
ATOM     10  C   UNL     1       3.829   3.452  19.481  0.00  0.00    +0.000 A 
ATOM     11  N   UNL     1       4.795   2.746  18.742  0.00  0.00    +0.000 N 
ATOM     12  C   UNL     1       3.508   4.792  19.194  0.00  0.00    +0.000 A 
ATOM     13  H   UNL     1       0.783   3.012  22.360  0.00  0.00    +0.000 HD
ATOM     14  H   UNL     1       1.728   1.628  21.955  0.00  0.00    +0.000 HD
ATOM     15  H   UNL     1       4.897   1.839  19.189  0.00  0.00    +0.000 HD
ATOM     16  H   UNL     1       5.664   3.282  18.756  0.00  0.00    +0.000 HD
ENDROOT
BRANCH   1  17
ATOM     17  N   UNL     1       5.280   5.252  17.540  0.00  0.00    +0.000 N 
ATOM     18  H   UNL     1       5.087   5.010  16.566  0.00  0.00    +0.000 HD
BRANCH  17  20
ATOM     19  C   UNL     1       6.944   5.580  19.378  0.00  0.00    +0.000 C 
ATOM     20  C   UNL     1       6.672   5.618  17.861  0.00  0.00    +0.000 C 
ATOM     21  C   UNL     1       7.041   6.969  17.239  0.00  0.00    +0.000 C 
ATOM     22  C   UNL     1       7.590   4.542  17.237  0.00  0.00    +0.000 C 
ENDBRANCH  17  20
ENDBRANCH   1  17
TORSDOF 2
ENDMDL
MODEL 5
REMARK VINA RESULT:      -7.1      1.086      1.339
REMARK  Name = 
REMARK  5 active torsions:
REMARK  status: ('A' for Active; 'I' for Inactive)
REMARK    1  A    between atoms: C_1  and  C_2
REMARK    2  A    between atoms: C_2  and  C_3
REMARK    3  A    between atoms: C_2  and  C_4
REMARK    4  A    between atoms: C_2  and  N_5
REMARK    5  A    between atoms: N_5  and  C_6
REMARK                            x       y       z     vdW  Elec       q    Type
REMARK                         _______ _______ _______ _____ _____    ______ ____
ROOT
ATOM      1  C   UNL     1       2.969   5.147  17.942  0.00  0.00    +0.000 A 
ATOM      2  C   UNL     1       2.470   6.404  18.319  0.00  0.00    +0.000 A 
ATOM      3  C   UNL     1       3.068   7.580  17.898  0.00  0.00    +0.000 A 
ATOM      4  C   UNL     1       4.211   7.522  17.113  0.00  0.00    +0.000 A 
ATOM      5  C   UNL     1       4.793   6.318  16.772  0.00  0.00    +0.000 A 
ATOM      6  N   UNL     1       5.902   6.383  16.029  0.00  0.00    +0.000 NA
ATOM      7  C   UNL     1       6.472   5.237  15.678  0.00  0.00    +0.000 A 
ATOM      8  N   UNL     1       7.612   5.323  14.901  0.00  0.00    +0.000 N 
ATOM      9  N   UNL     1       6.054   4.029  16.043  0.00  0.00    +0.000 NA
ATOM     10  C   UNL     1       4.928   3.982  16.775  0.00  0.00    +0.000 A 
ATOM     11  N   UNL     1       4.541   2.678  17.137  0.00  0.00    +0.000 N 
ATOM     12  C   UNL     1       4.204   5.114  17.193  0.00  0.00    +0.000 A 
ATOM     13  H   UNL     1       8.038   6.228  15.030  0.00  0.00    +0.000 HD
ATOM     14  H   UNL     1       8.190   4.511  15.062  0.00  0.00    +0.000 HD
ATOM     15  H   UNL     1       5.170   2.044  16.653  0.00  0.00    +0.000 HD
ATOM     16  H   UNL     1       3.569   2.544  16.859  0.00  0.00    +0.000 HD
ENDROOT
BRANCH   1  17
ATOM     17  N   UNL     1       2.264   3.965  18.195  0.00  0.00    +0.000 N 
ATOM     18  H   UNL     1       2.261   3.340  17.386  0.00  0.00    +0.000 HD
BRANCH  17  20
ATOM     19  C   UNL     1       0.872   4.010  20.272  0.00  0.00    +0.000 C 
ATOM     20  C   UNL     1       2.030   3.337  19.509  0.00  0.00    +0.000 C 
ATOM     21  C   UNL     1       3.321   3.292  20.334  0.00  0.00    +0.000 C 
ATOM     22  C   UNL     1       1.580   1.880  19.253  0.00  0.00    +0.000 C 
ENDBRANCH  17  20
ENDBRANCH   1  17
TORSDOF 2
ENDMDL
MODEL 6
REMARK VINA RESULT:      -7.1      1.686      4.964
REMARK  Name = 
REMARK  5 active torsions:
REMARK  status: ('A' for Active; 'I' for Inactive)
REMARK    1  A    between atoms: C_1  and  C_2
REMARK    2  A    between atoms: C_2  and  C_3
REMARK    3  A    between atoms: C_2  and  C_4
REMARK    4  A    between atoms: C_2  and  N_5
REMARK    5  A    between atoms: N_5  and  C_6
REMARK                            x       y       z     vdW  Elec       q    Type
REMARK                         _______ _______ _______ _____ _____    ______ ____
ROOT
ATOM      1  C   UNL     1       4.080   5.604  18.194  0.00  0.00    +0.000 A 
ATOM      2  C   UNL     1       3.545   6.892  18.039  0.00  0.00    +0.000 A 
ATOM      3  C   UNL     1       2.546   7.371  18.869  0.00  0.00    +0.000 A 
ATOM      4  C   UNL     1       2.029   6.547  19.860  0.00  0.00    +0.000 A 
ATOM      5  C   UNL     1       2.460   5.245  20.014  0.00  0.00    +0.000 A 
ATOM      6  N   UNL     1       1.879   4.538  20.988  0.00  0.00    +0.000 NA
ATOM      7  C   UNL     1       2.287   3.287  21.164  0.00  0.00    +0.000 A 
ATOM      8  N   UNL     1       1.682   2.574  22.182  0.00  0.00    +0.000 N 
ATOM      9  N   UNL     1       3.196   2.665  20.420  0.00  0.00    +0.000 NA
ATOM     10  C   UNL     1       3.782   3.396  19.457  0.00  0.00    +0.000 A 
ATOM     11  N   UNL     1       4.728   2.682  18.699  0.00  0.00    +0.000 N 
ATOM     12  C   UNL     1       3.471   4.741  19.179  0.00  0.00    +0.000 A 
ATOM     13  H   UNL     1       0.783   2.982  22.388  0.00  0.00    +0.000 HD
ATOM     14  H   UNL     1       1.706   1.589  21.962  0.00  0.00    +0.000 HD
ATOM     15  H   UNL     1       4.828   1.773  19.142  0.00  0.00    +0.000 HD
ATOM     16  H   UNL     1       5.603   3.208  18.699  0.00  0.00    +0.000 HD
ENDROOT
BRANCH   1  17
ATOM     17  N   UNL     1       5.218   5.186  17.495  0.00  0.00    +0.000 N 
ATOM     18  H   UNL     1       5.002   4.929  16.530  0.00  0.00    +0.000 HD
BRANCH  17  20
ATOM     19  C   UNL     1       6.946   6.983  17.294  0.00  0.00    +0.000 C 
ATOM     20  C   UNL     1       6.618   5.556  17.777  0.00  0.00    +0.000 C 
ATOM     21  C   UNL     1       7.587   4.514  17.208  0.00  0.00    +0.000 C 
ATOM     22  C   UNL     1       6.792   5.576  19.313  0.00  0.00    +0.000 C 
ENDBRANCH  17  20
ENDBRANCH   1  17
TORSDOF 2
ENDMDL
MODEL 7
REMARK VINA RESULT:      -7.1      1.683      4.950
REMARK  Name = 
REMARK  5 active torsions:
REMARK  status: ('A' for Active; 'I' for Inactive)
REMARK    1  A    between atoms: C_1  and  C_2
REMARK    2  A    between atoms: C_2  and  C_3
REMARK    3  A    between atoms: C_2  and  C_4
REMARK    4  A    between atoms: C_2  and  N_5
REMARK    5  A    between atoms: N_5  and  C_6
REMARK                            x       y       z     vdW  Elec       q    Type
REMARK                         _______ _______ _______ _____ _____    ______ ____
ROOT
ATOM      1  C   UNL     1       4.039   5.630  18.192  0.00  0.00    +0.000 A 
ATOM      2  C   UNL     1       3.505   6.920  18.053  0.00  0.00    +0.000 A 
ATOM      3  C   UNL     1       2.514   7.392  18.898  0.00  0.00    +0.000 A 
ATOM      4  C   UNL     1       2.006   6.560  19.886  0.00  0.00    +0.000 A 
ATOM      5  C   UNL     1       2.436   5.256  20.025  0.00  0.00    +0.000 A 
ATOM      6  N   UNL     1       1.864   4.541  20.997  0.00  0.00    +0.000 NA
ATOM      7  C   UNL     1       2.271   3.288  21.158  0.00  0.00    +0.000 A 
ATOM      8  N   UNL     1       1.676   2.567  22.175  0.00  0.00    +0.000 N 
ATOM      9  N   UNL     1       3.172   2.672  20.399  0.00  0.00    +0.000 NA
ATOM     10  C   UNL     1       3.751   3.411  19.437  0.00  0.00    +0.000 A 
ATOM     11  N   UNL     1       4.688   2.702  18.664  0.00  0.00    +0.000 N 
ATOM     12  C   UNL     1       3.439   4.758  19.175  0.00  0.00    +0.000 A 
ATOM     13  H   UNL     1       0.779   2.974  22.393  0.00  0.00    +0.000 HD
ATOM     14  H   UNL     1       1.696   1.583  21.946  0.00  0.00    +0.000 HD
ATOM     15  H   UNL     1       4.791   1.789  19.098  0.00  0.00    +0.000 HD
ATOM     16  H   UNL     1       5.563   3.228  18.660  0.00  0.00    +0.000 HD
ENDROOT
BRANCH   1  17
ATOM     17  N   UNL     1       5.170   5.216  17.478  0.00  0.00    +0.000 N 
ATOM     18  H   UNL     1       4.957   5.035  16.495  0.00  0.00    +0.000 HD
BRANCH  17  20
ATOM     19  C   UNL     1       7.547   4.531  17.110  0.00  0.00    +0.000 C 
ATOM     20  C   UNL     1       6.579   5.512  17.800  0.00  0.00    +0.000 C 
ATOM     21  C   UNL     1       6.794   5.572  19.316  0.00  0.00    +0.000 C 
ATOM     22  C   UNL     1       6.903   6.908  17.220  0.00  0.00    +0.000 C 
ENDBRANCH  17  20
ENDBRANCH   1  17
TORSDOF 2
ENDMDL
MODEL 8
REMARK VINA RESULT:      -7.0      1.085      1.470
REMARK  Name = 
REMARK  5 active torsions:
REMARK  status: ('A' for Active; 'I' for Inactive)
REMARK    1  A    between atoms: C_1  and  C_2
REMARK    2  A    between atoms: C_2  and  C_3
REMARK    3  A    between atoms: C_2  and  C_4
REMARK    4  A    between atoms: C_2  and  N_5
REMARK    5  A    between atoms: N_5  and  C_6
REMARK                            x       y       z     vdW  Elec       q    Type
REMARK                         _______ _______ _______ _____ _____    ______ ____
ROOT
ATOM      1  C   UNL     1       2.935   5.157  17.942  0.00  0.00    +0.000 A 
ATOM      2  C   UNL     1       2.434   6.415  18.310  0.00  0.00    +0.000 A 
ATOM      3  C   UNL     1       3.037   7.590  17.893  0.00  0.00    +0.000 A 
ATOM      4  C   UNL     1       4.189   7.528  17.121  0.00  0.00    +0.000 A 
ATOM      5  C   UNL     1       4.774   6.323  16.790  0.00  0.00    +0.000 A 
ATOM      6  N   UNL     1       5.891   6.384  16.060  0.00  0.00    +0.000 NA
ATOM      7  C   UNL     1       6.464   5.237  15.717  0.00  0.00    +0.000 A 
ATOM      8  N   UNL     1       7.613   5.319  14.954  0.00  0.00    +0.000 N 
ATOM      9  N   UNL     1       6.040   4.030  16.081  0.00  0.00    +0.000 NA
ATOM     10  C   UNL     1       4.905   3.986  16.800  0.00  0.00    +0.000 A 
ATOM     11  N   UNL     1       4.512   2.684  17.160  0.00  0.00    +0.000 N 
ATOM     12  C   UNL     1       4.178   5.120  17.207  0.00  0.00    +0.000 A 
ATOM     13  H   UNL     1       8.038   6.224  15.086  0.00  0.00    +0.000 HD
ATOM     14  H   UNL     1       8.188   4.507  15.123  0.00  0.00    +0.000 HD
ATOM     15  H   UNL     1       5.146   2.048  16.685  0.00  0.00    +0.000 HD
ATOM     16  H   UNL     1       3.543   2.550  16.871  0.00  0.00    +0.000 HD
ENDROOT
BRANCH   1  17
ATOM     17  N   UNL     1       2.225   3.976  18.189  0.00  0.00    +0.000 N 
ATOM     18  H   UNL     1       2.179   3.376  17.363  0.00  0.00    +0.000 HD
BRANCH  17  20
ATOM     19  C   UNL     1       3.262   3.490  20.412  0.00  0.00    +0.000 C 
ATOM     20  C   UNL     1       2.039   3.311  19.493  0.00  0.00    +0.000 C 
ATOM     21  C   UNL     1       1.662   1.837  19.307  0.00  0.00    +0.000 C 
ATOM     22  C   UNL     1       0.862   4.014  20.208  0.00  0.00    +0.000 C 
ENDBRANCH  17  20
ENDBRANCH   1  17
TORSDOF 2
ENDMDL
MODEL 9
REMARK VINA RESULT:      -7.0      1.088      1.158
REMARK  Name = 
REMARK  5 active torsions:
REMARK  status: ('A' for Active; 'I' for Inactive)
REMARK    1  A    between atoms: C_1  and  C_2
REMARK    2  A    between atoms: C_2  and  C_3
REMARK    3  A    between atoms: C_2  and  C_4
REMARK    4  A    between atoms: C_2  and  N_5
REMARK    5  A    between atoms: N_5  and  C_6
REMARK                            x       y       z     vdW  Elec       q    Type
REMARK                         _______ _______ _______ _____ _____    ______ ____
ROOT
ATOM      1  C   UNL     1       2.951   5.154  17.926  0.00  0.00    +0.000 A 
ATOM      2  C   UNL     1       2.455   6.411  18.304  0.00  0.00    +0.000 A 
ATOM      3  C   UNL     1       3.061   7.587  17.894  0.00  0.00    +0.000 A 
ATOM      4  C   UNL     1       4.211   7.527  17.119  0.00  0.00    +0.000 A 
ATOM      5  C   UNL     1       4.791   6.322  16.778  0.00  0.00    +0.000 A 
ATOM      6  N   UNL     1       5.907   6.385  16.045  0.00  0.00    +0.000 NA
ATOM      7  C   UNL     1       6.476   5.239  15.694  0.00  0.00    +0.000 A 
ATOM      8  N   UNL     1       7.623   5.323  14.929  0.00  0.00    +0.000 N 
ATOM      9  N   UNL     1       6.049   4.031  16.050  0.00  0.00    +0.000 NA
ATOM     10  C   UNL     1       4.916   3.985  16.771  0.00  0.00    +0.000 A 
ATOM     11  N   UNL     1       4.520   2.682  17.124  0.00  0.00    +0.000 N 
ATOM     12  C   UNL     1       4.193   5.119  17.188  0.00  0.00    +0.000 A 
ATOM     13  H   UNL     1       8.051   6.226  15.066  0.00  0.00    +0.000 HD
ATOM     14  H   UNL     1       8.196   4.508  15.091  0.00  0.00    +0.000 HD
ATOM     15  H   UNL     1       5.150   2.047  16.642  0.00  0.00    +0.000 HD
ATOM     16  H   UNL     1       3.549   2.553  16.836  0.00  0.00    +0.000 HD
ENDROOT
BRANCH   1  17
ATOM     17  N   UNL     1       2.239   3.973  18.167  0.00  0.00    +0.000 N 
ATOM     18  H   UNL     1       2.230   3.358  17.351  0.00  0.00    +0.000 HD
BRANCH  17  20
ATOM     19  C   UNL     1       1.761   1.816  19.337  0.00  0.00    +0.000 C 
ATOM     20  C   UNL     1       2.003   3.332  19.474  0.00  0.00    +0.000 C 
ATOM     21  C   UNL     1       0.872   4.034  20.233  0.00  0.00    +0.000 C 
ATOM     22  C   UNL     1       3.297   3.483  20.305  0.00  0.00    +0.000 C 
ENDBRANCH  17  20
ENDBRANCH   1  17
TORSDOF 2
ENDMDL
