MODEL 1
REMARK VINA RESULT:      -7.7      0.000      0.000
REMARK  Name = 
REMARK  14 active torsions:
REMARK  status: ('A' for Active; 'I' for Inactive)
REMARK    1  A    between atoms: C_1  and  C_2
REMARK    2  A    between atoms: C_2  and  N_3
REMARK    3  A    between atoms: C_2  and  C_20
REMARK    4  A    between atoms: N_3  and  C_4
REMARK    5  A    between atoms: C_4  and  C_5
REMARK    6  A    between atoms: C_5  and  C_6
REMARK    7  A    between atoms: C_10  and  N_11
REMARK    8  A    between atoms: N_11  and  C_12
REMARK    9  A    between atoms: N_11  and  C_13
REMARK   10  A    between atoms: C_13  and  C_14
REMARK   11  A    between atoms: C_14  and  O_16
REMARK   12  A    between atoms: C_20  and  O_21
REMARK   13  A    between atoms: C_20  and  C_22
REMARK   14  A    between atoms: C_25  and  O_26
REMARK                            x       y       z     vdW  Elec       q    Type
REMARK                         _______ _______ _______ _____ _____    ______ ____
ROOT
ATOM      1  C   UNL     1       7.529   8.373  17.626  0.00  0.00    +0.000 C 
ENDROOT
BRANCH   1   2
ATOM      2  N   UNL     1       7.714   7.091  16.940  0.00  0.00    +0.000 NA
ATOM      3  H   UNL     1       8.680   6.772  17.013  0.00  0.00    +0.000 HD
BRANCH   2   5
ATOM      4  C   UNL     1       7.635   4.749  17.714  0.00  0.00    +0.000 C 
ATOM      5  C   UNL     1       6.813   6.024  17.439  0.00  0.00    +0.000 C 
BRANCH   5   6
ATOM      6  C   UNL     1       5.660   5.661  16.430  0.00  0.00    +0.000 C 
BRANCH   6   7
ATOM      7  C   UNL     1       4.359   5.090  16.983  0.00  0.00    +0.000 A 
ATOM      8  C   UNL     1       3.514   5.912  17.751  0.00  0.00    +0.000 A 
ATOM      9  C   UNL     1       2.364   5.401  18.364  0.00  0.00    +0.000 A 
ATOM     10  C   UNL     1       2.061   4.052  18.224  0.00  0.00    +0.000 A 
ATOM     11  C   UNL     1       2.876   3.220  17.473  0.00  0.00    +0.000 A 
ATOM     12  C   UNL     1       4.020   3.734  16.862  0.00  0.00    +0.000 A 
BRANCH  10  13
ATOM     13  O   UNL     1       0.972   3.495  18.826  0.00  0.00    +0.000 OA
ATOM     14  H   UNL     1       1.255   3.071  19.653  0.00  0.00    +0.000 HD
ENDBRANCH  10  13
ENDBRANCH   6   7
BRANCH   6  15
ATOM     15  O   UNL     1       5.353   6.812  15.630  0.00  0.00    +0.000 OA
ATOM     16  H   UNL     1       6.204   7.203  15.368  0.00  0.00    +0.000 HD
ENDBRANCH   6  15
ENDBRANCH   5   6
ENDBRANCH   2   5
ENDBRANCH   1   2
BRANCH   1  17
ATOM     17  C   UNL     1       8.711   8.733  18.546  0.00  0.00    +0.000 C 
BRANCH  17  18
ATOM     18  C   UNL     1       9.082  10.198  18.563  0.00  0.00    +0.000 A 
ATOM     19  C   UNL     1       8.243  11.177  18.040  0.00  0.00    +0.000 A 
ATOM     20  C   UNL     1       8.645  12.528  17.987  0.00  0.00    +0.000 A 
ATOM     21 CL   UNL     1       7.554  13.555  17.093  0.00  0.00    +0.000 Cl
ATOM     22  C   UNL     1       9.885  12.996  18.525  0.00  0.00    +0.000 A 
ATOM     23  C   UNL     1      10.681  11.970  19.115  0.00  0.00    +0.000 A 
ATOM     24 CL   UNL     1      12.181  12.217  19.958  0.00  0.00    +0.000 Cl
ATOM     25  C   UNL     1      10.292  10.612  19.110  0.00  0.00    +0.000 A 
BRANCH  22  26
ATOM     26  N   UNL     1      10.262  14.358  18.385  0.00  0.00    +0.000 N 
ATOM     27  C   UNL     1       9.979  15.245  19.536  0.00  0.00    +0.000 C 
BRANCH  26  28
ATOM     28  C   UNL     1      11.511  14.727  17.663  0.00  0.00    +0.000 C 
BRANCH  28  29
ATOM     29  C   UNL     1      11.391  16.072  16.958  0.00  0.00    +0.000 C 
ATOM     30  O   UNL     1      11.981  17.095  17.288  0.00  0.00    +0.000 OA
BRANCH  29  31
ATOM     31  O   UNL     1      10.549  16.025  15.894  0.00  0.00    +0.000 OA
ATOM     32  H   UNL     1      11.055  15.775  15.089  0.00  0.00    +0.000 HD
ENDBRANCH  29  31
ENDBRANCH  28  29
ENDBRANCH  26  28
ENDBRANCH  22  26
ENDBRANCH  17  18
ENDBRANCH   1  17
TORSDOF 12
ENDMDL
MODEL 2
REMARK VINA RESULT:      -7.3      1.775      2.227
REMARK  Name = 
REMARK  14 active torsions:
REMARK  status: ('A' for Active; 'I' for Inactive)
REMARK    1  A    between atoms: C_1  and  C_2
REMARK    2  A    between atoms: C_2  and  N_3
REMARK    3  A    between atoms: C_2  and  C_20
REMARK    4  A    between atoms: N_3  and  C_4
REMARK    5  A    between atoms: C_4  and  C_5
REMARK    6  A    between atoms: C_5  and  C_6
REMARK    7  A    between atoms: C_10  and  N_11
REMARK    8  A    between atoms: N_11  and  C_12
REMARK    9  A    between atoms: N_11  and  C_13
REMARK   10  A    between atoms: C_13  and  C_14
REMARK   11  A    between atoms: C_14  and  O_16
REMARK   12  A    between atoms: C_20  and  O_21
REMARK   13  A    between atoms: C_20  and  C_22
REMARK   14  A    between atoms: C_25  and  O_26
REMARK                            x       y       z     vdW  Elec       q    Type
REMARK                         _______ _______ _______ _____ _____    ______ ____
ROOT
ATOM      1  C   UNL     1       7.653   8.728  17.703  0.00  0.00    +0.000 C 
ENDROOT
BRANCH   1   2
ATOM      2  N   UNL     1       7.688   7.423  17.035  0.00  0.00    +0.000 NA
ATOM      3  H   UNL     1       8.629   7.030  17.049  0.00  0.00    +0.000 HD
BRANCH   2   5
ATOM      4  C   UNL     1       7.540   5.266  18.224  0.00  0.00    +0.000 C 
ATOM      5  C   UNL     1       6.745   6.440  17.620  0.00  0.00    +0.000 C 
BRANCH   5   6
ATOM      6  C   UNL     1       5.723   5.859  16.572  0.00  0.00    +0.000 C 
BRANCH   6   7
ATOM      7  C   UNL     1       4.488   5.127  17.085  0.00  0.00    +0.000 A 
ATOM      8  C   UNL     1       4.370   3.741  16.877  0.00  0.00    +0.000 A 
ATOM      9  C   UNL     1       3.208   3.048  17.236  0.00  0.00    +0.000 A 
ATOM     10  C   UNL     1       2.144   3.747  17.795  0.00  0.00    +0.000 A 
ATOM     11  C   UNL     1       2.234   5.114  18.010  0.00  0.00    +0.000 A 
ATOM     12  C   UNL     1       3.395   5.800  17.653  0.00  0.00    +0.000 A 
BRANCH  10  13
ATOM     13  O   UNL     1       0.978   3.130  18.134  0.00  0.00    +0.000 OA
ATOM     14  H   UNL     1       0.378   3.154  17.370  0.00  0.00    +0.000 HD
ENDBRANCH  10  13
ENDBRANCH   6   7
BRANCH   6  15
ATOM     15  O   UNL     1       5.302   6.909  15.690  0.00  0.00    +0.000 OA
ATOM     16  H   UNL     1       5.623   6.673  14.803  0.00  0.00    +0.000 HD
ENDBRANCH   6  15
ENDBRANCH   5   6
ENDBRANCH   2   5
ENDBRANCH   1   2
BRANCH   1  17
ATOM     17  C   UNL     1       8.764   8.888  18.757  0.00  0.00    +0.000 C 
BRANCH  17  18
ATOM     18  C   UNL     1       9.244  10.306  18.966  0.00  0.00    +0.000 A 
ATOM     19  C   UNL     1       9.711  11.090  17.915  0.00  0.00    +0.000 A 
ATOM     20  C   UNL     1      10.235  12.379  18.144  0.00  0.00    +0.000 A 
ATOM     21 CL   UNL     1      10.973  13.101  16.739  0.00  0.00    +0.000 Cl
ATOM     22  C   UNL     1      10.255  12.996  19.434  0.00  0.00    +0.000 A 
ATOM     23  C   UNL     1       9.702  12.185  20.470  0.00  0.00    +0.000 A 
ATOM     24 CL   UNL     1       9.468  12.679  22.121  0.00  0.00    +0.000 Cl
ATOM     25  C   UNL     1       9.233  10.874  20.236  0.00  0.00    +0.000 A 
BRANCH  22  26
ATOM     26  N   UNL     1      10.854  14.271  19.613  0.00  0.00    +0.000 N 
ATOM     27  C   UNL     1      12.333  14.320  19.566  0.00  0.00    +0.000 C 
BRANCH  26  28
ATOM     28  C   UNL     1      10.217  15.493  19.049  0.00  0.00    +0.000 C 
BRANCH  28  29
ATOM     29  C   UNL     1       8.961  15.891  19.814  0.00  0.00    +0.000 C 
ATOM     30  O   UNL     1       7.872  16.129  19.305  0.00  0.00    +0.000 OA
BRANCH  29  31
ATOM     31  O   UNL     1       9.170  15.951  21.155  0.00  0.00    +0.000 OA
ATOM     32  H   UNL     1       9.209  16.893  21.437  0.00  0.00    +0.000 HD
ENDBRANCH  29  31
ENDBRANCH  28  29
ENDBRANCH  26  28
ENDBRANCH  22  26
ENDBRANCH  17  18
ENDBRANCH   1  17
TORSDOF 12
ENDMDL
MODEL 3
REMARK VINA RESULT:      -7.2      6.289      7.969
REMARK  Name = 
REMARK  14 active torsions:
REMARK  status: ('A' for Active; 'I' for Inactive)
REMARK    1  A    between atoms: C_1  and  C_2
REMARK    2  A    between atoms: C_2  and  N_3
REMARK    3  A    between atoms: C_2  and  C_20
REMARK    4  A    between atoms: N_3  and  C_4
REMARK    5  A    between atoms: C_4  and  C_5
REMARK    6  A    between atoms: C_5  and  C_6
REMARK    7  A    between atoms: C_10  and  N_11
REMARK    8  A    between atoms: N_11  and  C_12
REMARK    9  A    between atoms: N_11  and  C_13
REMARK   10  A    between atoms: C_13  and  C_14
REMARK   11  A    between atoms: C_14  and  O_16
REMARK   12  A    between atoms: C_20  and  O_21
REMARK   13  A    between atoms: C_20  and  C_22
REMARK   14  A    between atoms: C_25  and  O_26
REMARK                            x       y       z     vdW  Elec       q    Type
REMARK                         _______ _______ _______ _____ _____    ______ ____
ROOT
ATOM      1  C   UNL     1       1.403   4.387  20.561  0.00  0.00    +0.000 C 
ENDROOT
BRANCH   1   2
ATOM      2  N   UNL     1       2.321   3.467  19.881  0.00  0.00    +0.000 NA
ATOM      3  H   UNL     1       1.854   2.591  19.647  0.00  0.00    +0.000 HD
BRANCH   2   5
ATOM      4  C   UNL     1       1.880   4.009  17.515  0.00  0.00    +0.000 C 
ATOM      5  C   UNL     1       2.920   4.040  18.651  0.00  0.00    +0.000 C 
BRANCH   5   6
ATOM      6  C   UNL     1       4.205   3.270  18.168  0.00  0.00    +0.000 C 
BRANCH   6   7
ATOM      7  C   UNL     1       5.139   3.957  17.177  0.00  0.00    +0.000 A 
ATOM      8  C   UNL     1       5.045   3.645  15.809  0.00  0.00    +0.000 A 
ATOM      9  C   UNL     1       5.950   4.171  14.880  0.00  0.00    +0.000 A 
ATOM     10  C   UNL     1       6.971   5.006  15.322  0.00  0.00    +0.000 A 
ATOM     11  C   UNL     1       7.086   5.329  16.665  0.00  0.00    +0.000 A 
ATOM     12  C   UNL     1       6.180   4.804  17.587  0.00  0.00    +0.000 A 
BRANCH  10  13
ATOM     13  O   UNL     1       7.899   5.519  14.466  0.00  0.00    +0.000 OA
ATOM     14  H   UNL     1       7.452   6.109  13.837  0.00  0.00    +0.000 HD
ENDBRANCH  10  13
ENDBRANCH   6   7
BRANCH   6  15
ATOM     15  O   UNL     1       4.969   2.861  19.311  0.00  0.00    +0.000 OA
ATOM     16  H   UNL     1       5.689   3.507  19.410  0.00  0.00    +0.000 HD
ENDBRANCH   6  15
ENDBRANCH   5   6
ENDBRANCH   2   5
ENDBRANCH   1   2
BRANCH   1  17
ATOM     17  C   UNL     1       2.124   5.599  21.181  0.00  0.00    +0.000 C 
BRANCH  17  18
ATOM     18  C   UNL     1       1.715   6.940  20.616  0.00  0.00    +0.000 A 
ATOM     19  C   UNL     1       2.062   7.335  19.328  0.00  0.00    +0.000 A 
ATOM     20  C   UNL     1       1.746   8.624  18.851  0.00  0.00    +0.000 A 
ATOM     21 CL   UNL     1       2.463   9.000  17.306  0.00  0.00    +0.000 Cl
ATOM     22  C   UNL     1       0.995   9.575  19.611  0.00  0.00    +0.000 A 
ATOM     23  C   UNL     1       0.600   9.103  20.898  0.00  0.00    +0.000 A 
ATOM     24 CL   UNL     1      -0.416   9.961  22.017  0.00  0.00    +0.000 Cl
ATOM     25  C   UNL     1       0.972   7.831  21.384  0.00  0.00    +0.000 A 
BRANCH  22  26
ATOM     26  N   UNL     1       0.764  10.881  19.102  0.00  0.00    +0.000 N 
ATOM     27  C   UNL     1      -0.609  11.172  18.627  0.00  0.00    +0.000 C 
BRANCH  26  28
ATOM     28  C   UNL     1       1.425  12.063  19.720  0.00  0.00    +0.000 C 
BRANCH  28  29
ATOM     29  C   UNL     1       2.116  12.942  18.685  0.00  0.00    +0.000 C 
ATOM     30  O   UNL     1       2.299  14.148  18.795  0.00  0.00    +0.000 OA
BRANCH  29  31
ATOM     31  O   UNL     1       2.528  12.235  17.600  0.00  0.00    +0.000 OA
ATOM     32  H   UNL     1       2.376  11.277  17.758  0.00  0.00    +0.000 HD
ENDBRANCH  29  31
ENDBRANCH  28  29
ENDBRANCH  26  28
ENDBRANCH  22  26
ENDBRANCH  17  18
ENDBRANCH   1  17
TORSDOF 12
ENDMDL
MODEL 4
REMARK VINA RESULT:      -7.1      6.286      8.697
REMARK  Name = 
REMARK  14 active torsions:
REMARK  status: ('A' for Active; 'I' for Inactive)
REMARK    1  A    between atoms: C_1  and  C_2
REMARK    2  A    between atoms: C_2  and  N_3
REMARK    3  A    between atoms: C_2  and  C_20
REMARK    4  A    between atoms: N_3  and  C_4
REMARK    5  A    between atoms: C_4  and  C_5
REMARK    6  A    between atoms: C_5  and  C_6
REMARK    7  A    between atoms: C_10  and  N_11
REMARK    8  A    between atoms: N_11  and  C_12
REMARK    9  A    between atoms: N_11  and  C_13
REMARK   10  A    between atoms: C_13  and  C_14
REMARK   11  A    between atoms: C_14  and  O_16
REMARK   12  A    between atoms: C_20  and  O_21
REMARK   13  A    between atoms: C_20  and  C_22
REMARK   14  A    between atoms: C_25  and  O_26
REMARK                            x       y       z     vdW  Elec       q    Type
REMARK                         _______ _______ _______ _____ _____    ______ ____
ROOT
ATOM      1  C   UNL     1       1.678   4.542  19.702  0.00  0.00    +0.000 C 
ENDROOT
BRANCH   1   2
ATOM      2  N   UNL     1       1.844   4.449  18.248  0.00  0.00    +0.000 NA
ATOM      3  H   UNL     1       2.509   5.144  17.910  0.00  0.00    +0.000 HD
BRANCH   2   5
ATOM      4  C   UNL     1       1.720   2.037  18.755  0.00  0.00    +0.000 C 
ATOM      5  C   UNL     1       2.276   3.105  17.793  0.00  0.00    +0.000 C 
BRANCH   5   6
ATOM      6  C   UNL     1       3.840   2.944  17.726  0.00  0.00    +0.000 C 
BRANCH   6   7
ATOM      7  C   UNL     1       4.698   4.196  17.577  0.00  0.00    +0.000 A 
ATOM      8  C   UNL     1       4.770   4.839  16.328  0.00  0.00    +0.000 A 
ATOM      9  C   UNL     1       5.626   5.927  16.119  0.00  0.00    +0.000 A 
ATOM     10  C   UNL     1       6.430   6.370  17.163  0.00  0.00    +0.000 A 
ATOM     11  C   UNL     1       6.378   5.754  18.404  0.00  0.00    +0.000 A 
ATOM     12  C   UNL     1       5.522   4.672  18.608  0.00  0.00    +0.000 A 
BRANCH  10  13
ATOM     13  O   UNL     1       7.305   7.404  17.007  0.00  0.00    +0.000 OA
ATOM     14  H   UNL     1       7.430   7.567  16.058  0.00  0.00    +0.000 HD
ENDBRANCH  10  13
ENDBRANCH   6   7
BRANCH   6  15
ATOM     15  O   UNL     1       4.290   2.214  18.877  0.00  0.00    +0.000 OA
ATOM     16  H   UNL     1       5.037   2.714  19.249  0.00  0.00    +0.000 HD
ENDBRANCH   6  15
ENDBRANCH   5   6
ENDBRANCH   2   5
ENDBRANCH   1   2
BRANCH   1  17
ATOM     17  C   UNL     1       2.506   5.682  20.325  0.00  0.00    +0.000 C 
BRANCH  17  18
ATOM     18  C   UNL     1       1.878   7.053  20.223  0.00  0.00    +0.000 A 
ATOM     19  C   UNL     1       2.072   7.874  19.117  0.00  0.00    +0.000 A 
ATOM     20  C   UNL     1       1.550   9.184  19.079  0.00  0.00    +0.000 A 
ATOM     21 CL   UNL     1       2.094  10.123  17.715  0.00  0.00    +0.000 Cl
ATOM     22  C   UNL     1       0.733   9.728  20.120  0.00  0.00    +0.000 A 
ATOM     23  C   UNL     1       0.501   8.828  21.202  0.00  0.00    +0.000 A 
ATOM     24 CL   UNL     1      -0.539   9.132  22.561  0.00  0.00    +0.000 Cl
ATOM     25  C   UNL     1       1.078   7.540  21.252  0.00  0.00    +0.000 A 
BRANCH  22  26
ATOM     26  N   UNL     1       0.289  11.076  20.056  0.00  0.00    +0.000 N 
ATOM     27  C   UNL     1       1.239  12.109  20.528  0.00  0.00    +0.000 C 
BRANCH  26  28
ATOM     28  C   UNL     1      -0.555  11.541  18.921  0.00  0.00    +0.000 C 
BRANCH  28  29
ATOM     29  C   UNL     1      -2.006  11.753  19.333  0.00  0.00    +0.000 C 
ATOM     30  O   UNL     1      -2.371  12.330  20.351  0.00  0.00    +0.000 OA
BRANCH  29  31
ATOM     31  O   UNL     1      -2.881  11.232  18.434  0.00  0.00    +0.000 OA
ATOM     32  H   UNL     1      -3.281  10.414  18.805  0.00  0.00    +0.000 HD
ENDBRANCH  29  31
ENDBRANCH  28  29
ENDBRANCH  26  28
ENDBRANCH  22  26
ENDBRANCH  17  18
ENDBRANCH   1  17
TORSDOF 12
ENDMDL
MODEL 5
REMARK VINA RESULT:      -7.1      7.204     11.046
REMARK  Name = 
REMARK  14 active torsions:
REMARK  status: ('A' for Active; 'I' for Inactive)
REMARK    1  A    between atoms: C_1  and  C_2
REMARK    2  A    between atoms: C_2  and  N_3
REMARK    3  A    between atoms: C_2  and  C_20
REMARK    4  A    between atoms: N_3  and  C_4
REMARK    5  A    between atoms: C_4  and  C_5
REMARK    6  A    between atoms: C_5  and  C_6
REMARK    7  A    between atoms: C_10  and  N_11
REMARK    8  A    between atoms: N_11  and  C_12
REMARK    9  A    between atoms: N_11  and  C_13
REMARK   10  A    between atoms: C_13  and  C_14
REMARK   11  A    between atoms: C_14  and  O_16
REMARK   12  A    between atoms: C_20  and  O_21
REMARK   13  A    between atoms: C_20  and  C_22
REMARK   14  A    between atoms: C_25  and  O_26
REMARK                            x       y       z     vdW  Elec       q    Type
REMARK                         _______ _______ _______ _____ _____    ______ ____
ROOT
ATOM      1  C   UNL     1       0.579   9.666  18.698  0.00  0.00    +0.000 C 
ENDROOT
BRANCH   1   2
ATOM      2  N   UNL     1      -0.436  10.051  17.711  0.00  0.00    +0.000 NA
ATOM      3  H   UNL     1      -0.609   9.294  17.050  0.00  0.00    +0.000 HD
BRANCH   2   5
ATOM      4  C   UNL     1      -2.887   9.964  17.446  0.00  0.00    +0.000 C 
ATOM      5  C   UNL     1      -1.723  10.461  18.324  0.00  0.00    +0.000 C 
BRANCH   5   6
ATOM      6  C   UNL     1      -1.862  12.020  18.495  0.00  0.00    +0.000 C 
BRANCH   6   7
ATOM      7  C   UNL     1      -1.381  12.658  19.793  0.00  0.00    +0.000 A 
ATOM      8  C   UNL     1      -1.335  11.885  20.968  0.00  0.00    +0.000 A 
ATOM      9  C   UNL     1      -1.001  12.457  22.201  0.00  0.00    +0.000 A 
ATOM     10  C   UNL     1      -0.725  13.818  22.268  0.00  0.00    +0.000 A 
ATOM     11  C   UNL     1      -0.764  14.603  21.126  0.00  0.00    +0.000 A 
ATOM     12  C   UNL     1      -1.095  14.028  19.898  0.00  0.00    +0.000 A 
BRANCH  10  13
ATOM     13  O   UNL     1      -0.427  14.433  23.447  0.00  0.00    +0.000 OA
ATOM     14  H   UNL     1      -1.175  14.320  24.057  0.00  0.00    +0.000 HD
ENDBRANCH  10  13
ENDBRANCH   6   7
BRANCH   6  15
ATOM     15  O   UNL     1      -1.216  12.676  17.394  0.00  0.00    +0.000 OA
ATOM     16  H   UNL     1      -1.705  13.501  17.237  0.00  0.00    +0.000 HD
ENDBRANCH   6  15
ENDBRANCH   5   6
ENDBRANCH   2   5
ENDBRANCH   1   2
BRANCH   1  17
ATOM     17  C   UNL     1       1.987   9.544  18.088  0.00  0.00    +0.000 C 
BRANCH  17  18
ATOM     18  C   UNL     1       2.588   8.158  18.145  0.00  0.00    +0.000 A 
ATOM     19  C   UNL     1       3.580   7.747  17.261  0.00  0.00    +0.000 A 
ATOM     20  C   UNL     1       4.066   6.422  17.275  0.00  0.00    +0.000 A 
ATOM     21 CL   UNL     1       5.133   6.047  15.947  0.00  0.00    +0.000 Cl
ATOM     22  C   UNL     1       3.641   5.445  18.229  0.00  0.00    +0.000 A 
ATOM     23  C   UNL     1       2.675   5.930  19.161  0.00  0.00    +0.000 A 
ATOM     24 CL   UNL     1       2.043   5.039  20.513  0.00  0.00    +0.000 Cl
ATOM     25  C   UNL     1       2.156   7.242  19.098  0.00  0.00    +0.000 A 
BRANCH  22  26
ATOM     26  N   UNL     1       4.119   4.109  18.153  0.00  0.00    +0.000 N 
ATOM     27  C   UNL     1       4.906   3.622  19.308  0.00  0.00    +0.000 C 
BRANCH  26  28
ATOM     28  C   UNL     1       3.289   3.043  17.526  0.00  0.00    +0.000 C 
BRANCH  28  29
ATOM     29  C   UNL     1       3.022   1.887  18.482  0.00  0.00    +0.000 C 
ATOM     30  O   UNL     1       2.131   1.861  19.322  0.00  0.00    +0.000 OA
BRANCH  29  31
ATOM     31  O   UNL     1       3.889   0.857  18.301  0.00  0.00    +0.000 OA
ATOM     32  H   UNL     1       3.394   0.007  18.330  0.00  0.00    +0.000 HD
ENDBRANCH  29  31
ENDBRANCH  28  29
ENDBRANCH  26  28
ENDBRANCH  22  26
ENDBRANCH  17  18
ENDBRANCH   1  17
TORSDOF 12
ENDMDL
MODEL 6
REMARK VINA RESULT:      -7.1      6.543      8.027
REMARK  Name = 
REMARK  14 active torsions:
REMARK  status: ('A' for Active; 'I' for Inactive)
REMARK    1  A    between atoms: C_1  and  C_2
REMARK    2  A    between atoms: C_2  and  N_3
REMARK    3  A    between atoms: C_2  and  C_20
REMARK    4  A    between atoms: N_3  and  C_4
REMARK    5  A    between atoms: C_4  and  C_5
REMARK    6  A    between atoms: C_5  and  C_6
REMARK    7  A    between atoms: C_10  and  N_11
REMARK    8  A    between atoms: N_11  and  C_12
REMARK    9  A    between atoms: N_11  and  C_13
REMARK   10  A    between atoms: C_13  and  C_14
REMARK   11  A    between atoms: C_14  and  O_16
REMARK   12  A    between atoms: C_20  and  O_21
REMARK   13  A    between atoms: C_20  and  C_22
REMARK   14  A    between atoms: C_25  and  O_26
REMARK                            x       y       z     vdW  Elec       q    Type
REMARK                         _______ _______ _______ _____ _____    ______ ____
ROOT
ATOM      1  C   UNL     1       1.903   4.918  19.907  0.00  0.00    +0.000 C 
ENDROOT
BRANCH   1   2
ATOM      2  N   UNL     1       1.759   4.228  18.621  0.00  0.00    +0.000 NA
ATOM      3  H   UNL     1       2.287   4.703  17.889  0.00  0.00    +0.000 HD
BRANCH   2   5
ATOM      4  C   UNL     1       2.505   2.421  20.126  0.00  0.00    +0.000 C 
ATOM      5  C   UNL     1       2.174   2.805  18.671  0.00  0.00    +0.000 C 
BRANCH   5   6
ATOM      6  C   UNL     1       3.431   2.492  17.777  0.00  0.00    +0.000 C 
BRANCH   6   7
ATOM      7  C   UNL     1       4.437   3.607  17.514  0.00  0.00    +0.000 A 
ATOM      8  C   UNL     1       4.513   4.180  16.231  0.00  0.00    +0.000 A 
ATOM      9  C   UNL     1       5.490   5.132  15.918  0.00  0.00    +0.000 A 
ATOM     10  C   UNL     1       6.413   5.506  16.888  0.00  0.00    +0.000 A 
ATOM     11  C   UNL     1       6.361   4.956  18.159  0.00  0.00    +0.000 A 
ATOM     12  C   UNL     1       5.383   4.009  18.469  0.00  0.00    +0.000 A 
BRANCH  10  13
ATOM     13  O   UNL     1       7.405   6.402  16.628  0.00  0.00    +0.000 OA
ATOM     14  H   UNL     1       7.578   6.409  15.672  0.00  0.00    +0.000 HD
ENDBRANCH  10  13
ENDBRANCH   6   7
BRANCH   6  15
ATOM     15  O   UNL     1       4.130   1.364  18.323  0.00  0.00    +0.000 OA
ATOM     16  H   UNL     1       4.939   1.711  18.737  0.00  0.00    +0.000 HD
ENDBRANCH   6  15
ENDBRANCH   5   6
ENDBRANCH   2   5
ENDBRANCH   1   2
BRANCH   1  17
ATOM     17  C   UNL     1       2.791   6.173  19.813  0.00  0.00    +0.000 C 
BRANCH  17  18
ATOM     18  C   UNL     1       2.045   7.487  19.864  0.00  0.00    +0.000 A 
ATOM     19  C   UNL     1       2.119   8.418  18.833  0.00  0.00    +0.000 A 
ATOM     20  C   UNL     1       1.486   9.674  18.939  0.00  0.00    +0.000 A 
ATOM     21 CL   UNL     1       1.887  10.778  17.649  0.00  0.00    +0.000 Cl
ATOM     22  C   UNL     1       0.673  10.047  20.055  0.00  0.00    +0.000 A 
ATOM     23  C   UNL     1       0.567   9.035  21.055  0.00  0.00    +0.000 A 
ATOM     24 CL   UNL     1      -0.434   9.122  22.475  0.00  0.00    +0.000 Cl
ATOM     25  C   UNL     1       1.253   7.805  20.963  0.00  0.00    +0.000 A 
BRANCH  22  26
ATOM     26  N   UNL     1       0.113  11.350  20.134  0.00  0.00    +0.000 N 
ATOM     27  C   UNL     1      -1.342  11.461  19.882  0.00  0.00    +0.000 C 
BRANCH  26  28
ATOM     28  C   UNL     1       0.600  12.323  21.150  0.00  0.00    +0.000 C 
BRANCH  28  29
ATOM     29  C   UNL     1       1.650  13.269  20.582  0.00  0.00    +0.000 C 
ATOM     30  O   UNL     1       1.680  13.675  19.427  0.00  0.00    +0.000 OA
BRANCH  29  31
ATOM     31  O   UNL     1       2.572  13.635  21.511  0.00  0.00    +0.000 OA
ATOM     32  H   UNL     1       2.409  13.141  22.345  0.00  0.00    +0.000 HD
ENDBRANCH  29  31
ENDBRANCH  28  29
ENDBRANCH  26  28
ENDBRANCH  22  26
ENDBRANCH  17  18
ENDBRANCH   1  17
TORSDOF 12
ENDMDL
MODEL 7
REMARK VINA RESULT:      -7.0      6.516      8.204
REMARK  Name = 
REMARK  14 active torsions:
REMARK  status: ('A' for Active; 'I' for Inactive)
REMARK    1  A    between atoms: C_1  and  C_2
REMARK    2  A    between atoms: C_2  and  N_3
REMARK    3  A    between atoms: C_2  and  C_20
REMARK    4  A    between atoms: N_3  and  C_4
REMARK    5  A    between atoms: C_4  and  C_5
REMARK    6  A    between atoms: C_5  and  C_6
REMARK    7  A    between atoms: C_10  and  N_11
REMARK    8  A    between atoms: N_11  and  C_12
REMARK    9  A    between atoms: N_11  and  C_13
REMARK   10  A    between atoms: C_13  and  C_14
REMARK   11  A    between atoms: C_14  and  O_16
REMARK   12  A    between atoms: C_20  and  O_21
REMARK   13  A    between atoms: C_20  and  C_22
REMARK   14  A    between atoms: C_25  and  O_26
REMARK                            x       y       z     vdW  Elec       q    Type
REMARK                         _______ _______ _______ _____ _____    ______ ____
ROOT
ATOM      1  C   UNL     1       2.010   5.049  20.997  0.00  0.00    +0.000 C 
ENDROOT
BRANCH   1   2
ATOM      2  N   UNL     1       2.226   3.688  20.497  0.00  0.00    +0.000 NA
ATOM      3  H   UNL     1       1.421   3.093  20.696  0.00  0.00    +0.000 HD
BRANCH   2   5
ATOM      4  C   UNL     1       1.443   2.784  18.339  0.00  0.00    +0.000 C 
ATOM      5  C   UNL     1       2.516   3.637  19.043  0.00  0.00    +0.000 C 
BRANCH   5   6
ATOM      6  C   UNL     1       3.929   3.027  18.712  0.00  0.00    +0.000 C 
BRANCH   6   7
ATOM      7  C   UNL     1       4.969   3.917  18.040  0.00  0.00    +0.000 A 
ATOM      8  C   UNL     1       5.830   4.695  18.835  0.00  0.00    +0.000 A 
ATOM      9  C   UNL     1       6.727   5.603  18.260  0.00  0.00    +0.000 A 
ATOM     10  C   UNL     1       6.756   5.749  16.877  0.00  0.00    +0.000 A 
ATOM     11  C   UNL     1       5.917   4.995  16.071  0.00  0.00    +0.000 A 
ATOM     12  C   UNL     1       5.026   4.090  16.649  0.00  0.00    +0.000 A 
BRANCH  10  13
ATOM     13  O   UNL     1       7.585   6.641  16.266  0.00  0.00    +0.000 OA
ATOM     14  H   UNL     1       8.138   7.068  16.941  0.00  0.00    +0.000 HD
ENDBRANCH  10  13
ENDBRANCH   6   7
BRANCH   6  15
ATOM     15  O   UNL     1       4.499   2.478  19.909  0.00  0.00    +0.000 OA
ATOM     16  H   UNL     1       3.768   2.367  20.540  0.00  0.00    +0.000 HD
ENDBRANCH   6  15
ENDBRANCH   5   6
ENDBRANCH   2   5
ENDBRANCH   1   2
BRANCH   1  17
ATOM     17  C   UNL     1       2.620   6.125  20.079  0.00  0.00    +0.000 C 
BRANCH  17  18
ATOM     18  C   UNL     1       1.890   7.448  20.076  0.00  0.00    +0.000 A 
ATOM     19  C   UNL     1       1.982   8.339  19.011  0.00  0.00    +0.000 A 
ATOM     20  C   UNL     1       1.364   9.606  19.065  0.00  0.00    +0.000 A 
ATOM     21 CL   UNL     1       1.785  10.655  17.737  0.00  0.00    +0.000 Cl
ATOM     22  C   UNL     1       0.550  10.031  20.161  0.00  0.00    +0.000 A 
ATOM     23  C   UNL     1       0.425   9.059  21.199  0.00  0.00    +0.000 A 
ATOM     24 CL   UNL     1      -0.582   9.212  22.607  0.00  0.00    +0.000 Cl
ATOM     25  C   UNL     1       1.097   7.818  21.156  0.00  0.00    +0.000 A 
BRANCH  22  26
ATOM     26  N   UNL     1       0.005  11.343  20.188  0.00  0.00    +0.000 N 
ATOM     27  C   UNL     1      -1.381  11.494  19.690  0.00  0.00    +0.000 C 
BRANCH  26  28
ATOM     28  C   UNL     1       0.323  12.272  21.307  0.00  0.00    +0.000 C 
BRANCH  28  29
ATOM     29  C   UNL     1       1.363  13.313  20.911  0.00  0.00    +0.000 C 
ATOM     30  O   UNL     1       1.771  13.501  19.772  0.00  0.00    +0.000 OA
BRANCH  29  31
ATOM     31  O   UNL     1       1.800  14.037  21.974  0.00  0.00    +0.000 OA
ATOM     32  H   UNL     1       2.783  14.052  21.976  0.00  0.00    +0.000 HD
ENDBRANCH  29  31
ENDBRANCH  28  29
ENDBRANCH  26  28
ENDBRANCH  22  26
ENDBRANCH  17  18
ENDBRANCH   1  17
TORSDOF 12
ENDMDL
MODEL 8
REMARK VINA RESULT:      -7.0      6.472      8.057
REMARK  Name = 
REMARK  14 active torsions:
REMARK  status: ('A' for Active; 'I' for Inactive)
REMARK    1  A    between atoms: C_1  and  C_2
REMARK    2  A    between atoms: C_2  and  N_3
REMARK    3  A    between atoms: C_2  and  C_20
REMARK    4  A    between atoms: N_3  and  C_4
REMARK    5  A    between atoms: C_4  and  C_5
REMARK    6  A    between atoms: C_5  and  C_6
REMARK    7  A    between atoms: C_10  and  N_11
REMARK    8  A    between atoms: N_11  and  C_12
REMARK    9  A    between atoms: N_11  and  C_13
REMARK   10  A    between atoms: C_13  and  C_14
REMARK   11  A    between atoms: C_14  and  O_16
REMARK   12  A    between atoms: C_20  and  O_21
REMARK   13  A    between atoms: C_20  and  C_22
REMARK   14  A    between atoms: C_25  and  O_26
REMARK                            x       y       z     vdW  Elec       q    Type
REMARK                         _______ _______ _______ _____ _____    ______ ____
ROOT
ATOM      1  C   UNL     1       1.307   4.166  20.132  0.00  0.00    +0.000 C 
ENDROOT
BRANCH   1   2
ATOM      2  N   UNL     1       1.978   2.865  20.232  0.00  0.00    +0.000 NA
ATOM      3  H   UNL     1       1.302   2.102  20.217  0.00  0.00    +0.000 HD
BRANCH   2   5
ATOM      4  C   UNL     1       4.396   2.680  19.778  0.00  0.00    +0.000 C 
ATOM      5  C   UNL     1       2.983   2.642  19.164  0.00  0.00    +0.000 C 
BRANCH   5   6
ATOM      6  C   UNL     1       2.915   3.712  18.011  0.00  0.00    +0.000 C 
BRANCH   6   7
ATOM      7  C   UNL     1       4.218   4.305  17.487  0.00  0.00    +0.000 A 
ATOM      8  C   UNL     1       4.665   5.542  17.988  0.00  0.00    +0.000 A 
ATOM      9  C   UNL     1       5.798   6.172  17.460  0.00  0.00    +0.000 A 
ATOM     10  C   UNL     1       6.484   5.572  16.411  0.00  0.00    +0.000 A 
ATOM     11  C   UNL     1       6.065   4.354  15.899  0.00  0.00    +0.000 A 
ATOM     12  C   UNL     1       4.936   3.728  16.429  0.00  0.00    +0.000 A 
BRANCH  10  13
ATOM     13  O   UNL     1       7.574   6.157  15.838  0.00  0.00    +0.000 OA
ATOM     14  H   UNL     1       8.087   5.476  15.373  0.00  0.00    +0.000 HD
ENDBRANCH  10  13
ENDBRANCH   6   7
BRANCH   6  15
ATOM     15  O   UNL     1       2.180   3.169  16.905  0.00  0.00    +0.000 OA
ATOM     16  H   UNL     1       1.997   3.910  16.302  0.00  0.00    +0.000 HD
ENDBRANCH   6  15
ENDBRANCH   5   6
ENDBRANCH   2   5
ENDBRANCH   1   2
BRANCH   1  17
ATOM     17  C   UNL     1       1.961   5.243  21.017  0.00  0.00    +0.000 C 
BRANCH  17  18
ATOM     18  C   UNL     1       1.674   6.668  20.603  0.00  0.00    +0.000 A 
ATOM     19  C   UNL     1       0.990   7.554  21.430  0.00  0.00    +0.000 A 
ATOM     20  C   UNL     1       0.656   8.852  20.991  0.00  0.00    +0.000 A 
ATOM     21 CL   UNL     1      -0.392   9.719  22.082  0.00  0.00    +0.000 Cl
ATOM     22  C   UNL     1       1.054   9.371  19.719  0.00  0.00    +0.000 A 
ATOM     23  C   UNL     1       1.813   8.454  18.932  0.00  0.00    +0.000 A 
ATOM     24 CL   UNL     1       2.545   8.810  17.396  0.00  0.00    +0.000 Cl
ATOM     25  C   UNL     1       2.090   7.138  19.362  0.00  0.00    +0.000 A 
BRANCH  22  26
ATOM     26  N   UNL     1       0.633  10.664  19.306  0.00  0.00    +0.000 N 
ATOM     27  C   UNL     1      -0.805  10.821  18.988  0.00  0.00    +0.000 C 
BRANCH  26  28
ATOM     28  C   UNL     1       1.227  11.885  19.917  0.00  0.00    +0.000 C 
BRANCH  28  29
ATOM     29  C   UNL     1       1.115  13.097  19.001  0.00  0.00    +0.000 C 
ATOM     30  O   UNL     1       0.538  14.141  19.284  0.00  0.00    +0.000 OA
BRANCH  29  31
ATOM     31  O   UNL     1       1.742  12.907  17.811  0.00  0.00    +0.000 OA
ATOM     32  H   UNL     1       1.815  13.767  17.340  0.00  0.00    +0.000 HD
ENDBRANCH  29  31
ENDBRANCH  28  29
ENDBRANCH  26  28
ENDBRANCH  22  26
ENDBRANCH  17  18
ENDBRANCH   1  17
TORSDOF 12
ENDMDL
MODEL 9
REMARK VINA RESULT:      -7.0      6.601      7.831
REMARK  Name = 
REMARK  14 active torsions:
REMARK  status: ('A' for Active; 'I' for Inactive)
REMARK    1  A    between atoms: C_1  and  C_2
REMARK    2  A    between atoms: C_2  and  N_3
REMARK    3  A    between atoms: C_2  and  C_20
REMARK    4  A    between atoms: N_3  and  C_4
REMARK    5  A    between atoms: C_4  and  C_5
REMARK    6  A    between atoms: C_5  and  C_6
REMARK    7  A    between atoms: C_10  and  N_11
REMARK    8  A    between atoms: N_11  and  C_12
REMARK    9  A    between atoms: N_11  and  C_13
REMARK   10  A    between atoms: C_13  and  C_14
REMARK   11  A    between atoms: C_14  and  O_16
REMARK   12  A    between atoms: C_20  and  O_21
REMARK   13  A    between atoms: C_20  and  C_22
REMARK   14  A    between atoms: C_25  and  O_26
REMARK                            x       y       z     vdW  Elec       q    Type
REMARK                         _______ _______ _______ _____ _____    ______ ____
ROOT
ATOM      1  C   UNL     1       3.580   7.714  17.534  0.00  0.00    +0.000 C 
ENDROOT
BRANCH   1   2
ATOM      2  N   UNL     1       4.095   6.344  17.442  0.00  0.00    +0.000 NA
ATOM      3  H   UNL     1       4.365   6.118  16.485  0.00  0.00    +0.000 HD
BRANCH   2   5
ATOM      4  C   UNL     1       6.552   6.144  17.527  0.00  0.00    +0.000 C 
ATOM      5  C   UNL     1       5.246   6.090  18.342  0.00  0.00    +0.000 C 
BRANCH   5   6
ATOM      6  C   UNL     1       5.172   4.694  19.067  0.00  0.00    +0.000 C 
BRANCH   6   7
ATOM      7  C   UNL     1       3.882   3.888  18.971  0.00  0.00    +0.000 A 
ATOM      8  C   UNL     1       3.770   2.877  18.000  0.00  0.00    +0.000 A 
ATOM      9  C   UNL     1       2.568   2.185  17.807  0.00  0.00    +0.000 A 
ATOM     10  C   UNL     1       1.461   2.514  18.581  0.00  0.00    +0.000 A 
ATOM     11  C   UNL     1       1.544   3.508  19.544  0.00  0.00    +0.000 A 
ATOM     12  C   UNL     1       2.745   4.193  19.734  0.00  0.00    +0.000 A 
BRANCH  10  13
ATOM     13  O   UNL     1       0.258   1.896  18.413  0.00  0.00    +0.000 OA
ATOM     14  H   UNL     1       0.228   1.506  17.524  0.00  0.00    +0.000 HD
ENDBRANCH  10  13
ENDBRANCH   6   7
BRANCH   6  15
ATOM     15  O   UNL     1       6.261   3.872  18.624  0.00  0.00    +0.000 OA
ATOM     16  H   UNL     1       6.172   3.021  19.084  0.00  0.00    +0.000 HD
ENDBRANCH   6  15
ENDBRANCH   5   6
ENDBRANCH   2   5
ENDBRANCH   1   2
BRANCH   1  17
ATOM     17  C   UNL     1       2.123   7.771  18.029  0.00  0.00    +0.000 C 
BRANCH  17  18
ATOM     18  C   UNL     1       1.728   9.068  18.698  0.00  0.00    +0.000 A 
ATOM     19  C   UNL     1       1.031   9.094  19.902  0.00  0.00    +0.000 A 
ATOM     20  C   UNL     1       0.595  10.312  20.465  0.00  0.00    +0.000 A 
ATOM     21 CL   UNL     1      -0.451  10.117  21.846  0.00  0.00    +0.000 Cl
ATOM     22  C   UNL     1       0.897  11.588  19.894  0.00  0.00    +0.000 A 
ATOM     23  C   UNL     1       1.673  11.517  18.699  0.00  0.00    +0.000 A 
ATOM     24 CL   UNL     1       2.307  12.880  17.826  0.00  0.00    +0.000 Cl
ATOM     25  C   UNL     1       2.053  10.288  18.116  0.00  0.00    +0.000 A 
BRANCH  22  26
ATOM     26  N   UNL     1       0.377  12.777  20.473  0.00  0.00    +0.000 N 
ATOM     27  C   UNL     1       1.344  13.646  21.182  0.00  0.00    +0.000 C 
BRANCH  26  28
ATOM     28  C   UNL     1      -0.697  13.546  19.785  0.00  0.00    +0.000 C 
BRANCH  28  29
ATOM     29  C   UNL     1      -1.722  12.635  19.123  0.00  0.00    +0.000 C 
ATOM     30  O   UNL     1      -2.579  11.992  19.718  0.00  0.00    +0.000 OA
BRANCH  29  31
ATOM     31  O   UNL     1      -1.595  12.609  17.771  0.00  0.00    +0.000 OA
ATOM     32  H   UNL     1      -1.188  11.757  17.498  0.00  0.00    +0.000 HD
ENDBRANCH  29  31
ENDBRANCH  28  29
ENDBRANCH  26  28
ENDBRANCH  22  26
ENDBRANCH  17  18
ENDBRANCH   1  17
TORSDOF 12
ENDMDL
