MODEL 1
REMARK VINA RESULT:      -7.6      0.000      0.000
REMARK  Name = 
REMARK  5 active torsions:
REMARK  status: ('A' for Active; 'I' for Inactive)
REMARK    1  A    between atoms: N_1  and  C_2
REMARK    2  A    between atoms: C_2  and  C_3
REMARK    3  A    between atoms: C_3  and  S_4
REMARK    4  A    between atoms: S_4  and  C_5
REMARK    5  A    between atoms: C_5  and  C_6
REMARK                            x       y       z     vdW  Elec       q    Type
REMARK                         _______ _______ _______ _____ _____    ______ ____
ROOT
ATOM      1  C   UNL     1      -0.917  11.637  18.857  0.00  0.00    +0.000 C 
ATOM      2  C   UNL     1       0.626  11.411  18.667  0.00  0.00    +0.000 C 
ATOM      3  N   UNL     1       1.279  10.610  19.733  0.00  0.00    +0.000 N 
ATOM      4  C   UNL     1       1.586   9.291  19.544  0.00  0.00    +0.000 A 
ATOM      5  N   UNL     1       1.588   8.381  20.500  0.00  0.00    +0.000 NA
ATOM      6  C   UNL     1       1.794   7.112  19.996  0.00  0.00    +0.000 A 
ATOM      7  C   UNL     1       1.729   5.905  20.724  0.00  0.00    +0.000 A 
ATOM      8  C   UNL     1       1.970   4.685  20.075  0.00  0.00    +0.000 A 
ATOM      9  C   UNL     1       2.278   4.666  18.719  0.00  0.00    +0.000 A 
ATOM     10 CL   UNL     1       2.576   3.159  17.939  0.00  0.00    +0.000 Cl
ATOM     11  C   UNL     1       2.346   5.843  17.974  0.00  0.00    +0.000 A 
ATOM     12  C   UNL     1       2.092   7.056  18.637  0.00  0.00    +0.000 A 
ATOM     13  S   UNL     1       2.077   8.650  18.004  0.00  0.00    +0.000 S 
ATOM     14  C   UNL     1       1.047  11.084  21.106  0.00  0.00    +0.000 C 
ATOM     15  C   UNL     1      -0.349  11.573  21.304  0.00  0.00    +0.000 A 
ATOM     16  N   UNL     1      -0.959  11.772  22.509  0.00  0.00    +0.000 N 
ATOM     17  C   UNL     1      -2.261  12.185  22.311  0.00  0.00    +0.000 A 
ATOM     18  C   UNL     1      -3.265  12.476  23.246  0.00  0.00    +0.000 A 
ATOM     19  C   UNL     1      -4.520  12.847  22.754  0.00  0.00    +0.000 A 
ATOM     20  C   UNL     1      -4.752  12.927  21.384  0.00  0.00    +0.000 A 
ATOM     21 CL   UNL     1      -6.316  13.375  20.812  0.00  0.00    +0.000 Cl
ATOM     22  C   UNL     1      -3.743  12.642  20.459  0.00  0.00    +0.000 A 
ATOM     23  C   UNL     1      -2.472  12.255  20.931  0.00  0.00    +0.000 A 
ATOM     24  C   UNL     1      -1.259  11.851  20.305  0.00  0.00    +0.000 A 
ATOM     25  H   UNL     1      -0.541  11.607  23.416  0.00  0.00    +0.000 HD
ENDROOT
BRANCH   1  26
ATOM     26  C   UNL     1      -1.790  10.550  18.185  0.00  0.00    +0.000 C 
BRANCH  26  27
ATOM     27  S   UNL     1      -2.803  11.168  16.804  0.00  0.00    +0.000 S 
BRANCH  27  28
ATOM     28  C   UNL     1      -2.814   9.725  15.712  0.00  0.00    +0.000 C 
BRANCH  28  29
ATOM     29  C   UNL     1      -3.481  10.158  14.402  0.00  0.00    +0.000 C 
BRANCH  29  30
ATOM     30  N   UNL     1      -2.650   9.852  13.237  0.00  0.00    +0.000 NA
ATOM     31  H   UNL     1      -1.944  10.583  13.147  0.00  0.00    +0.000 HD
ATOM     32  H   UNL     1      -3.218   9.903  12.393  0.00  0.00    +0.000 HD
ENDBRANCH  29  30
ENDBRANCH  28  29
ENDBRANCH  27  28
ENDBRANCH  26  27
ENDBRANCH   1  26
TORSDOF 5
ENDMDL
MODEL 2
REMARK VINA RESULT:      -7.6      1.075      1.247
REMARK  Name = 
REMARK  5 active torsions:
REMARK  status: ('A' for Active; 'I' for Inactive)
REMARK    1  A    between atoms: N_1  and  C_2
REMARK    2  A    between atoms: C_2  and  C_3
REMARK    3  A    between atoms: C_3  and  S_4
REMARK    4  A    between atoms: S_4  and  C_5
REMARK    5  A    between atoms: C_5  and  C_6
REMARK                            x       y       z     vdW  Elec       q    Type
REMARK                         _______ _______ _______ _____ _____    ______ ____
ROOT
ATOM      1  C   UNL     1      -1.754  12.078  18.322  0.00  0.00    +0.000 C 
ATOM      2  C   UNL     1      -0.183  12.110  18.292  0.00  0.00    +0.000 C 
ATOM      3  N   UNL     1       0.480  11.507  19.475  0.00  0.00    +0.000 N 
ATOM      4  C   UNL     1       1.019  10.251  19.425  0.00  0.00    +0.000 A 
ATOM      5  N   UNL     1       1.073   9.421  20.450  0.00  0.00    +0.000 NA
ATOM      6  C   UNL     1       1.538   8.176  20.072  0.00  0.00    +0.000 A 
ATOM      7  C   UNL     1       1.599   7.026  20.889  0.00  0.00    +0.000 A 
ATOM      8  C   UNL     1       2.104   5.827  20.368  0.00  0.00    +0.000 A 
ATOM      9  C   UNL     1       2.550   5.772  19.052  0.00  0.00    +0.000 A 
ATOM     10 CL   UNL     1       3.173   4.290  18.429  0.00  0.00    +0.000 Cl
ATOM     11  C   UNL     1       2.499   6.891  18.222  0.00  0.00    +0.000 A 
ATOM     12  C   UNL     1       1.979   8.083  18.756  0.00  0.00    +0.000 A 
ATOM     13  S   UNL     1       1.766   9.604  17.994  0.00  0.00    +0.000 S 
ATOM     14  C   UNL     1       0.032  12.023  20.778  0.00  0.00    +0.000 C 
ATOM     15  C   UNL     1      -1.439  12.275  20.807  0.00  0.00    +0.000 A 
ATOM     16  N   UNL     1      -2.195  12.445  21.932  0.00  0.00    +0.000 N 
ATOM     17  C   UNL     1      -3.520  12.612  21.583  0.00  0.00    +0.000 A 
ATOM     18  C   UNL     1      -4.649  12.787  22.395  0.00  0.00    +0.000 A 
ATOM     19  C   UNL     1      -5.891  12.901  21.762  0.00  0.00    +0.000 A 
ATOM     20  C   UNL     1      -5.990  12.849  20.375  0.00  0.00    +0.000 A 
ATOM     21 CL   UNL     1      -7.539  12.981  19.628  0.00  0.00    +0.000 Cl
ATOM     22  C   UNL     1      -4.858  12.682  19.572  0.00  0.00    +0.000 A 
ATOM     23  C   UNL     1      -3.596  12.554  20.188  0.00  0.00    +0.000 A 
ATOM     24  C   UNL     1      -2.274  12.325  19.711  0.00  0.00    +0.000 A 
ATOM     25  H   UNL     1      -1.852  12.415  22.883  0.00  0.00    +0.000 HD
ENDROOT
BRANCH   1  26
ATOM     26  C   UNL     1      -2.360  10.815  17.665  0.00  0.00    +0.000 C 
BRANCH  26  27
ATOM     27  S   UNL     1      -3.300  11.154  16.144  0.00  0.00    +0.000 S 
BRANCH  27  28
ATOM     28  C   UNL     1      -2.739   9.799  15.083  0.00  0.00    +0.000 C 
BRANCH  28  29
ATOM     29  C   UNL     1      -3.370  10.017  13.704  0.00  0.00    +0.000 C 
BRANCH  29  30
ATOM     30  N   UNL     1      -2.482   9.593  12.621  0.00  0.00    +0.000 NA
ATOM     31  H   UNL     1      -2.708  10.139  11.790  0.00  0.00    +0.000 HD
ATOM     32  H   UNL     1      -2.676   8.622  12.383  0.00  0.00    +0.000 HD
ENDBRANCH  29  30
ENDBRANCH  28  29
ENDBRANCH  27  28
ENDBRANCH  26  27
ENDBRANCH   1  26
TORSDOF 5
ENDMDL
MODEL 3
REMARK VINA RESULT:      -7.3      1.343      1.777
REMARK  Name = 
REMARK  5 active torsions:
REMARK  status: ('A' for Active; 'I' for Inactive)
REMARK    1  A    between atoms: N_1  and  C_2
REMARK    2  A    between atoms: C_2  and  C_3
REMARK    3  A    between atoms: C_3  and  S_4
REMARK    4  A    between atoms: S_4  and  C_5
REMARK    5  A    between atoms: C_5  and  C_6
REMARK                            x       y       z     vdW  Elec       q    Type
REMARK                         _______ _______ _______ _____ _____    ______ ____
ROOT
ATOM      1  C   UNL     1      -2.189  12.780  19.717  0.00  0.00    +0.000 C 
ATOM      2  C   UNL     1      -0.636  12.898  19.511  0.00  0.00    +0.000 C 
ATOM      3  N   UNL     1       0.186  12.123  20.473  0.00  0.00    +0.000 N 
ATOM      4  C   UNL     1       0.751  10.927  20.124  0.00  0.00    +0.000 A 
ATOM      5  N   UNL     1       0.956   9.926  20.959  0.00  0.00    +0.000 NA
ATOM      6  C   UNL     1       1.406   8.798  20.301  0.00  0.00    +0.000 A 
ATOM      7  C   UNL     1       1.601   7.522  20.872  0.00  0.00    +0.000 A 
ATOM      8  C   UNL     1       2.073   6.467  20.078  0.00  0.00    +0.000 A 
ATOM      9  C   UNL     1       2.353   6.679  18.733  0.00  0.00    +0.000 A 
ATOM     10 CL   UNL     1       2.937   5.372  17.772  0.00  0.00    +0.000 Cl
ATOM     11  C   UNL     1       2.167   7.928  18.141  0.00  0.00    +0.000 A 
ATOM     12  C   UNL     1       1.684   8.972  18.949  0.00  0.00    +0.000 A 
ATOM     13  S   UNL     1       1.334  10.595  18.519  0.00  0.00    +0.000 S 
ATOM     14  C   UNL     1      -0.112  12.365  21.893  0.00  0.00    +0.000 C 
ATOM     15  C   UNL     1      -1.574  12.531  22.141  0.00  0.00    +0.000 A 
ATOM     16  N   UNL     1      -2.190  12.451  23.357  0.00  0.00    +0.000 N 
ATOM     17  C   UNL     1      -3.552  12.611  23.203  0.00  0.00    +0.000 A 
ATOM     18  C   UNL     1      -4.576  12.574  24.159  0.00  0.00    +0.000 A 
ATOM     19  C   UNL     1      -5.890  12.738  23.708  0.00  0.00    +0.000 A 
ATOM     20  C   UNL     1      -6.159  12.938  22.357  0.00  0.00    +0.000 A 
ATOM     21 CL   UNL     1      -7.791  13.125  21.834  0.00  0.00    +0.000 Cl
ATOM     22  C   UNL     1      -5.130  12.981  21.412  0.00  0.00    +0.000 A 
ATOM     23  C   UNL     1      -3.799  12.807  21.840  0.00  0.00    +0.000 A 
ATOM     24  C   UNL     1      -2.540  12.739  21.178  0.00  0.00    +0.000 A 
ATOM     25  H   UNL     1      -1.730  12.264  24.239  0.00  0.00    +0.000 HD
ENDROOT
BRANCH   1  26
ATOM     26  C   UNL     1      -2.835  11.630  18.908  0.00  0.00    +0.000 C 
BRANCH  26  27
ATOM     27  S   UNL     1      -2.197  11.474  17.210  0.00  0.00    +0.000 S 
BRANCH  27  28
ATOM     28  C   UNL     1      -3.574  10.622  16.402  0.00  0.00    +0.000 C 
BRANCH  28  29
ATOM     29  C   UNL     1      -3.115  10.271  14.983  0.00  0.00    +0.000 C 
BRANCH  29  30
ATOM     30  N   UNL     1      -4.238   9.908  14.117  0.00  0.00    +0.000 NA
ATOM     31  H   UNL     1      -5.006  10.555  14.302  0.00  0.00    +0.000 HD
ATOM     32  H   UNL     1      -4.579   8.984  14.373  0.00  0.00    +0.000 HD
ENDBRANCH  29  30
ENDBRANCH  28  29
ENDBRANCH  27  28
ENDBRANCH  26  27
ENDBRANCH   1  26
TORSDOF 5
ENDMDL
MODEL 4
REMARK VINA RESULT:      -7.3      1.425      1.432
REMARK  Name = 
REMARK  5 active torsions:
REMARK  status: ('A' for Active; 'I' for Inactive)
REMARK    1  A    between atoms: N_1  and  C_2
REMARK    2  A    between atoms: C_2  and  C_3
REMARK    3  A    between atoms: C_3  and  S_4
REMARK    4  A    between atoms: S_4  and  C_5
REMARK    5  A    between atoms: C_5  and  C_6
REMARK                            x       y       z     vdW  Elec       q    Type
REMARK                         _______ _______ _______ _____ _____    ______ ____
ROOT
ATOM      1  C   UNL     1      -0.963  11.669  18.836  0.00  0.00    +0.000 C 
ATOM      2  C   UNL     1       0.581  11.459  18.636  0.00  0.00    +0.000 C 
ATOM      3  N   UNL     1       1.252  10.674  19.702  0.00  0.00    +0.000 N 
ATOM      4  C   UNL     1       1.572   9.357  19.521  0.00  0.00    +0.000 A 
ATOM      5  N   UNL     1       1.592   8.455  20.484  0.00  0.00    +0.000 NA
ATOM      6  C   UNL     1       1.809   7.184  19.987  0.00  0.00    +0.000 A 
ATOM      7  C   UNL     1       1.763   5.982  20.724  0.00  0.00    +0.000 A 
ATOM      8  C   UNL     1       2.013   4.760  20.082  0.00  0.00    +0.000 A 
ATOM      9  C   UNL     1       2.312   4.735  18.725  0.00  0.00    +0.000 A 
ATOM     10 CL   UNL     1       2.621   3.225  17.953  0.00  0.00    +0.000 Cl
ATOM     11  C   UNL     1       2.361   5.907  17.971  0.00  0.00    +0.000 A 
ATOM     12  C   UNL     1       2.097   7.122  18.627  0.00  0.00    +0.000 A 
ATOM     13  S   UNL     1       2.059   8.710  17.982  0.00  0.00    +0.000 S 
ATOM     14  C   UNL     1       1.025  11.155  21.073  0.00  0.00    +0.000 C 
ATOM     15  C   UNL     1      -0.376  11.630  21.279  0.00  0.00    +0.000 A 
ATOM     16  N   UNL     1      -0.979  11.830  22.487  0.00  0.00    +0.000 N 
ATOM     17  C   UNL     1      -2.287  12.227  22.296  0.00  0.00    +0.000 A 
ATOM     18  C   UNL     1      -3.287  12.514  23.236  0.00  0.00    +0.000 A 
ATOM     19  C   UNL     1      -4.550  12.866  22.751  0.00  0.00    +0.000 A 
ATOM     20  C   UNL     1      -4.794  12.933  21.382  0.00  0.00    +0.000 A 
ATOM     21 CL   UNL     1      -6.367  13.359  20.819  0.00  0.00    +0.000 Cl
ATOM     22  C   UNL     1      -3.788  12.653  20.452  0.00  0.00    +0.000 A 
ATOM     23  C   UNL     1      -2.510  12.285  20.917  0.00  0.00    +0.000 A 
ATOM     24  C   UNL     1      -1.296  11.890  20.285  0.00  0.00    +0.000 A 
ATOM     25  H   UNL     1      -0.552  11.678  23.392  0.00  0.00    +0.000 HD
ENDROOT
BRANCH   1  26
ATOM     26  C   UNL     1      -1.828  10.568  18.178  0.00  0.00    +0.000 C 
BRANCH  26  27
ATOM     27  S   UNL     1      -2.815  11.151  16.765  0.00  0.00    +0.000 S 
BRANCH  27  28
ATOM     28  C   UNL     1      -4.491  10.779  17.337  0.00  0.00    +0.000 C 
BRANCH  28  29
ATOM     29  C   UNL     1      -5.337  12.035  17.099  0.00  0.00    +0.000 C 
BRANCH  29  30
ATOM     30  N   UNL     1      -6.738  11.831  17.470  0.00  0.00    +0.000 NA
ATOM     31  H   UNL     1      -6.772  11.142  18.222  0.00  0.00    +0.000 HD
ATOM     32  H   UNL     1      -7.240  11.418  16.687  0.00  0.00    +0.000 HD
ENDBRANCH  29  30
ENDBRANCH  28  29
ENDBRANCH  27  28
ENDBRANCH  26  27
ENDBRANCH   1  26
TORSDOF 5
ENDMDL
MODEL 5
REMARK VINA RESULT:      -7.3      1.711      1.918
REMARK  Name = 
REMARK  5 active torsions:
REMARK  status: ('A' for Active; 'I' for Inactive)
REMARK    1  A    between atoms: N_1  and  C_2
REMARK    2  A    between atoms: C_2  and  C_3
REMARK    3  A    between atoms: C_3  and  S_4
REMARK    4  A    between atoms: S_4  and  C_5
REMARK    5  A    between atoms: C_5  and  C_6
REMARK                            x       y       z     vdW  Elec       q    Type
REMARK                         _______ _______ _______ _____ _____    ______ ____
ROOT
ATOM      1  C   UNL     1      -2.027  12.502  19.427  0.00  0.00    +0.000 C 
ATOM      2  C   UNL     1      -0.482  12.576  19.151  0.00  0.00    +0.000 C 
ATOM      3  N   UNL     1       0.367  11.857  20.133  0.00  0.00    +0.000 N 
ATOM      4  C   UNL     1       0.898  10.628  19.850  0.00  0.00    +0.000 A 
ATOM      5  N   UNL     1       1.122   9.687  20.747  0.00  0.00    +0.000 NA
ATOM      6  C   UNL     1       1.526   8.506  20.156  0.00  0.00    +0.000 A 
ATOM      7  C   UNL     1       1.725   7.271  20.811  0.00  0.00    +0.000 A 
ATOM      8  C   UNL     1       2.146   6.153  20.078  0.00  0.00    +0.000 A 
ATOM      9  C   UNL     1       2.374   6.262  18.710  0.00  0.00    +0.000 A 
ATOM     10 CL   UNL     1       2.896   4.878  17.826  0.00  0.00    +0.000 Cl
ATOM     11  C   UNL     1       2.183   7.467  18.037  0.00  0.00    +0.000 A 
ATOM     12  C   UNL     1       1.750   8.576  18.785  0.00  0.00    +0.000 A 
ATOM     13  S   UNL     1       1.408  10.170  18.251  0.00  0.00    +0.000 S 
ATOM     14  C   UNL     1       0.132  12.207  21.542  0.00  0.00    +0.000 C 
ATOM     15  C   UNL     1      -1.316  12.418  21.836  0.00  0.00    +0.000 A 
ATOM     16  N   UNL     1      -1.881  12.437  23.079  0.00  0.00    +0.000 N 
ATOM     17  C   UNL     1      -3.247  12.611  22.968  0.00  0.00    +0.000 A 
ATOM     18  C   UNL     1      -4.231  12.663  23.965  0.00  0.00    +0.000 A 
ATOM     19  C   UNL     1      -5.559  12.819  23.557  0.00  0.00    +0.000 A 
ATOM     20  C   UNL     1      -5.881  12.925  22.207  0.00  0.00    +0.000 A 
ATOM     21 CL   UNL     1      -7.530  13.105  21.738  0.00  0.00    +0.000 Cl
ATOM     22  C   UNL     1      -4.892  12.881  21.220  0.00  0.00    +0.000 A 
ATOM     23  C   UNL     1      -3.547  12.713  21.606  0.00  0.00    +0.000 A 
ATOM     24  C   UNL     1      -2.318  12.573  20.900  0.00  0.00    +0.000 A 
ATOM     25  H   UNL     1      -1.389  12.307  23.953  0.00  0.00    +0.000 HD
ENDROOT
BRANCH   1  26
ATOM     26  C   UNL     1      -2.724  11.308  18.732  0.00  0.00    +0.000 C 
BRANCH  26  27
ATOM     27  S   UNL     1      -2.441  11.234  16.935  0.00  0.00    +0.000 S 
BRANCH  27  28
ATOM     28  C   UNL     1      -4.141  11.147  16.321  0.00  0.00    +0.000 C 
BRANCH  28  29
ATOM     29  C   UNL     1      -5.009  11.965  17.284  0.00  0.00    +0.000 C 
BRANCH  29  30
ATOM     30  N   UNL     1      -6.247  11.267  17.633  0.00  0.00    +0.000 NA
ATOM     31  H   UNL     1      -6.034  10.276  17.749  0.00  0.00    +0.000 HD
ATOM     32  H   UNL     1      -6.901  11.326  16.854  0.00  0.00    +0.000 HD
ENDBRANCH  29  30
ENDBRANCH  28  29
ENDBRANCH  27  28
ENDBRANCH  26  27
ENDBRANCH   1  26
TORSDOF 5
ENDMDL
MODEL 6
REMARK VINA RESULT:      -6.7      2.294      8.138
REMARK  Name = 
REMARK  5 active torsions:
REMARK  status: ('A' for Active; 'I' for Inactive)
REMARK    1  A    between atoms: N_1  and  C_2
REMARK    2  A    between atoms: C_2  and  C_3
REMARK    3  A    between atoms: C_3  and  S_4
REMARK    4  A    between atoms: S_4  and  C_5
REMARK    5  A    between atoms: C_5  and  C_6
REMARK                            x       y       z     vdW  Elec       q    Type
REMARK                         _______ _______ _______ _____ _____    ______ ____
ROOT
ATOM      1  C   UNL     1       1.307   8.595  20.796  0.00  0.00    +0.000 C 
ATOM      2  C   UNL     1       1.307  10.074  20.266  0.00  0.00    +0.000 C 
ATOM      3  N   UNL     1       0.958  10.227  18.831  0.00  0.00    +0.000 N 
ATOM      4  C   UNL     1      -0.289  10.634  18.442  0.00  0.00    +0.000 A 
ATOM      5  N   UNL     1      -0.884  10.253  17.327  0.00  0.00    +0.000 NA
ATOM      6  C   UNL     1      -2.188  10.705  17.266  0.00  0.00    +0.000 A 
ATOM      7  C   UNL     1      -3.139  10.374  16.278  0.00  0.00    +0.000 A 
ATOM      8  C   UNL     1      -4.430  10.918  16.342  0.00  0.00    +0.000 A 
ATOM      9  C   UNL     1      -4.769  11.787  17.374  0.00  0.00    +0.000 A 
ATOM     10 CL   UNL     1      -6.358  12.451  17.434  0.00  0.00    +0.000 Cl
ATOM     11  C   UNL     1      -3.850  12.129  18.365  0.00  0.00    +0.000 A 
ATOM     12  C   UNL     1      -2.564  11.567  18.292  0.00  0.00    +0.000 A 
ATOM     13  S   UNL     1      -1.235  11.771  19.357  0.00  0.00    +0.000 S 
ATOM     14  C   UNL     1       1.745   9.403  17.901  0.00  0.00    +0.000 C 
ATOM     15  C   UNL     1       2.021   8.042  18.451  0.00  0.00    +0.000 A 
ATOM     16  N   UNL     1       2.436   6.961  17.728  0.00  0.00    +0.000 N 
ATOM     17  C   UNL     1       2.547   5.861  18.554  0.00  0.00    +0.000 A 
ATOM     18  C   UNL     1       2.908   4.541  18.252  0.00  0.00    +0.000 A 
ATOM     19  C   UNL     1       2.905   3.613  19.298  0.00  0.00    +0.000 A 
ATOM     20  C   UNL     1       2.562   3.998  20.590  0.00  0.00    +0.000 A 
ATOM     21 CL   UNL     1       2.558   2.825  21.854  0.00  0.00    +0.000 Cl
ATOM     22  C   UNL     1       2.212   5.319  20.884  0.00  0.00    +0.000 A 
ATOM     23  C   UNL     1       2.196   6.270  19.845  0.00  0.00    +0.000 A 
ATOM     24  C   UNL     1       1.851   7.649  19.762  0.00  0.00    +0.000 A 
ATOM     25  H   UNL     1       2.604   6.948  16.730  0.00  0.00    +0.000 HD
ENDROOT
BRANCH   1  26
ATOM     26  C   UNL     1      -0.056   8.144  21.371  0.00  0.00    +0.000 C 
BRANCH  26  27
ATOM     27  S   UNL     1      -0.450   8.870  22.993  0.00  0.00    +0.000 S 
BRANCH  27  28
ATOM     28  C   UNL     1      -0.425  10.636  22.595  0.00  0.00    +0.000 C 
BRANCH  28  29
ATOM     29  C   UNL     1      -1.654  11.264  23.261  0.00  0.00    +0.000 C 
BRANCH  29  30
ATOM     30  N   UNL     1      -1.665  12.721  23.126  0.00  0.00    +0.000 NA
ATOM     31  H   UNL     1      -1.016  13.110  23.812  0.00  0.00    +0.000 HD
ATOM     32  H   UNL     1      -2.585  13.078  23.375  0.00  0.00    +0.000 HD
ENDBRANCH  29  30
ENDBRANCH  28  29
ENDBRANCH  27  28
ENDBRANCH  26  27
ENDBRANCH   1  26
TORSDOF 5
ENDMDL
MODEL 7
REMARK VINA RESULT:      -6.5      4.227      7.095
REMARK  Name = 
REMARK  5 active torsions:
REMARK  status: ('A' for Active; 'I' for Inactive)
REMARK    1  A    between atoms: N_1  and  C_2
REMARK    2  A    between atoms: C_2  and  C_3
REMARK    3  A    between atoms: C_3  and  S_4
REMARK    4  A    between atoms: S_4  and  C_5
REMARK    5  A    between atoms: C_5  and  C_6
REMARK                            x       y       z     vdW  Elec       q    Type
REMARK                         _______ _______ _______ _____ _____    ______ ____
ROOT
ATOM      1  C   UNL     1      -1.440  12.246  20.792  0.00  0.00    +0.000 C 
ATOM      2  C   UNL     1       0.010  11.770  21.164  0.00  0.00    +0.000 C 
ATOM      3  N   UNL     1       0.976  11.757  20.037  0.00  0.00    +0.000 N 
ATOM      4  C   UNL     1       1.900  12.753  19.880  0.00  0.00    +0.000 A 
ATOM      5  N   UNL     1       2.355  13.172  18.715  0.00  0.00    +0.000 NA
ATOM      6  C   UNL     1       3.167  14.282  18.854  0.00  0.00    +0.000 A 
ATOM      7  C   UNL     1       3.712  15.052  17.805  0.00  0.00    +0.000 A 
ATOM      8  C   UNL     1       4.529  16.153  18.100  0.00  0.00    +0.000 A 
ATOM      9  C   UNL     1       4.806  16.480  19.423  0.00  0.00    +0.000 A 
ATOM     10 CL   UNL     1       5.816  17.833  19.767  0.00  0.00    +0.000 Cl
ATOM     11  C   UNL     1       4.278  15.738  20.479  0.00  0.00    +0.000 A 
ATOM     12  C   UNL     1       3.453  14.645  20.166  0.00  0.00    +0.000 A 
ATOM     13  S   UNL     1       2.645  13.565  21.226  0.00  0.00    +0.000 S 
ATOM     14  C   UNL     1       0.538  11.017  18.843  0.00  0.00    +0.000 C 
ATOM     15  C   UNL     1      -0.916  11.206  18.565  0.00  0.00    +0.000 A 
ATOM     16  N   UNL     1      -1.544  10.925  17.386  0.00  0.00    +0.000 N 
ATOM     17  C   UNL     1      -2.879  11.266  17.474  0.00  0.00    +0.000 A 
ATOM     18  C   UNL     1      -3.894  11.185  16.511  0.00  0.00    +0.000 A 
ATOM     19  C   UNL     1      -5.167  11.638  16.872  0.00  0.00    +0.000 A 
ATOM     20  C   UNL     1      -5.408  12.143  18.146  0.00  0.00    +0.000 A 
ATOM     21 CL   UNL     1      -6.986  12.704  18.554  0.00  0.00    +0.000 Cl
ATOM     22  C   UNL     1      -4.391  12.213  19.103  0.00  0.00    +0.000 A 
ATOM     23  C   UNL     1      -3.097  11.772  18.759  0.00  0.00    +0.000 A 
ATOM     24  C   UNL     1      -1.843  11.744  19.434  0.00  0.00    +0.000 A 
ATOM     25  H   UNL     1      -1.100  10.557  16.555  0.00  0.00    +0.000 HD
ENDROOT
BRANCH   1  26
ATOM     26  C   UNL     1      -1.655  13.768  20.962  0.00  0.00    +0.000 C 
BRANCH  26  27
ATOM     27  S   UNL     1      -3.071  14.200  22.020  0.00  0.00    +0.000 S 
BRANCH  27  28
ATOM     28  C   UNL     1      -3.280  12.667  22.959  0.00  0.00    +0.000 C 
BRANCH  28  29
ATOM     29  C   UNL     1      -4.253  12.969  24.103  0.00  0.00    +0.000 C 
BRANCH  29  30
ATOM     30  N   UNL     1      -4.682  11.753  24.794  0.00  0.00    +0.000 NA
ATOM     31  H   UNL     1      -5.639  11.891  25.120  0.00  0.00    +0.000 HD
ATOM     32  H   UNL     1      -4.116  11.620  25.630  0.00  0.00    +0.000 HD
ENDBRANCH  29  30
ENDBRANCH  28  29
ENDBRANCH  27  28
ENDBRANCH  26  27
ENDBRANCH   1  26
TORSDOF 5
ENDMDL
MODEL 8
REMARK VINA RESULT:      -6.3      7.124     10.971
REMARK  Name = 
REMARK  5 active torsions:
REMARK  status: ('A' for Active; 'I' for Inactive)
REMARK    1  A    between atoms: N_1  and  C_2
REMARK    2  A    between atoms: C_2  and  C_3
REMARK    3  A    between atoms: C_3  and  S_4
REMARK    4  A    between atoms: S_4  and  C_5
REMARK    5  A    between atoms: C_5  and  C_6
REMARK                            x       y       z     vdW  Elec       q    Type
REMARK                         _______ _______ _______ _____ _____    ______ ____
ROOT
ATOM      1  C   UNL     1       7.248  14.865  21.007  0.00  0.00    +0.000 C 
ATOM      2  C   UNL     1       6.033  15.850  20.863  0.00  0.00    +0.000 C 
ATOM      3  N   UNL     1       5.117  15.557  19.732  0.00  0.00    +0.000 N 
ATOM      4  C   UNL     1       3.919  14.928  19.932  0.00  0.00    +0.000 A 
ATOM      5  N   UNL     1       3.345  14.120  19.060  0.00  0.00    +0.000 NA
ATOM      6  C   UNL     1       2.219  13.519  19.587  0.00  0.00    +0.000 A 
ATOM      7  C   UNL     1       1.447  12.511  18.971  0.00  0.00    +0.000 A 
ATOM      8  C   UNL     1       0.319  11.997  19.628  0.00  0.00    +0.000 A 
ATOM      9  C   UNL     1      -0.041  12.485  20.879  0.00  0.00    +0.000 A 
ATOM     10 CL   UNL     1      -1.434  11.846  21.669  0.00  0.00    +0.000 Cl
ATOM     11  C   UNL     1       0.704  13.478  21.512  0.00  0.00    +0.000 A 
ATOM     12  C   UNL     1       1.838  13.975  20.846  0.00  0.00    +0.000 A 
ATOM     13  S   UNL     1       2.958  15.166  21.363  0.00  0.00    +0.000 S 
ATOM     14  C   UNL     1       5.763  15.425  18.418  0.00  0.00    +0.000 C 
ATOM     15  C   UNL     1       7.076  14.719  18.504  0.00  0.00    +0.000 A 
ATOM     16  N   UNL     1       7.754  14.169  17.455  0.00  0.00    +0.000 N 
ATOM     17  C   UNL     1       8.907  13.561  17.911  0.00  0.00    +0.000 A 
ATOM     18  C   UNL     1       9.888  12.850  17.207  0.00  0.00    +0.000 A 
ATOM     19  C   UNL     1      10.947  12.308  17.941  0.00  0.00    +0.000 A 
ATOM     20  C   UNL     1      11.019  12.480  19.321  0.00  0.00    +0.000 A 
ATOM     21 CL   UNL     1      12.333  11.788  20.197  0.00  0.00    +0.000 Cl
ATOM     22  C   UNL     1      10.040  13.198  20.013  0.00  0.00    +0.000 A 
ATOM     23  C   UNL     1       8.957  13.745  19.297  0.00  0.00    +0.000 A 
ATOM     24  C   UNL     1       7.784  14.466  19.661  0.00  0.00    +0.000 A 
ATOM     25  H   UNL     1       7.448  14.168  16.491  0.00  0.00    +0.000 HD
ENDROOT
BRANCH   1  26
ATOM     26  C   UNL     1       6.958  13.655  21.926  0.00  0.00    +0.000 C 
BRANCH  26  27
ATOM     27  S   UNL     1       8.159  13.451  23.278  0.00  0.00    +0.000 S 
BRANCH  27  28
ATOM     28  C   UNL     1       7.881  11.721  23.729  0.00  0.00    +0.000 C 
BRANCH  28  29
ATOM     29  C   UNL     1       6.959  11.717  24.952  0.00  0.00    +0.000 C 
BRANCH  29  30
ATOM     30  N   UNL     1       5.606  11.269  24.618  0.00  0.00    +0.000 NA
ATOM     31  H   UNL     1       5.679  10.519  23.931  0.00  0.00    +0.000 HD
ATOM     32  H   UNL     1       5.102  12.025  24.159  0.00  0.00    +0.000 HD
ENDBRANCH  29  30
ENDBRANCH  28  29
ENDBRANCH  27  28
ENDBRANCH  26  27
ENDBRANCH   1  26
TORSDOF 5
ENDMDL
MODEL 9
REMARK VINA RESULT:      -6.2      1.371      1.595
REMARK  Name = 
REMARK  5 active torsions:
REMARK  status: ('A' for Active; 'I' for Inactive)
REMARK    1  A    between atoms: N_1  and  C_2
REMARK    2  A    between atoms: C_2  and  C_3
REMARK    3  A    between atoms: C_3  and  S_4
REMARK    4  A    between atoms: S_4  and  C_5
REMARK    5  A    between atoms: C_5  and  C_6
REMARK                            x       y       z     vdW  Elec       q    Type
REMARK                         _______ _______ _______ _____ _____    ______ ____
ROOT
ATOM      1  C   UNL     1      -1.375  12.908  18.837  0.00  0.00    +0.000 C 
ATOM      2  C   UNL     1       0.187  12.868  18.994  0.00  0.00    +0.000 C 
ATOM      3  N   UNL     1       0.689  11.954  20.051  0.00  0.00    +0.000 N 
ATOM      4  C   UNL     1       1.205  10.726  19.743  0.00  0.00    +0.000 A 
ATOM      5  N   UNL     1       1.118   9.663  20.520  0.00  0.00    +0.000 NA
ATOM      6  C   UNL     1       1.600   8.531  19.893  0.00  0.00    +0.000 A 
ATOM      7  C   UNL     1       1.539   7.212  20.390  0.00  0.00    +0.000 A 
ATOM      8  C   UNL     1       2.080   6.158  19.640  0.00  0.00    +0.000 A 
ATOM      9  C   UNL     1       2.682   6.414  18.413  0.00  0.00    +0.000 A 
ATOM     10 CL   UNL     1       3.348   5.107  17.507  0.00  0.00    +0.000 Cl
ATOM     11  C   UNL     1       2.755   7.706  17.896  0.00  0.00    +0.000 A 
ATOM     12  C   UNL     1       2.198   8.750  18.655  0.00  0.00    +0.000 A 
ATOM     13  S   UNL     1       2.109  10.423  18.288  0.00  0.00    +0.000 S 
ATOM     14  C   UNL     1       0.096  12.148  21.383  0.00  0.00    +0.000 C 
ATOM     15  C   UNL     1      -1.363  12.458  21.310  0.00  0.00    +0.000 A 
ATOM     16  N   UNL     1      -2.247  12.377  22.347  0.00  0.00    +0.000 N 
ATOM     17  C   UNL     1      -3.516  12.692  21.905  0.00  0.00    +0.000 A 
ATOM     18  C   UNL     1      -4.732  12.714  22.601  0.00  0.00    +0.000 A 
ATOM     19  C   UNL     1      -5.885  13.046  21.882  0.00  0.00    +0.000 A 
ATOM     20  C   UNL     1      -5.815  13.349  20.526  0.00  0.00    +0.000 A 
ATOM     21 CL   UNL     1      -7.257  13.742  19.667  0.00  0.00    +0.000 Cl
ATOM     22  C   UNL     1      -4.596  13.333  19.841  0.00  0.00    +0.000 A 
ATOM     23  C   UNL     1      -3.422  12.991  20.542  0.00  0.00    +0.000 A 
ATOM     24  C   UNL     1      -2.056  12.823  20.175  0.00  0.00    +0.000 A 
ATOM     25  H   UNL     1      -2.023  12.092  23.291  0.00  0.00    +0.000 HD
ENDROOT
BRANCH   1  26
ATOM     26  C   UNL     1      -1.921  11.882  17.815  0.00  0.00    +0.000 C 
BRANCH  26  27
ATOM     27  S   UNL     1      -2.156  10.212  18.500  0.00  0.00    +0.000 S 
BRANCH  27  28
ATOM     28  C   UNL     1      -3.464   9.578  17.422  0.00  0.00    +0.000 C 
BRANCH  28  29
ATOM     29  C   UNL     1      -3.655  10.602  16.297  0.00  0.00    +0.000 C 
BRANCH  29  30
ATOM     30  N   UNL     1      -3.219  10.081  15.001  0.00  0.00    +0.000 NA
ATOM     31  H   UNL     1      -4.027  10.058  14.378  0.00  0.00    +0.000 HD
ATOM     32  H   UNL     1      -2.917   9.114  15.108  0.00  0.00    +0.000 HD
ENDBRANCH  29  30
ENDBRANCH  28  29
ENDBRANCH  27  28
ENDBRANCH  26  27
ENDBRANCH   1  26
TORSDOF 5
ENDMDL
