MODEL 1
REMARK VINA RESULT:      -8.0      0.000      0.000
REMARK  Name = 
REMARK  9 active torsions:
REMARK  status: ('A' for Active; 'I' for Inactive)
REMARK    1  A    between atoms: C_1  and  C_2
REMARK    2  A    between atoms: C_2  and  C_3
REMARK    3  A    between atoms: C_3  and  C_4
REMARK    4  A    between atoms: C_3  and  N_7
REMARK    5  A    between atoms: C_4  and  C_5
REMARK    6  A    between atoms: C_10  and  N_11
REMARK    7  A    between atoms: N_11  and  C_12
REMARK    8  A    between atoms: N_11  and  C_22
REMARK    9  A    between atoms: C_15  and  C_16
REMARK                            x       y       z     vdW  Elec       q    Type
REMARK                         _______ _______ _______ _____ _____    ______ ____
ROOT
ATOM      1  N   UNL     1       4.507   5.702  18.581  0.00  0.00    +0.000 N 
ENDROOT
BRANCH   1   5
ATOM      2  N   UNL     1       6.872   5.028  15.639  0.00  0.00    +0.000 NA
ATOM      3  C   UNL     1       6.014   6.208  15.805  0.00  0.00    +0.000 C 
ATOM      4  C   UNL     1       6.244   6.919  17.134  0.00  0.00    +0.000 C 
ATOM      5  C   UNL     1       5.988   5.997  18.343  0.00  0.00    +0.000 C 
ATOM      6  C   UNL     1       6.969   4.824  18.125  0.00  0.00    +0.000 C 
ATOM      7  C   UNL     1       6.779   4.112  16.786  0.00  0.00    +0.000 C 
BRANCH   2   8
ATOM      8  C   UNL     1       6.606   4.321  14.354  0.00  0.00    +0.000 C 
BRANCH   8   9
ATOM      9  C   UNL     1       7.526   4.914  13.266  0.00  0.00    +0.000 C 
ATOM     10  C   UNL     1       7.450   4.294  11.891  0.00  0.00    +0.000 C 
ATOM     11  O   UNL     1       8.337   5.814  13.488  0.00  0.00    +0.000 OA
ENDBRANCH   8   9
BRANCH   8  13
ATOM     12  C   UNL     1       4.904   3.534  12.605  0.00  0.00    +0.000 C 
ATOM     13  C   UNL     1       5.129   4.322  13.890  0.00  0.00    +0.000 C 
ENDBRANCH   8  13
ENDBRANCH   2   8
ENDBRANCH   1   5
BRANCH   1  14
ATOM     14  C   UNL     1       3.561   6.759  18.636  0.00  0.00    +0.000 A 
ATOM     15  C   UNL     1       3.302   7.604  17.555  0.00  0.00    +0.000 A 
ATOM     16  C   UNL     1       2.354   8.633  17.621  0.00  0.00    +0.000 A 
ATOM     17  C   UNL     1       1.529   8.776  18.739  0.00  0.00    +0.000 A 
ATOM     18  C   UNL     1       1.716   7.895  19.812  0.00  0.00    +0.000 A 
ATOM     19  C   UNL     1       2.735   6.929  19.775  0.00  0.00    +0.000 A 
BRANCH  17  20
ATOM     20  C   UNL     1       0.419   9.800  18.745  0.00  0.00    +0.000 C 
ATOM     21  F   UNL     1      -0.438   9.658  19.797  0.00  0.00    +0.000 F 
ATOM     22  F   UNL     1       0.888  11.075  18.822  0.00  0.00    +0.000 F 
ATOM     23  F   UNL     1      -0.357   9.751  17.628  0.00  0.00    +0.000 F 
ENDBRANCH  17  20
ENDBRANCH   1  14
BRANCH   1  24
ATOM     24  C   UNL     1       4.091   4.328  18.494  0.00  0.00    +0.000 A 
ATOM     25  C   UNL     1       3.361   3.850  17.387  0.00  0.00    +0.000 A 
ATOM     26  C   UNL     1       2.897   2.532  17.311  0.00  0.00    +0.000 A 
ATOM     27  C   UNL     1       3.180   1.678  18.354  0.00  0.00    +0.000 A 
ATOM     28  N   UNL     1       3.910   2.045  19.419  0.00  0.00    +0.000 NA
ATOM     29  C   UNL     1       4.351   3.336  19.446  0.00  0.00    +0.000 A 
ENDBRANCH   1  24
TORSDOF 7
ENDMDL
MODEL 2
REMARK VINA RESULT:      -7.7      0.568      1.162
REMARK  Name = 
REMARK  9 active torsions:
REMARK  status: ('A' for Active; 'I' for Inactive)
REMARK    1  A    between atoms: C_1  and  C_2
REMARK    2  A    between atoms: C_2  and  C_3
REMARK    3  A    between atoms: C_3  and  C_4
REMARK    4  A    between atoms: C_3  and  N_7
REMARK    5  A    between atoms: C_4  and  C_5
REMARK    6  A    between atoms: C_10  and  N_11
REMARK    7  A    between atoms: N_11  and  C_12
REMARK    8  A    between atoms: N_11  and  C_22
REMARK    9  A    between atoms: C_15  and  C_16
REMARK                            x       y       z     vdW  Elec       q    Type
REMARK                         _______ _______ _______ _____ _____    ______ ____
ROOT
ATOM      1  N   UNL     1       4.430   5.807  18.585  0.00  0.00    +0.000 N 
ENDROOT
BRANCH   1   5
ATOM      2  N   UNL     1       6.940   5.171  15.757  0.00  0.00    +0.000 NA
ATOM      3  C   UNL     1       6.080   6.352  15.899  0.00  0.00    +0.000 C 
ATOM      4  C   UNL     1       6.245   7.039  17.250  0.00  0.00    +0.000 C 
ATOM      5  C   UNL     1       5.923   6.098  18.429  0.00  0.00    +0.000 C 
ATOM      6  C   UNL     1       6.908   4.924  18.240  0.00  0.00    +0.000 C 
ATOM      7  C   UNL     1       6.784   4.236  16.881  0.00  0.00    +0.000 C 
BRANCH   2   8
ATOM      8  C   UNL     1       6.737   4.488  14.447  0.00  0.00    +0.000 C 
BRANCH   8   9
ATOM      9  C   UNL     1       7.686   5.122  13.409  0.00  0.00    +0.000 C 
ATOM     10  C   UNL     1       7.473   4.742  11.963  0.00  0.00    +0.000 C 
ATOM     11  O   UNL     1       8.619   5.865  13.715  0.00  0.00    +0.000 OA
ENDBRANCH   8   9
BRANCH   8  13
ATOM     12  C   UNL     1       5.020   3.370  12.906  0.00  0.00    +0.000 C 
ATOM     13  C   UNL     1       5.279   4.471  13.928  0.00  0.00    +0.000 C 
ENDBRANCH   8  13
ENDBRANCH   2   8
ENDBRANCH   1   5
BRANCH   1  14
ATOM     14  C   UNL     1       3.489   6.867  18.631  0.00  0.00    +0.000 A 
ATOM     15  C   UNL     1       3.275   7.740  17.562  0.00  0.00    +0.000 A 
ATOM     16  C   UNL     1       2.332   8.773  17.617  0.00  0.00    +0.000 A 
ATOM     17  C   UNL     1       1.467   8.896  18.708  0.00  0.00    +0.000 A 
ATOM     18  C   UNL     1       1.610   7.989  19.765  0.00  0.00    +0.000 A 
ATOM     19  C   UNL     1       2.624   7.016  19.743  0.00  0.00    +0.000 A 
BRANCH  17  20
ATOM     20  C   UNL     1       0.364   9.926  18.697  0.00  0.00    +0.000 C 
ATOM     21  F   UNL     1       0.820  11.203  18.541  0.00  0.00    +0.000 F 
ATOM     22  F   UNL     1      -0.523   9.727  17.683  0.00  0.00    +0.000 F 
ATOM     23  F   UNL     1      -0.370   9.934  19.843  0.00  0.00    +0.000 F 
ENDBRANCH  17  20
ENDBRANCH   1  14
BRANCH   1  24
ATOM     24  C   UNL     1       4.011   4.439  18.433  0.00  0.00    +0.000 A 
ATOM     25  C   UNL     1       4.222   3.487  19.451  0.00  0.00    +0.000 A 
ATOM     26  C   UNL     1       3.875   2.141  19.300  0.00  0.00    +0.000 A 
ATOM     27  C   UNL     1       3.294   1.745  18.115  0.00  0.00    +0.000 A 
ATOM     28  N   UNL     1       3.017   2.600  17.118  0.00  0.00    +0.000 NA
ATOM     29  C   UNL     1       3.364   3.905  17.313  0.00  0.00    +0.000 A 
ENDBRANCH   1  24
TORSDOF 7
ENDMDL
MODEL 3
REMARK VINA RESULT:      -7.6      0.733      1.364
REMARK  Name = 
REMARK  9 active torsions:
REMARK  status: ('A' for Active; 'I' for Inactive)
REMARK    1  A    between atoms: C_1  and  C_2
REMARK    2  A    between atoms: C_2  and  C_3
REMARK    3  A    between atoms: C_3  and  C_4
REMARK    4  A    between atoms: C_3  and  N_7
REMARK    5  A    between atoms: C_4  and  C_5
REMARK    6  A    between atoms: C_10  and  N_11
REMARK    7  A    between atoms: N_11  and  C_12
REMARK    8  A    between atoms: N_11  and  C_22
REMARK    9  A    between atoms: C_15  and  C_16
REMARK                            x       y       z     vdW  Elec       q    Type
REMARK                         _______ _______ _______ _____ _____    ______ ____
ROOT
ATOM      1  N   UNL     1       4.503   5.648  18.327  0.00  0.00    +0.000 N 
ENDROOT
BRANCH   1   5
ATOM      2  N   UNL     1       6.549   4.827  15.190  0.00  0.00    +0.000 NA
ATOM      3  C   UNL     1       5.587   5.927  15.330  0.00  0.00    +0.000 C 
ATOM      4  C   UNL     1       5.895   6.827  16.521  0.00  0.00    +0.000 C 
ATOM      5  C   UNL     1       5.898   6.054  17.855  0.00  0.00    +0.000 C 
ATOM      6  C   UNL     1       6.974   4.965  17.645  0.00  0.00    +0.000 C 
ATOM      7  C   UNL     1       6.704   4.066  16.439  0.00  0.00    +0.000 C 
BRANCH   2   8
ATOM      8  C   UNL     1       6.210   3.932  14.046  0.00  0.00    +0.000 C 
BRANCH   8   9
ATOM      9  C   UNL     1       7.207   4.200  12.899  0.00  0.00    +0.000 C 
ATOM     10  C   UNL     1       8.031   5.463  12.988  0.00  0.00    +0.000 C 
ATOM     11  O   UNL     1       7.314   3.468  11.915  0.00  0.00    +0.000 OA
ENDBRANCH   8   9
BRANCH   8  13
ATOM     12  C   UNL     1       4.568   3.489  12.127  0.00  0.00    +0.000 C 
ATOM     13  C   UNL     1       4.749   4.025  13.542  0.00  0.00    +0.000 C 
ENDBRANCH   8  13
ENDBRANCH   2   8
ENDBRANCH   1   5
BRANCH   1  14
ATOM     14  C   UNL     1       3.488   6.624  18.504  0.00  0.00    +0.000 A 
ATOM     15  C   UNL     1       2.764   6.761  19.690  0.00  0.00    +0.000 A 
ATOM     16  C   UNL     1       1.777   7.740  19.855  0.00  0.00    +0.000 A 
ATOM     17  C   UNL     1       1.561   8.711  18.874  0.00  0.00    +0.000 A 
ATOM     18  C   UNL     1       2.324   8.643  17.701  0.00  0.00    +0.000 A 
ATOM     19  C   UNL     1       3.244   7.599  17.505  0.00  0.00    +0.000 A 
BRANCH  17  20
ATOM     20  C   UNL     1       0.591   9.843  19.118  0.00  0.00    +0.000 C 
ATOM     21  F   UNL     1       1.206  11.042  19.331  0.00  0.00    +0.000 F 
ATOM     22  F   UNL     1      -0.248  10.043  18.065  0.00  0.00    +0.000 F 
ATOM     23  F   UNL     1      -0.206   9.638  20.201  0.00  0.00    +0.000 F 
ENDBRANCH  17  20
ENDBRANCH   1  14
BRANCH   1  24
ATOM     24  C   UNL     1       4.199   4.242  18.338  0.00  0.00    +0.000 A 
ATOM     25  C   UNL     1       3.453   3.643  17.302  0.00  0.00    +0.000 A 
ATOM     26  C   UNL     1       3.097   2.290  17.323  0.00  0.00    +0.000 A 
ATOM     27  C   UNL     1       3.506   1.523  18.392  0.00  0.00    +0.000 A 
ATOM     28  N   UNL     1       4.259   2.009  19.392  0.00  0.00    +0.000 NA
ATOM     29  C   UNL     1       4.591   3.331  19.325  0.00  0.00    +0.000 A 
ENDBRANCH   1  24
TORSDOF 7
ENDMDL
MODEL 4
REMARK VINA RESULT:      -7.5      0.646      1.005
REMARK  Name = 
REMARK  9 active torsions:
REMARK  status: ('A' for Active; 'I' for Inactive)
REMARK    1  A    between atoms: C_1  and  C_2
REMARK    2  A    between atoms: C_2  and  C_3
REMARK    3  A    between atoms: C_3  and  C_4
REMARK    4  A    between atoms: C_3  and  N_7
REMARK    5  A    between atoms: C_4  and  C_5
REMARK    6  A    between atoms: C_10  and  N_11
REMARK    7  A    between atoms: N_11  and  C_12
REMARK    8  A    between atoms: N_11  and  C_22
REMARK    9  A    between atoms: C_15  and  C_16
REMARK                            x       y       z     vdW  Elec       q    Type
REMARK                         _______ _______ _______ _____ _____    ______ ____
ROOT
ATOM      1  N   UNL     1       4.572   5.707  18.363  0.00  0.00    +0.000 N 
ENDROOT
BRANCH   1   5
ATOM      2  N   UNL     1       6.667   4.843  15.270  0.00  0.00    +0.000 NA
ATOM      3  C   UNL     1       5.778   6.003  15.415  0.00  0.00    +0.000 C 
ATOM      4  C   UNL     1       6.105   6.842  16.645  0.00  0.00    +0.000 C 
ATOM      5  C   UNL     1       6.008   6.030  17.951  0.00  0.00    +0.000 C 
ATOM      6  C   UNL     1       7.013   4.876  17.742  0.00  0.00    +0.000 C 
ATOM      7  C   UNL     1       6.726   4.036  16.498  0.00  0.00    +0.000 C 
BRANCH   2   8
ATOM      8  C   UNL     1       6.309   4.010  14.087  0.00  0.00    +0.000 C 
BRANCH   8   9
ATOM      9  C   UNL     1       7.264   4.363  12.928  0.00  0.00    +0.000 C 
ATOM     10  C   UNL     1       8.135   5.585  13.106  0.00  0.00    +0.000 C 
ATOM     11  O   UNL     1       7.303   3.733  11.871  0.00  0.00    +0.000 OA
ENDBRANCH   8   9
BRANCH   8  13
ATOM     12  C   UNL     1       4.573   3.430  12.291  0.00  0.00    +0.000 C 
ATOM     13  C   UNL     1       4.831   4.103  13.634  0.00  0.00    +0.000 C 
ENDBRANCH   8  13
ENDBRANCH   2   8
ENDBRANCH   1   5
BRANCH   1  14
ATOM     14  C   UNL     1       3.618   6.745  18.528  0.00  0.00    +0.000 A 
ATOM     15  C   UNL     1       3.297   7.650  17.513  0.00  0.00    +0.000 A 
ATOM     16  C   UNL     1       2.342   8.659  17.687  0.00  0.00    +0.000 A 
ATOM     17  C   UNL     1       1.572   8.725  18.851  0.00  0.00    +0.000 A 
ATOM     18  C   UNL     1       1.822   7.784  19.858  0.00  0.00    +0.000 A 
ATOM     19  C   UNL     1       2.848   6.835  19.714  0.00  0.00    +0.000 A 
BRANCH  17  20
ATOM     20  C   UNL     1       0.452   9.730  18.972  0.00  0.00    +0.000 C 
ATOM     21  F   UNL     1      -0.339   9.791  17.861  0.00  0.00    +0.000 F 
ATOM     22  F   UNL     1      -0.388   9.450  20.006  0.00  0.00    +0.000 F 
ATOM     23  F   UNL     1       0.895  11.000  19.180  0.00  0.00    +0.000 F 
ENDBRANCH  17  20
ENDBRANCH   1  14
BRANCH   1  24
ATOM     24  C   UNL     1       4.176   4.325  18.329  0.00  0.00    +0.000 A 
ATOM     25  C   UNL     1       3.369   3.817  17.290  0.00  0.00    +0.000 A 
ATOM     26  C   UNL     1       2.925   2.491  17.269  0.00  0.00    +0.000 A 
ATOM     27  C   UNL     1       3.306   1.657  18.297  0.00  0.00    +0.000 A 
ATOM     28  N   UNL     1       4.111   2.053  19.295  0.00  0.00    +0.000 NA
ATOM     29  C   UNL     1       4.529   3.352  19.270  0.00  0.00    +0.000 A 
ENDBRANCH   1  24
TORSDOF 7
ENDMDL
MODEL 5
REMARK VINA RESULT:      -7.5      3.182      5.271
REMARK  Name = 
REMARK  9 active torsions:
REMARK  status: ('A' for Active; 'I' for Inactive)
REMARK    1  A    between atoms: C_1  and  C_2
REMARK    2  A    between atoms: C_2  and  C_3
REMARK    3  A    between atoms: C_3  and  C_4
REMARK    4  A    between atoms: C_3  and  N_7
REMARK    5  A    between atoms: C_4  and  C_5
REMARK    6  A    between atoms: C_10  and  N_11
REMARK    7  A    between atoms: N_11  and  C_12
REMARK    8  A    between atoms: N_11  and  C_22
REMARK    9  A    between atoms: C_15  and  C_16
REMARK                            x       y       z     vdW  Elec       q    Type
REMARK                         _______ _______ _______ _____ _____    ______ ____
ROOT
ATOM      1  N   UNL     1       3.643   6.258  17.852  0.00  0.00    +0.000 N 
ENDROOT
BRANCH   1   5
ATOM      2  N   UNL     1       2.892   2.692  19.047  0.00  0.00    +0.000 NA
ATOM      3  C   UNL     1       2.005   3.854  19.184  0.00  0.00    +0.000 C 
ATOM      4  C   UNL     1       1.732   4.543  17.852  0.00  0.00    +0.000 C 
ATOM      5  C   UNL     1       3.024   5.037  17.172  0.00  0.00    +0.000 C 
ATOM      6  C   UNL     1       3.866   3.752  17.008  0.00  0.00    +0.000 C 
ATOM      7  C   UNL     1       4.130   3.025  18.326  0.00  0.00    +0.000 C 
BRANCH   2   8
ATOM      8  C   UNL     1       3.183   2.054  20.363  0.00  0.00    +0.000 C 
BRANCH   8   9
ATOM      9  C   UNL     1       2.291   2.712  21.437  0.00  0.00    +0.000 C 
ATOM     10  C   UNL     1       2.511   4.182  21.705  0.00  0.00    +0.000 C 
ATOM     11  O   UNL     1       1.465   2.085  22.102  0.00  0.00    +0.000 OA
ENDBRANCH   8   9
BRANCH   8  13
ATOM     12  C   UNL     1       5.239   0.677  21.037  0.00  0.00    +0.000 C 
ATOM     13  C   UNL     1       4.670   2.070  20.793  0.00  0.00    +0.000 C 
ENDBRANCH   8  13
ENDBRANCH   2   8
ENDBRANCH   1   5
BRANCH   1  14
ATOM     14  C   UNL     1       2.820   7.299  18.353  0.00  0.00    +0.000 A 
ATOM     15  C   UNL     1       2.287   8.303  17.542  0.00  0.00    +0.000 A 
ATOM     16  C   UNL     1       1.464   9.316  18.048  0.00  0.00    +0.000 A 
ATOM     17  C   UNL     1       1.034   9.291  19.377  0.00  0.00    +0.000 A 
ATOM     18  C   UNL     1       1.493   8.254  20.198  0.00  0.00    +0.000 A 
ATOM     19  C   UNL     1       2.397   7.297  19.705  0.00  0.00    +0.000 A 
BRANCH  17  20
ATOM     20  C   UNL     1       0.037  10.309  19.878  0.00  0.00    +0.000 C 
ATOM     21  F   UNL     1      -0.337  10.104  21.175  0.00  0.00    +0.000 F 
ATOM     22  F   UNL     1       0.525  11.579  19.833  0.00  0.00    +0.000 F 
ATOM     23  F   UNL     1      -1.118  10.324  19.159  0.00  0.00    +0.000 F 
ENDBRANCH  17  20
ENDBRANCH   1  14
BRANCH   1  24
ATOM     24  C   UNL     1       5.042   6.185  18.181  0.00  0.00    +0.000 A 
ATOM     25  C   UNL     1       6.024   6.742  17.337  0.00  0.00    +0.000 A 
ATOM     26  C   UNL     1       7.392   6.632  17.608  0.00  0.00    +0.000 A 
ATOM     27  C   UNL     1       7.781   5.965  18.749  0.00  0.00    +0.000 A 
ATOM     28  N   UNL     1       6.905   5.449  19.625  0.00  0.00    +0.000 NA
ATOM     29  C   UNL     1       5.581   5.589  19.326  0.00  0.00    +0.000 A 
ENDBRANCH   1  24
TORSDOF 7
ENDMDL
MODEL 6
REMARK VINA RESULT:      -7.4      6.153     10.601
REMARK  Name = 
REMARK  9 active torsions:
REMARK  status: ('A' for Active; 'I' for Inactive)
REMARK    1  A    between atoms: C_1  and  C_2
REMARK    2  A    between atoms: C_2  and  C_3
REMARK    3  A    between atoms: C_3  and  C_4
REMARK    4  A    between atoms: C_3  and  N_7
REMARK    5  A    between atoms: C_4  and  C_5
REMARK    6  A    between atoms: C_10  and  N_11
REMARK    7  A    between atoms: N_11  and  C_12
REMARK    8  A    between atoms: N_11  and  C_22
REMARK    9  A    between atoms: C_15  and  C_16
REMARK                            x       y       z     vdW  Elec       q    Type
REMARK                         _______ _______ _______ _____ _____    ______ ____
ROOT
ATOM      1  N   UNL     1       1.138  12.021  18.923  0.00  0.00    +0.000 N 
ENDROOT
BRANCH   1   5
ATOM      2  N   UNL     1      -2.409  12.770  20.173  0.00  0.00    +0.000 NA
ATOM      3  C   UNL     1      -1.265  13.689  20.219  0.00  0.00    +0.000 C 
ATOM      4  C   UNL     1      -0.620  13.891  18.852  0.00  0.00    +0.000 C 
ATOM      5  C   UNL     1      -0.116  12.568  18.241  0.00  0.00    +0.000 C 
ATOM      6  C   UNL     1      -1.385  11.690  18.170  0.00  0.00    +0.000 C 
ATOM      7  C   UNL     1      -2.068  11.495  19.524  0.00  0.00    +0.000 C 
BRANCH   2   8
ATOM      8  C   UNL     1      -3.003  12.551  21.524  0.00  0.00    +0.000 C 
BRANCH   8   9
ATOM      9  C   UNL     1      -4.195  13.514  21.699  0.00  0.00    +0.000 C 
ATOM     10  C   UNL     1      -4.955  13.435  23.003  0.00  0.00    +0.000 C 
ATOM     11  O   UNL     1      -4.572  14.286  20.817  0.00  0.00    +0.000 OA
ENDBRANCH   8   9
BRANCH   8  13
ATOM     12  C   UNL     1      -1.359  11.347  23.080  0.00  0.00    +0.000 C 
ATOM     13  C   UNL     1      -2.015  12.672  22.709  0.00  0.00    +0.000 C 
ENDBRANCH   8  13
ENDBRANCH   2   8
ENDBRANCH   1   5
BRANCH   1  14
ATOM     14  C   UNL     1       1.394  10.626  18.950  0.00  0.00    +0.000 A 
ATOM     15  C   UNL     1       2.058   9.955  17.920  0.00  0.00    +0.000 A 
ATOM     16  C   UNL     1       2.317   8.580  17.968  0.00  0.00    +0.000 A 
ATOM     17  C   UNL     1       2.032   7.837  19.117  0.00  0.00    +0.000 A 
ATOM     18  C   UNL     1       1.431   8.499  20.195  0.00  0.00    +0.000 A 
ATOM     19  C   UNL     1       1.087   9.858  20.101  0.00  0.00    +0.000 A 
BRANCH  17  20
ATOM     20  C   UNL     1       2.440   6.387  19.211  0.00  0.00    +0.000 C 
ATOM     21  F   UNL     1       1.898   5.610  18.228  0.00  0.00    +0.000 F 
ATOM     22  F   UNL     1       3.787   6.219  19.111  0.00  0.00    +0.000 F 
ATOM     23  F   UNL     1       2.074   5.804  20.385  0.00  0.00    +0.000 F 
ENDBRANCH  17  20
ENDBRANCH   1  14
BRANCH   1  24
ATOM     24  C   UNL     1       2.145  12.975  19.303  0.00  0.00    +0.000 A 
ATOM     25  C   UNL     1       2.388  13.288  20.656  0.00  0.00    +0.000 A 
ATOM     26  C   UNL     1       3.322  14.255  21.044  0.00  0.00    +0.000 A 
ATOM     27  C   UNL     1       4.032  14.909  20.061  0.00  0.00    +0.000 A 
ATOM     28  N   UNL     1       3.892  14.632  18.755  0.00  0.00    +0.000 NA
ATOM     29  C   UNL     1       2.978  13.675  18.423  0.00  0.00    +0.000 A 
ENDBRANCH   1  24
TORSDOF 7
ENDMDL
MODEL 7
REMARK VINA RESULT:      -7.3      6.226     10.672
REMARK  Name = 
REMARK  9 active torsions:
REMARK  status: ('A' for Active; 'I' for Inactive)
REMARK    1  A    between atoms: C_1  and  C_2
REMARK    2  A    between atoms: C_2  and  C_3
REMARK    3  A    between atoms: C_3  and  C_4
REMARK    4  A    between atoms: C_3  and  N_7
REMARK    5  A    between atoms: C_4  and  C_5
REMARK    6  A    between atoms: C_10  and  N_11
REMARK    7  A    between atoms: N_11  and  C_12
REMARK    8  A    between atoms: N_11  and  C_22
REMARK    9  A    between atoms: C_15  and  C_16
REMARK                            x       y       z     vdW  Elec       q    Type
REMARK                         _______ _______ _______ _____ _____    ______ ____
ROOT
ATOM      1  N   UNL     1       1.103  12.156  19.086  0.00  0.00    +0.000 N 
ENDROOT
BRANCH   1   5
ATOM      2  N   UNL     1      -2.473  12.967  20.210  0.00  0.00    +0.000 NA
ATOM      3  C   UNL     1      -1.307  13.851  20.332  0.00  0.00    +0.000 C 
ATOM      4  C   UNL     1      -0.599  14.077  19.001  0.00  0.00    +0.000 C 
ATOM      5  C   UNL     1      -0.106  12.759  18.370  0.00  0.00    +0.000 C 
ATOM      6  C   UNL     1      -1.394  11.921  18.218  0.00  0.00    +0.000 C 
ATOM      7  C   UNL     1      -2.139  11.704  19.534  0.00  0.00    +0.000 C 
BRANCH   2   8
ATOM      8  C   UNL     1      -3.129  12.724  21.526  0.00  0.00    +0.000 C 
BRANCH   8   9
ATOM      9  C   UNL     1      -4.274  13.744  21.701  0.00  0.00    +0.000 C 
ATOM     10  C   UNL     1      -4.545  14.237  23.103  0.00  0.00    +0.000 C 
ATOM     11  O   UNL     1      -4.990  14.118  20.772  0.00  0.00    +0.000 OA
ENDBRANCH   8   9
BRANCH   8  13
ATOM     12  C   UNL     1      -1.679  11.352  23.135  0.00  0.00    +0.000 C 
ATOM     13  C   UNL     1      -2.183  12.739  22.751  0.00  0.00    +0.000 C 
ENDBRANCH   8  13
ENDBRANCH   2   8
ENDBRANCH   1   5
BRANCH   1  14
ATOM     14  C   UNL     1       1.332  10.756  19.059  0.00  0.00    +0.000 A 
ATOM     15  C   UNL     1       1.903  10.100  17.966  0.00  0.00    +0.000 A 
ATOM     16  C   UNL     1       2.136   8.719  17.961  0.00  0.00    +0.000 A 
ATOM     17  C   UNL     1       1.923   7.953  19.110  0.00  0.00    +0.000 A 
ATOM     18  C   UNL     1       1.418   8.597  20.246  0.00  0.00    +0.000 A 
ATOM     19  C   UNL     1       1.096   9.964  20.211  0.00  0.00    +0.000 A 
BRANCH  17  20
ATOM     20  C   UNL     1       2.307   6.493  19.138  0.00  0.00    +0.000 C 
ATOM     21  F   UNL     1       3.610   6.286  19.486  0.00  0.00    +0.000 F 
ATOM     22  F   UNL     1       1.569   5.779  20.032  0.00  0.00    +0.000 F 
ATOM     23  F   UNL     1       2.143   5.875  17.936  0.00  0.00    +0.000 F 
ENDBRANCH  17  20
ENDBRANCH   1  14
BRANCH   1  24
ATOM     24  C   UNL     1       2.107  13.070  19.559  0.00  0.00    +0.000 A 
ATOM     25  C   UNL     1       2.923  13.793  18.664  0.00  0.00    +0.000 A 
ATOM     26  C   UNL     1       3.944  14.642  19.103  0.00  0.00    +0.000 A 
ATOM     27  C   UNL     1       4.141  14.780  20.460  0.00  0.00    +0.000 A 
ATOM     28  N   UNL     1       3.376  14.164  21.374  0.00  0.00    +0.000 NA
ATOM     29  C   UNL     1       2.385  13.353  20.901  0.00  0.00    +0.000 A 
ENDBRANCH   1  24
TORSDOF 7
ENDMDL
MODEL 8
REMARK VINA RESULT:      -7.3      6.167     10.571
REMARK  Name = 
REMARK  9 active torsions:
REMARK  status: ('A' for Active; 'I' for Inactive)
REMARK    1  A    between atoms: C_1  and  C_2
REMARK    2  A    between atoms: C_2  and  C_3
REMARK    3  A    between atoms: C_3  and  C_4
REMARK    4  A    between atoms: C_3  and  N_7
REMARK    5  A    between atoms: C_4  and  C_5
REMARK    6  A    between atoms: C_10  and  N_11
REMARK    7  A    between atoms: N_11  and  C_12
REMARK    8  A    between atoms: N_11  and  C_22
REMARK    9  A    between atoms: C_15  and  C_16
REMARK                            x       y       z     vdW  Elec       q    Type
REMARK                         _______ _______ _______ _____ _____    ______ ____
ROOT
ATOM      1  N   UNL     1       1.033  11.469  18.912  0.00  0.00    +0.000 N 
ENDROOT
BRANCH   1   5
ATOM      2  N   UNL     1      -2.437  12.552  20.133  0.00  0.00    +0.000 NA
ATOM      3  C   UNL     1      -1.311  13.444  19.828  0.00  0.00    +0.000 C 
ATOM      4  C   UNL     1      -0.763  13.237  18.421  0.00  0.00    +0.000 C 
ATOM      5  C   UNL     1      -0.274  11.793  18.189  0.00  0.00    +0.000 C 
ATOM      6  C   UNL     1      -1.527  10.933  18.466  0.00  0.00    +0.000 C 
ATOM      7  C   UNL     1      -2.114  11.143  19.862  0.00  0.00    +0.000 C 
BRANCH   2   8
ATOM      8  C   UNL     1      -2.934  12.737  21.527  0.00  0.00    +0.000 C 
BRANCH   8   9
ATOM      9  C   UNL     1      -4.477  12.747  21.501  0.00  0.00    +0.000 C 
ATOM     10  C   UNL     1      -5.139  13.264  20.246  0.00  0.00    +0.000 C 
ATOM     11  O   UNL     1      -5.168  12.407  22.462  0.00  0.00    +0.000 OA
ENDBRANCH   8   9
BRANCH   8  13
ATOM     12  C   UNL     1      -1.542  13.630  23.486  0.00  0.00    +0.000 C 
ATOM     13  C   UNL     1      -2.385  13.982  22.266  0.00  0.00    +0.000 C 
ENDBRANCH   8  13
ENDBRANCH   2   8
ENDBRANCH   1   5
BRANCH   1  14
ATOM     14  C   UNL     1       1.416  10.123  19.143  0.00  0.00    +0.000 A 
ATOM     15  C   UNL     1       1.166   9.458  20.346  0.00  0.00    +0.000 A 
ATOM     16  C   UNL     1       1.537   8.124  20.553  0.00  0.00    +0.000 A 
ATOM     17  C   UNL     1       2.062   7.356  19.511  0.00  0.00    +0.000 A 
ATOM     18  C   UNL     1       2.256   7.976  18.270  0.00  0.00    +0.000 A 
ATOM     19  C   UNL     1       1.972   9.342  18.100  0.00  0.00    +0.000 A 
BRANCH  17  20
ATOM     20  C   UNL     1       2.330   5.882  19.705  0.00  0.00    +0.000 C 
ATOM     21  F   UNL     1       1.978   5.125  18.626  0.00  0.00    +0.000 F 
ATOM     22  F   UNL     1       3.647   5.619  19.925  0.00  0.00    +0.000 F 
ATOM     23  F   UNL     1       1.657   5.353  20.763  0.00  0.00    +0.000 F 
ENDBRANCH  17  20
ENDBRANCH   1  14
BRANCH   1  24
ATOM     24  C   UNL     1       1.955  12.555  19.114  0.00  0.00    +0.000 A 
ATOM     25  C   UNL     1       2.205  13.076  20.400  0.00  0.00    +0.000 A 
ATOM     26  C   UNL     1       3.053  14.169  20.612  0.00  0.00    +0.000 A 
ATOM     27  C   UNL     1       3.669  14.739  19.520  0.00  0.00    +0.000 A 
ATOM     28  N   UNL     1       3.519  14.270  18.271  0.00  0.00    +0.000 NA
ATOM     29  C   UNL     1       2.692  13.197  18.113  0.00  0.00    +0.000 A 
ENDBRANCH   1  24
TORSDOF 7
ENDMDL
MODEL 9
REMARK VINA RESULT:      -7.3      6.034     10.541
REMARK  Name = 
REMARK  9 active torsions:
REMARK  status: ('A' for Active; 'I' for Inactive)
REMARK    1  A    between atoms: C_1  and  C_2
REMARK    2  A    between atoms: C_2  and  C_3
REMARK    3  A    between atoms: C_3  and  C_4
REMARK    4  A    between atoms: C_3  and  N_7
REMARK    5  A    between atoms: C_4  and  C_5
REMARK    6  A    between atoms: C_10  and  N_11
REMARK    7  A    between atoms: N_11  and  C_12
REMARK    8  A    between atoms: N_11  and  C_22
REMARK    9  A    between atoms: C_15  and  C_16
REMARK                            x       y       z     vdW  Elec       q    Type
REMARK                         _______ _______ _______ _____ _____    ______ ____
ROOT
ATOM      1  N   UNL     1       0.995  11.855  19.070  0.00  0.00    +0.000 N 
ENDROOT
BRANCH   1   5
ATOM      2  N   UNL     1      -2.211  13.288  20.609  0.00  0.00    +0.000 NA
ATOM      3  C   UNL     1      -1.019  14.055  20.228  0.00  0.00    +0.000 C 
ATOM      4  C   UNL     1      -0.617  13.832  18.775  0.00  0.00    +0.000 C 
ATOM      5  C   UNL     1      -0.321  12.350  18.470  0.00  0.00    +0.000 C 
ATOM      6  C   UNL     1      -1.638  11.630  18.834  0.00  0.00    +0.000 C 
ATOM      7  C   UNL     1      -2.079  11.861  20.279  0.00  0.00    +0.000 C 
BRANCH   2   8
ATOM      8  C   UNL     1      -2.567  13.485  22.044  0.00  0.00    +0.000 C 
BRANCH   8   9
ATOM      9  C   UNL     1      -1.271  13.453  22.881  0.00  0.00    +0.000 C 
ATOM     10  C   UNL     1      -0.839  14.749  23.525  0.00  0.00    +0.000 C 
ATOM     11  O   UNL     1      -0.568  12.448  22.994  0.00  0.00    +0.000 OA
ENDBRANCH   8   9
BRANCH   8  13
ATOM     12  C   UNL     1      -3.822  12.634  24.112  0.00  0.00    +0.000 C 
ATOM     13  C   UNL     1      -3.615  12.495  22.608  0.00  0.00    +0.000 C 
ENDBRANCH   8  13
ENDBRANCH   2   8
ENDBRANCH   1   5
BRANCH   1  14
ATOM     14  C   UNL     1       1.261  10.466  19.180  0.00  0.00    +0.000 A 
ATOM     15  C   UNL     1       1.859   9.724  18.159  0.00  0.00    +0.000 A 
ATOM     16  C   UNL     1       2.128   8.356  18.288  0.00  0.00    +0.000 A 
ATOM     17  C   UNL     1       1.925   7.698  19.504  0.00  0.00    +0.000 A 
ATOM     18  C   UNL     1       1.394   8.434  20.570  0.00  0.00    +0.000 A 
ATOM     19  C   UNL     1       1.036   9.783  20.401  0.00  0.00    +0.000 A 
BRANCH  17  20
ATOM     20  C   UNL     1       2.347   6.258  19.675  0.00  0.00    +0.000 C 
ATOM     21  F   UNL     1       3.700   6.098  19.738  0.00  0.00    +0.000 F 
ATOM     22  F   UNL     1       1.858   5.706  20.819  0.00  0.00    +0.000 F 
ATOM     23  F   UNL     1       1.927   5.455  18.659  0.00  0.00    +0.000 F 
ENDBRANCH  17  20
ENDBRANCH   1  14
BRANCH   1  24
ATOM     24  C   UNL     1       2.028  12.834  19.278  0.00  0.00    +0.000 A 
ATOM     25  C   UNL     1       2.377  13.271  20.572  0.00  0.00    +0.000 A 
ATOM     26  C   UNL     1       3.337  14.264  20.792  0.00  0.00    +0.000 A 
ATOM     27  C   UNL     1       3.968  14.818  19.700  0.00  0.00    +0.000 A 
ATOM     28  N   UNL     1       3.725  14.422  18.440  0.00  0.00    +0.000 NA
ATOM     29  C   UNL     1       2.788  13.443  18.273  0.00  0.00    +0.000 A 
ENDBRANCH   1  24
TORSDOF 7
ENDMDL
