MODEL 1
REMARK VINA RESULT:      -9.3      0.000      0.000
REMARK  Name = 
REMARK  6 active torsions:
REMARK  status: ('A' for Active; 'I' for Inactive)
REMARK    1  A    between atoms: C_2  and  C_3
REMARK    2  A    between atoms: C_3  and  C_4
REMARK    3  A    between atoms: C_9  and  C_10
REMARK    4  A    between atoms: N_15  and  C_16
REMARK    5  A    between atoms: C_20  and  C_21
REMARK    6  A    between atoms: C_22  and  C_23
REMARK                            x       y       z     vdW  Elec       q    Type
REMARK                         _______ _______ _______ _____ _____    ______ ____
ROOT
ATOM      1  C   UNL     1       1.829   7.838  20.308  0.00  0.00    +0.000 A 
ATOM      2  C   UNL     1       1.371   8.296  21.547  0.00  0.00    +0.000 A 
ATOM      3  C   UNL     1       0.606   9.466  21.664  0.00  0.00    +0.000 A 
ATOM      4  C   UNL     1       0.298  10.203  20.507  0.00  0.00    +0.000 A 
ATOM      5  C   UNL     1      -0.469  11.368  20.196  0.00  0.00    +0.000 A 
ATOM      6  N   UNL     1      -0.406  11.651  18.885  0.00  0.00    +0.000 NA
ATOM      7  N   UNL     1       0.369  10.682  18.373  0.00  0.00    +0.000 N 
ATOM      8  C   UNL     1       0.811   9.766  19.292  0.00  0.00    +0.000 A 
ATOM      9  C   UNL     1       1.594   8.606  19.156  0.00  0.00    +0.000 A 
ATOM     10  H   UNL     1       0.546  10.689  17.378  0.00  0.00    +0.000 HD
ENDROOT
BRANCH   1  13
ATOM     11  O   UNL     1       0.820   5.087  20.558  0.00  0.00    +0.000 OA
ATOM     12  C   UNL     1       2.000   5.347  20.338  0.00  0.00    +0.000 C 
ATOM     13  N   UNL     1       2.535   6.617  20.160  0.00  0.00    +0.000 N 
ATOM     14  H   UNL     1       3.454   6.677  19.741  0.00  0.00    +0.000 HD
BRANCH  12  15
ATOM     15  C   UNL     1       3.020   4.224  20.220  0.00  0.00    +0.000 C 
BRANCH  15  16
ATOM     16  C   UNL     1       3.882   4.291  18.978  0.00  0.00    +0.000 A 
ATOM     17  C   UNL     1       3.375   3.929  17.727  0.00  0.00    +0.000 A 
ATOM     18  C   UNL     1       4.199   3.941  16.598  0.00  0.00    +0.000 A 
ATOM     19  C   UNL     1       5.546   4.310  16.699  0.00  0.00    +0.000 A 
ATOM     20 CL   UNL     1       6.464   4.277  15.239  0.00  0.00    +0.000 Cl
ATOM     21  C   UNL     1       6.084   4.675  17.936  0.00  0.00    +0.000 A 
ATOM     22  C   UNL     1       5.233   4.654  19.069  0.00  0.00    +0.000 A 
BRANCH  21  23
ATOM     23  C   UNL     1       7.514   5.093  18.161  0.00  0.00    +0.000 C 
ATOM     24  F   UNL     1       8.477   4.189  17.849  0.00  0.00    +0.000 F 
ATOM     25  F   UNL     1       7.821   6.214  17.442  0.00  0.00    +0.000 F 
ATOM     26  F   UNL     1       7.741   5.433  19.464  0.00  0.00    +0.000 F 
ENDBRANCH  21  23
ENDBRANCH  15  16
ENDBRANCH  12  15
ENDBRANCH   1  13
BRANCH   5  27
ATOM     27  C   UNL     1      -1.231  12.128  21.148  0.00  0.00    +0.000 C 
ATOM     28  C   UNL     1      -0.752  12.611  22.309  0.00  0.00    +0.000 C 
BRANCH  28  29
ATOM     29  C   UNL     1      -1.537  13.413  23.259  0.00  0.00    +0.000 A 
ATOM     30  C   UNL     1      -2.880  13.120  23.478  0.00  0.00    +0.000 A 
ATOM     31  C   UNL     1      -3.597  13.886  24.398  0.00  0.00    +0.000 A 
ATOM     32  C   UNL     1      -2.955  14.916  25.071  0.00  0.00    +0.000 A 
ATOM     33  C   UNL     1      -1.618  15.142  24.793  0.00  0.00    +0.000 A 
ATOM     34  N   UNL     1      -0.902  14.419  23.905  0.00  0.00    +0.000 NA
ENDBRANCH  28  29
ENDBRANCH   5  27
TORSDOF 6
ENDMDL
MODEL 2
REMARK VINA RESULT:      -9.3      0.769      1.220
REMARK  Name = 
REMARK  6 active torsions:
REMARK  status: ('A' for Active; 'I' for Inactive)
REMARK    1  A    between atoms: C_2  and  C_3
REMARK    2  A    between atoms: C_3  and  C_4
REMARK    3  A    between atoms: C_9  and  C_10
REMARK    4  A    between atoms: N_15  and  C_16
REMARK    5  A    between atoms: C_20  and  C_21
REMARK    6  A    between atoms: C_22  and  C_23
REMARK                            x       y       z     vdW  Elec       q    Type
REMARK                         _______ _______ _______ _____ _____    ______ ____
ROOT
ATOM      1  C   UNL     1       1.869   7.494  20.062  0.00  0.00    +0.000 A 
ATOM      2  C   UNL     1       1.202   7.819  21.246  0.00  0.00    +0.000 A 
ATOM      3  C   UNL     1       0.446   8.995  21.369  0.00  0.00    +0.000 A 
ATOM      4  C   UNL     1       0.364   9.875  20.275  0.00  0.00    +0.000 A 
ATOM      5  C   UNL     1      -0.316  11.096  19.978  0.00  0.00    +0.000 A 
ATOM      6  N   UNL     1      -0.013  11.529  18.744  0.00  0.00    +0.000 NA
ATOM      7  N   UNL     1       0.827  10.600  18.263  0.00  0.00    +0.000 N 
ATOM      8  C   UNL     1       1.082   9.566  19.126  0.00  0.00    +0.000 A 
ATOM      9  C   UNL     1       1.858   8.402  18.990  0.00  0.00    +0.000 A 
ATOM     10  H   UNL     1       1.182  10.718  17.324  0.00  0.00    +0.000 HD
ENDROOT
BRANCH   1  13
ATOM     11  O   UNL     1       0.957   4.754  20.616  0.00  0.00    +0.000 OA
ATOM     12  C   UNL     1       2.091   5.012  20.220  0.00  0.00    +0.000 C 
ATOM     13  N   UNL     1       2.571   6.274  19.892  0.00  0.00    +0.000 N 
ATOM     14  H   UNL     1       3.424   6.317  19.348  0.00  0.00    +0.000 HD
BRANCH  12  15
ATOM     15  C   UNL     1       3.106   3.895  20.031  0.00  0.00    +0.000 C 
BRANCH  15  16
ATOM     16  C   UNL     1       4.026   4.081  18.844  0.00  0.00    +0.000 A 
ATOM     17  C   UNL     1       3.618   3.733  17.553  0.00  0.00    +0.000 A 
ATOM     18  C   UNL     1       4.499   3.856  16.475  0.00  0.00    +0.000 A 
ATOM     19  C   UNL     1       5.804   4.325  16.666  0.00  0.00    +0.000 A 
ATOM     20 CL   UNL     1       6.799   4.425  15.261  0.00  0.00    +0.000 Cl
ATOM     21  C   UNL     1       6.243   4.679  17.945  0.00  0.00    +0.000 A 
ATOM     22  C   UNL     1       5.337   4.544  19.025  0.00  0.00    +0.000 A 
BRANCH  21  23
ATOM     23  C   UNL     1       7.620   5.198  18.267  0.00  0.00    +0.000 C 
ATOM     24  F   UNL     1       8.020   6.325  17.624  0.00  0.00    +0.000 F 
ATOM     25  F   UNL     1       7.748   5.474  19.599  0.00  0.00    +0.000 F 
ATOM     26  F   UNL     1       8.584   4.267  18.002  0.00  0.00    +0.000 F 
ENDBRANCH  21  23
ENDBRANCH  15  16
ENDBRANCH  12  15
ENDBRANCH   1  13
BRANCH   5  27
ATOM     27  C   UNL     1      -1.226  11.766  20.866  0.00  0.00    +0.000 C 
ATOM     28  C   UNL     1      -1.048  11.905  22.192  0.00  0.00    +0.000 C 
BRANCH  28  29
ATOM     29  C   UNL     1      -1.973  12.619  23.083  0.00  0.00    +0.000 A 
ATOM     30  C   UNL     1      -1.631  13.869  23.589  0.00  0.00    +0.000 A 
ATOM     31  C   UNL     1      -2.535  14.533  24.419  0.00  0.00    +0.000 A 
ATOM     32  C   UNL     1      -3.750  13.934  24.717  0.00  0.00    +0.000 A 
ATOM     33  C   UNL     1      -4.012  12.687  24.173  0.00  0.00    +0.000 A 
ATOM     34  N   UNL     1      -3.153  12.021  23.371  0.00  0.00    +0.000 NA
ENDBRANCH  28  29
ENDBRANCH   5  27
TORSDOF 6
ENDMDL
MODEL 3
REMARK VINA RESULT:      -9.0      1.569      1.821
REMARK  Name = 
REMARK  6 active torsions:
REMARK  status: ('A' for Active; 'I' for Inactive)
REMARK    1  A    between atoms: C_2  and  C_3
REMARK    2  A    between atoms: C_3  and  C_4
REMARK    3  A    between atoms: C_9  and  C_10
REMARK    4  A    between atoms: N_15  and  C_16
REMARK    5  A    between atoms: C_20  and  C_21
REMARK    6  A    between atoms: C_22  and  C_23
REMARK                            x       y       z     vdW  Elec       q    Type
REMARK                         _______ _______ _______ _____ _____    ______ ____
ROOT
ATOM      1  C   UNL     1       1.595   8.097  20.361  0.00  0.00    +0.000 A 
ATOM      2  C   UNL     1       0.869   8.456  21.500  0.00  0.00    +0.000 A 
ATOM      3  C   UNL     1      -0.003   9.556  21.503  0.00  0.00    +0.000 A 
ATOM      4  C   UNL     1      -0.143  10.323  20.333  0.00  0.00    +0.000 A 
ATOM      5  C   UNL     1      -0.933  11.440  19.916  0.00  0.00    +0.000 A 
ATOM      6  N   UNL     1      -0.642  11.791  18.654  0.00  0.00    +0.000 NA
ATOM      7  N   UNL     1       0.298  10.912  18.273  0.00  0.00    +0.000 N 
ATOM      8  C   UNL     1       0.631   9.988  19.229  0.00  0.00    +0.000 A 
ATOM      9  C   UNL     1       1.522   8.901  19.211  0.00  0.00    +0.000 A 
ATOM     10  H   UNL     1       0.663  10.983  17.333  0.00  0.00    +0.000 HD
ENDROOT
BRANCH   1  13
ATOM     11  O   UNL     1       0.808   5.267  20.508  0.00  0.00    +0.000 OA
ATOM     12  C   UNL     1       1.979   5.631  20.435  0.00  0.00    +0.000 C 
ATOM     13  N   UNL     1       2.418   6.944  20.313  0.00  0.00    +0.000 N 
ATOM     14  H   UNL     1       3.374   7.085  20.012  0.00  0.00    +0.000 HD
BRANCH  12  15
ATOM     15  C   UNL     1       3.100   4.603  20.456  0.00  0.00    +0.000 C 
BRANCH  15  16
ATOM     16  C   UNL     1       3.871   4.492  19.159  0.00  0.00    +0.000 A 
ATOM     17  C   UNL     1       3.269   3.987  18.002  0.00  0.00    +0.000 A 
ATOM     18  C   UNL     1       4.010   3.837  16.827  0.00  0.00    +0.000 A 
ATOM     19  C   UNL     1       5.366   4.184  16.785  0.00  0.00    +0.000 A 
ATOM     20 CL   UNL     1       6.175   3.945  15.281  0.00  0.00    +0.000 Cl
ATOM     21  C   UNL     1       5.996   4.690  17.925  0.00  0.00    +0.000 A 
ATOM     22  C   UNL     1       5.230   4.832  19.107  0.00  0.00    +0.000 A 
BRANCH  21  23
ATOM     23  C   UNL     1       7.445   5.100  17.993  0.00  0.00    +0.000 C 
ATOM     24  F   UNL     1       8.367   4.165  17.650  0.00  0.00    +0.000 F 
ATOM     25  F   UNL     1       7.695   6.173  17.185  0.00  0.00    +0.000 F 
ATOM     26  F   UNL     1       7.793   5.511  19.248  0.00  0.00    +0.000 F 
ENDBRANCH  21  23
ENDBRANCH  15  16
ENDBRANCH  12  15
ENDBRANCH   1  13
BRANCH   5  27
ATOM     27  C   UNL     1      -1.927  12.089  20.725  0.00  0.00    +0.000 C 
ATOM     28  C   UNL     1      -3.120  12.522  20.279  0.00  0.00    +0.000 C 
BRANCH  28  29
ATOM     29  C   UNL     1      -4.140  13.158  21.126  0.00  0.00    +0.000 A 
ATOM     30  C   UNL     1      -4.818  14.287  20.674  0.00  0.00    +0.000 A 
ATOM     31  C   UNL     1      -5.793  14.861  21.490  0.00  0.00    +0.000 A 
ATOM     32  C   UNL     1      -6.064  14.294  22.728  0.00  0.00    +0.000 A 
ATOM     33  C   UNL     1      -5.342  13.173  23.102  0.00  0.00    +0.000 A 
ATOM     34  N   UNL     1      -4.391  12.600  22.333  0.00  0.00    +0.000 NA
ENDBRANCH  28  29
ENDBRANCH   5  27
TORSDOF 6
ENDMDL
MODEL 4
REMARK VINA RESULT:      -8.7      2.291      2.956
REMARK  Name = 
REMARK  6 active torsions:
REMARK  status: ('A' for Active; 'I' for Inactive)
REMARK    1  A    between atoms: C_2  and  C_3
REMARK    2  A    between atoms: C_3  and  C_4
REMARK    3  A    between atoms: C_9  and  C_10
REMARK    4  A    between atoms: N_15  and  C_16
REMARK    5  A    between atoms: C_20  and  C_21
REMARK    6  A    between atoms: C_22  and  C_23
REMARK                            x       y       z     vdW  Elec       q    Type
REMARK                         _______ _______ _______ _____ _____    ______ ____
ROOT
ATOM      1  C   UNL     1       1.798   7.799  20.375  0.00  0.00    +0.000 A 
ATOM      2  C   UNL     1       1.589   8.694  19.322  0.00  0.00    +0.000 A 
ATOM      3  C   UNL     1       0.943   9.924  19.516  0.00  0.00    +0.000 A 
ATOM      4  C   UNL     1       0.486  10.264  20.801  0.00  0.00    +0.000 A 
ATOM      5  C   UNL     1      -0.143  11.393  21.412  0.00  0.00    +0.000 A 
ATOM      6  N   UNL     1      -0.383  11.166  22.713  0.00  0.00    +0.000 NA
ATOM      7  N   UNL     1       0.094   9.931  22.928  0.00  0.00    +0.000 N 
ATOM      8  C   UNL     1       0.649   9.337  21.824  0.00  0.00    +0.000 A 
ATOM      9  C   UNL     1       1.277   8.093  21.646  0.00  0.00    +0.000 A 
ATOM     10  H   UNL     1       0.029   9.551  23.863  0.00  0.00    +0.000 HD
ENDROOT
BRANCH   1  13
ATOM     11  O   UNL     1       0.800   5.036  20.503  0.00  0.00    +0.000 OA
ATOM     12  C   UNL     1       1.986   5.310  20.335  0.00  0.00    +0.000 C 
ATOM     13  N   UNL     1       2.518   6.588  20.215  0.00  0.00    +0.000 N 
ATOM     14  H   UNL     1       3.452   6.666  19.833  0.00  0.00    +0.000 HD
BRANCH  12  15
ATOM     15  C   UNL     1       3.018   4.197  20.221  0.00  0.00    +0.000 C 
BRANCH  15  16
ATOM     16  C   UNL     1       3.890   4.278  18.988  0.00  0.00    +0.000 A 
ATOM     17  C   UNL     1       3.403   3.902  17.733  0.00  0.00    +0.000 A 
ATOM     18  C   UNL     1       4.238   3.927  16.612  0.00  0.00    +0.000 A 
ATOM     19  C   UNL     1       5.576   4.324  16.724  0.00  0.00    +0.000 A 
ATOM     20 CL   UNL     1       6.507   4.305  15.273  0.00  0.00    +0.000 Cl
ATOM     21  C   UNL     1       6.093   4.704  17.966  0.00  0.00    +0.000 A 
ATOM     22  C   UNL     1       5.233   4.669  19.090  0.00  0.00    +0.000 A 
BRANCH  21  23
ATOM     23  C   UNL     1       7.512   5.153  18.202  0.00  0.00    +0.000 C 
ATOM     24  F   UNL     1       7.855   5.467  19.477  0.00  0.00    +0.000 F 
ATOM     25  F   UNL     1       8.407   4.198  17.809  0.00  0.00    +0.000 F 
ATOM     26  F   UNL     1       7.822   6.256  17.459  0.00  0.00    +0.000 F 
ENDBRANCH  21  23
ENDBRANCH  15  16
ENDBRANCH  12  15
ENDBRANCH   1  13
BRANCH   5  27
ATOM     27  C   UNL     1      -0.457  12.622  20.736  0.00  0.00    +0.000 C 
ATOM     28  C   UNL     1       0.331  13.712  20.713  0.00  0.00    +0.000 C 
BRANCH  28  29
ATOM     29  C   UNL     1       0.010  14.952  19.992  0.00  0.00    +0.000 A 
ATOM     30  C   UNL     1      -1.210  15.587  20.204  0.00  0.00    +0.000 A 
ATOM     31  C   UNL     1      -1.483  16.772  19.520  0.00  0.00    +0.000 A 
ATOM     32  C   UNL     1      -0.534  17.288  18.649  0.00  0.00    +0.000 A 
ATOM     33  C   UNL     1       0.653  16.592  18.494  0.00  0.00    +0.000 A 
ATOM     34  N   UNL     1       0.942  15.442  19.141  0.00  0.00    +0.000 NA
ENDBRANCH  28  29
ENDBRANCH   5  27
TORSDOF 6
ENDMDL
MODEL 5
REMARK VINA RESULT:      -8.7      2.811      3.595
REMARK  Name = 
REMARK  6 active torsions:
REMARK  status: ('A' for Active; 'I' for Inactive)
REMARK    1  A    between atoms: C_2  and  C_3
REMARK    2  A    between atoms: C_3  and  C_4
REMARK    3  A    between atoms: C_9  and  C_10
REMARK    4  A    between atoms: N_15  and  C_16
REMARK    5  A    between atoms: C_20  and  C_21
REMARK    6  A    between atoms: C_22  and  C_23
REMARK                            x       y       z     vdW  Elec       q    Type
REMARK                         _______ _______ _______ _____ _____    ______ ____
ROOT
ATOM      1  C   UNL     1       2.999   6.889  18.656  0.00  0.00    +0.000 A 
ATOM      2  C   UNL     1       2.270   6.840  19.847  0.00  0.00    +0.000 A 
ATOM      3  C   UNL     1       1.402   7.876  20.224  0.00  0.00    +0.000 A 
ATOM      4  C   UNL     1       1.268   8.998  19.388  0.00  0.00    +0.000 A 
ATOM      5  C   UNL     1       0.484  10.193  19.376  0.00  0.00    +0.000 A 
ATOM      6  N   UNL     1       0.782  10.954  18.311  0.00  0.00    +0.000 NA
ATOM      7  N   UNL     1       1.720  10.255  17.654  0.00  0.00    +0.000 N 
ATOM      8  C   UNL     1       2.046   9.058  18.238  0.00  0.00    +0.000 A 
ATOM      9  C   UNL     1       2.934   8.039  17.852  0.00  0.00    +0.000 A 
ATOM     10  H   UNL     1       2.089  10.641  16.796  0.00  0.00    +0.000 HD
ENDROOT
BRANCH   1  13
ATOM     11  O   UNL     1       2.198   4.349  17.410  0.00  0.00    +0.000 OA
ATOM     12  C   UNL     1       3.366   4.622  17.677  0.00  0.00    +0.000 C 
ATOM     13  N   UNL     1       3.820   5.819  18.219  0.00  0.00    +0.000 N 
ATOM     14  H   UNL     1       4.812   6.008  18.155  0.00  0.00    +0.000 HD
BRANCH  12  15
ATOM     15  C   UNL     1       4.469   3.611  17.400  0.00  0.00    +0.000 C 
BRANCH  15  16
ATOM     16  C   UNL     1       5.421   4.013  16.295  0.00  0.00    +0.000 A 
ATOM     17  C   UNL     1       6.505   4.858  16.547  0.00  0.00    +0.000 A 
ATOM     18  C   UNL     1       7.342   5.267  15.504  0.00  0.00    +0.000 A 
ATOM     19  C   UNL     1       7.110   4.841  14.190  0.00  0.00    +0.000 A 
ATOM     20 CL   UNL     1       8.205   5.419  12.991  0.00  0.00    +0.000 Cl
ATOM     21  C   UNL     1       6.033   3.998  13.906  0.00  0.00    +0.000 A 
ATOM     22  C   UNL     1       5.194   3.597  14.975  0.00  0.00    +0.000 A 
BRANCH  21  23
ATOM     23  C   UNL     1       5.691   3.475  12.534  0.00  0.00    +0.000 C 
ATOM     24  F   UNL     1       5.867   2.147  12.319  0.00  0.00    +0.000 F 
ATOM     25  F   UNL     1       4.386   3.727  12.218  0.00  0.00    +0.000 F 
ATOM     26  F   UNL     1       6.418   4.101  11.562  0.00  0.00    +0.000 F 
ENDBRANCH  21  23
ENDBRANCH  15  16
ENDBRANCH  12  15
ENDBRANCH   1  13
BRANCH   5  27
ATOM     27  C   UNL     1      -0.511  10.531  20.355  0.00  0.00    +0.000 C 
ATOM     28  C   UNL     1      -0.967  11.774  20.594  0.00  0.00    +0.000 C 
BRANCH  28  29
ATOM     29  C   UNL     1      -2.008  12.101  21.579  0.00  0.00    +0.000 A 
ATOM     30  C   UNL     1      -1.756  11.949  22.939  0.00  0.00    +0.000 A 
ATOM     31  C   UNL     1      -2.756  12.282  23.853  0.00  0.00    +0.000 A 
ATOM     32  C   UNL     1      -3.973  12.756  23.386  0.00  0.00    +0.000 A 
ATOM     33  C   UNL     1      -4.143  12.875  22.017  0.00  0.00    +0.000 A 
ATOM     34  N   UNL     1      -3.194  12.557  21.110  0.00  0.00    +0.000 NA
ENDBRANCH  28  29
ENDBRANCH   5  27
TORSDOF 6
ENDMDL
MODEL 6
REMARK VINA RESULT:      -8.7      5.808     11.457
REMARK  Name = 
REMARK  6 active torsions:
REMARK  status: ('A' for Active; 'I' for Inactive)
REMARK    1  A    between atoms: C_2  and  C_3
REMARK    2  A    between atoms: C_3  and  C_4
REMARK    3  A    between atoms: C_9  and  C_10
REMARK    4  A    between atoms: N_15  and  C_16
REMARK    5  A    between atoms: C_20  and  C_21
REMARK    6  A    between atoms: C_22  and  C_23
REMARK                            x       y       z     vdW  Elec       q    Type
REMARK                         _______ _______ _______ _____ _____    ______ ____
ROOT
ATOM      1  C   UNL     1       1.705   7.217  20.377  0.00  0.00    +0.000 A 
ATOM      2  C   UNL     1       2.120   7.732  19.146  0.00  0.00    +0.000 A 
ATOM      3  C   UNL     1       2.892   6.974  18.253  0.00  0.00    +0.000 A 
ATOM      4  C   UNL     1       3.266   5.666  18.607  0.00  0.00    +0.000 A 
ATOM      5  C   UNL     1       3.969   4.587  17.987  0.00  0.00    +0.000 A 
ATOM      6  N   UNL     1       4.056   3.531  18.813  0.00  0.00    +0.000 NA
ATOM      7  N   UNL     1       3.412   3.924  19.922  0.00  0.00    +0.000 N 
ATOM      8  C   UNL     1       2.895   5.191  19.859  0.00  0.00    +0.000 A 
ATOM      9  C   UNL     1       2.136   5.941  20.775  0.00  0.00    +0.000 A 
ATOM     10  H   UNL     1       3.342   3.269  20.689  0.00  0.00    +0.000 HD
ENDROOT
BRANCH   1  13
ATOM     11  O   UNL     1       2.403   9.385  22.236  0.00  0.00    +0.000 OA
ATOM     12  C   UNL     1       1.268   8.923  22.147  0.00  0.00    +0.000 C 
ATOM     13  N   UNL     1       0.859   7.936  21.259  0.00  0.00    +0.000 N 
ATOM     14  H   UNL     1      -0.138   7.828  21.115  0.00  0.00    +0.000 HD
BRANCH  12  15
ATOM     15  C   UNL     1       0.158   9.445  23.047  0.00  0.00    +0.000 C 
BRANCH  15  16
ATOM     16  C   UNL     1      -0.565  10.659  22.507  0.00  0.00    +0.000 A 
ATOM     17  C   UNL     1      -0.077  11.358  21.399  0.00  0.00    +0.000 A 
ATOM     18  C   UNL     1      -0.724  12.511  20.947  0.00  0.00    +0.000 A 
ATOM     19  C   UNL     1      -1.869  12.990  21.595  0.00  0.00    +0.000 A 
ATOM     20 CL   UNL     1      -2.573  14.426  20.950  0.00  0.00    +0.000 Cl
ATOM     21  C   UNL     1      -2.380  12.316  22.708  0.00  0.00    +0.000 A 
ATOM     22  C   UNL     1      -1.709  11.151  23.152  0.00  0.00    +0.000 A 
BRANCH  21  23
ATOM     23  C   UNL     1      -3.605  12.737  23.478  0.00  0.00    +0.000 C 
ATOM     24  F   UNL     1      -3.992  11.940  24.505  0.00  0.00    +0.000 F 
ATOM     25  F   UNL     1      -3.445  13.981  24.022  0.00  0.00    +0.000 F 
ATOM     26  F   UNL     1      -4.699  12.842  22.667  0.00  0.00    +0.000 F 
ENDBRANCH  21  23
ENDBRANCH  15  16
ENDBRANCH  12  15
ENDBRANCH   1  13
BRANCH   5  27
ATOM     27  C   UNL     1       4.495   4.610  16.650  0.00  0.00    +0.000 C 
ATOM     28  C   UNL     1       5.800   4.529  16.333  0.00  0.00    +0.000 C 
BRANCH  28  29
ATOM     29  C   UNL     1       6.320   4.523  14.958  0.00  0.00    +0.000 A 
ATOM     30  C   UNL     1       5.681   3.776  13.973  0.00  0.00    +0.000 A 
ATOM     31  C   UNL     1       6.185   3.802  12.672  0.00  0.00    +0.000 A 
ATOM     32  C   UNL     1       7.307   4.570  12.393  0.00  0.00    +0.000 A 
ATOM     33  C   UNL     1       7.883   5.281  13.431  0.00  0.00    +0.000 A 
ATOM     34  N   UNL     1       7.418   5.272  14.699  0.00  0.00    +0.000 NA
ENDBRANCH  28  29
ENDBRANCH   5  27
TORSDOF 6
ENDMDL
MODEL 7
REMARK VINA RESULT:      -8.6      5.311     10.979
REMARK  Name = 
REMARK  6 active torsions:
REMARK  status: ('A' for Active; 'I' for Inactive)
REMARK    1  A    between atoms: C_2  and  C_3
REMARK    2  A    between atoms: C_3  and  C_4
REMARK    3  A    between atoms: C_9  and  C_10
REMARK    4  A    between atoms: N_15  and  C_16
REMARK    5  A    between atoms: C_20  and  C_21
REMARK    6  A    between atoms: C_22  and  C_23
REMARK                            x       y       z     vdW  Elec       q    Type
REMARK                         _______ _______ _______ _____ _____    ______ ____
ROOT
ATOM      1  C   UNL     1       1.410   9.057  19.223  0.00  0.00    +0.000 A 
ATOM      2  C   UNL     1       1.905   9.024  17.917  0.00  0.00    +0.000 A 
ATOM      3  C   UNL     1       2.691   7.959  17.452  0.00  0.00    +0.000 A 
ATOM      4  C   UNL     1       2.997   6.900  18.325  0.00  0.00    +0.000 A 
ATOM      5  C   UNL     1       3.688   5.652  18.237  0.00  0.00    +0.000 A 
ATOM      6  N   UNL     1       3.694   5.019  19.420  0.00  0.00    +0.000 NA
ATOM      7  N   UNL     1       3.011   5.836  20.237  0.00  0.00    +0.000 N 
ATOM      8  C   UNL     1       2.546   6.977  19.637  0.00  0.00    +0.000 A 
ATOM      9  C   UNL     1       1.772   8.044  20.126  0.00  0.00    +0.000 A 
ATOM     10  H   UNL     1       2.878   5.548  21.197  0.00  0.00    +0.000 HD
ENDROOT
BRANCH   1  13
ATOM     11  O   UNL     1       1.727  11.971  18.985  0.00  0.00    +0.000 OA
ATOM     12  C   UNL     1       0.787  11.448  19.578  0.00  0.00    +0.000 C 
ATOM     13  N   UNL     1       0.549  10.083  19.687  0.00  0.00    +0.000 N 
ATOM     14  H   UNL     1      -0.377   9.798  19.978  0.00  0.00    +0.000 HD
BRANCH  12  15
ATOM     15  C   UNL     1      -0.259  12.315  20.264  0.00  0.00    +0.000 C 
BRANCH  15  16
ATOM     16  C   UNL     1      -1.650  12.194  19.683  0.00  0.00    +0.000 A 
ATOM     17  C   UNL     1      -2.771  12.638  20.391  0.00  0.00    +0.000 A 
ATOM     18  C   UNL     1      -4.054  12.467  19.866  0.00  0.00    +0.000 A 
ATOM     19  C   UNL     1      -4.244  11.846  18.625  0.00  0.00    +0.000 A 
ATOM     20 CL   UNL     1      -5.874  11.684  18.087  0.00  0.00    +0.000 Cl
ATOM     21  C   UNL     1      -3.144  11.389  17.894  0.00  0.00    +0.000 A 
ATOM     22  C   UNL     1      -1.851  11.569  18.444  0.00  0.00    +0.000 A 
BRANCH  21  23
ATOM     23  C   UNL     1      -3.229  10.712  16.550  0.00  0.00    +0.000 C 
ATOM     24  F   UNL     1      -3.706   9.442  16.528  0.00  0.00    +0.000 F 
ATOM     25  F   UNL     1      -4.024  11.416  15.690  0.00  0.00    +0.000 F 
ATOM     26  F   UNL     1      -2.009  10.654  15.937  0.00  0.00    +0.000 F 
ENDBRANCH  21  23
ENDBRANCH  15  16
ENDBRANCH  12  15
ENDBRANCH   1  13
BRANCH   5  27
ATOM     27  C   UNL     1       4.280   5.125  17.038  0.00  0.00    +0.000 C 
ATOM     28  C   UNL     1       5.262   5.720  16.336  0.00  0.00    +0.000 C 
BRANCH  28  29
ATOM     29  C   UNL     1       5.878   5.153  15.128  0.00  0.00    +0.000 A 
ATOM     30  C   UNL     1       5.185   4.219  14.363  0.00  0.00    +0.000 A 
ATOM     31  C   UNL     1       5.787   3.710  13.212  0.00  0.00    +0.000 A 
ATOM     32  C   UNL     1       7.055   4.146  12.857  0.00  0.00    +0.000 A 
ATOM     33  C   UNL     1       7.675   5.076  13.675  0.00  0.00    +0.000 A 
ATOM     34  N   UNL     1       7.118   5.583  14.796  0.00  0.00    +0.000 NA
ENDBRANCH  28  29
ENDBRANCH   5  27
TORSDOF 6
ENDMDL
MODEL 8
REMARK VINA RESULT:      -8.6      5.342     11.152
REMARK  Name = 
REMARK  6 active torsions:
REMARK  status: ('A' for Active; 'I' for Inactive)
REMARK    1  A    between atoms: C_2  and  C_3
REMARK    2  A    between atoms: C_3  and  C_4
REMARK    3  A    between atoms: C_9  and  C_10
REMARK    4  A    between atoms: N_15  and  C_16
REMARK    5  A    between atoms: C_20  and  C_21
REMARK    6  A    between atoms: C_22  and  C_23
REMARK                            x       y       z     vdW  Elec       q    Type
REMARK                         _______ _______ _______ _____ _____    ______ ____
ROOT
ATOM      1  C   UNL     1       2.148   7.928  19.200  0.00  0.00    +0.000 A 
ATOM      2  C   UNL     1       2.765   8.116  17.960  0.00  0.00    +0.000 A 
ATOM      3  C   UNL     1       3.485   7.089  17.332  0.00  0.00    +0.000 A 
ATOM      4  C   UNL     1       3.598   5.840  17.969  0.00  0.00    +0.000 A 
ATOM      5  C   UNL     1       4.170   4.568  17.658  0.00  0.00    +0.000 A 
ATOM      6  N   UNL     1       3.996   3.702  18.669  0.00  0.00    +0.000 NA
ATOM      7  N   UNL     1       3.319   4.401  19.593  0.00  0.00    +0.000 N 
ATOM      8  C   UNL     1       3.029   5.690  19.228  0.00  0.00    +0.000 A 
ATOM      9  C   UNL     1       2.319   6.712  19.881  0.00  0.00    +0.000 A 
ATOM     10  H   UNL     1       3.064   3.934  20.452  0.00  0.00    +0.000 HD
ENDROOT
BRANCH   1  13
ATOM     11  O   UNL     1       1.745  10.723  18.378  0.00  0.00    +0.000 OA
ATOM     12  C   UNL     1       1.242  10.247  19.394  0.00  0.00    +0.000 C 
ATOM     13  N   UNL     1       1.351   8.927  19.814  0.00  0.00    +0.000 N 
ATOM     14  H   UNL     1       0.693   8.610  20.516  0.00  0.00    +0.000 HD
BRANCH  12  15
ATOM     15  C   UNL     1       0.399  11.121  20.310  0.00  0.00    +0.000 C 
BRANCH  15  16
ATOM     16  C   UNL     1      -0.991  11.413  19.789  0.00  0.00    +0.000 A 
ATOM     17  C   UNL     1      -1.804  12.372  20.400  0.00  0.00    +0.000 A 
ATOM     18  C   UNL     1      -3.107  12.590  19.944  0.00  0.00    +0.000 A 
ATOM     19  C   UNL     1      -3.624  11.852  18.871  0.00  0.00    +0.000 A 
ATOM     20 CL   UNL     1      -5.246  12.206  18.405  0.00  0.00    +0.000 Cl
ATOM     21  C   UNL     1      -2.836  10.885  18.241  0.00  0.00    +0.000 A 
ATOM     22  C   UNL     1      -1.519  10.677  18.720  0.00  0.00    +0.000 A 
BRANCH  21  23
ATOM     23  C   UNL     1      -3.285  10.038  17.078  0.00  0.00    +0.000 C 
ATOM     24  F   UNL     1      -4.111  10.621  16.174  0.00  0.00    +0.000 F 
ATOM     25  F   UNL     1      -2.218   9.581  16.357  0.00  0.00    +0.000 F 
ATOM     26  F   UNL     1      -3.937   8.913  17.497  0.00  0.00    +0.000 F 
ENDBRANCH  21  23
ENDBRANCH  15  16
ENDBRANCH  12  15
ENDBRANCH   1  13
BRANCH   5  27
ATOM     27  C   UNL     1       4.822   4.241  16.420  0.00  0.00    +0.000 C 
ATOM     28  C   UNL     1       5.454   5.124  15.625  0.00  0.00    +0.000 C 
BRANCH  28  29
ATOM     29  C   UNL     1       6.143   4.770  14.377  0.00  0.00    +0.000 A 
ATOM     30  C   UNL     1       5.593   3.822  13.519  0.00  0.00    +0.000 A 
ATOM     31  C   UNL     1       6.259   3.516  12.332  0.00  0.00    +0.000 A 
ATOM     32  C   UNL     1       7.450   4.164  12.035  0.00  0.00    +0.000 A 
ATOM     33  C   UNL     1       7.930   5.092  12.944  0.00  0.00    +0.000 A 
ATOM     34  N   UNL     1       7.307   5.404  14.101  0.00  0.00    +0.000 NA
ENDBRANCH  28  29
ENDBRANCH   5  27
TORSDOF 6
ENDMDL
MODEL 9
REMARK VINA RESULT:      -8.5      2.447      3.216
REMARK  Name = 
REMARK  6 active torsions:
REMARK  status: ('A' for Active; 'I' for Inactive)
REMARK    1  A    between atoms: C_2  and  C_3
REMARK    2  A    between atoms: C_3  and  C_4
REMARK    3  A    between atoms: C_9  and  C_10
REMARK    4  A    between atoms: N_15  and  C_16
REMARK    5  A    between atoms: C_20  and  C_21
REMARK    6  A    between atoms: C_22  and  C_23
REMARK                            x       y       z     vdW  Elec       q    Type
REMARK                         _______ _______ _______ _____ _____    ______ ____
ROOT
ATOM      1  C   UNL     1       1.944   7.664  19.979  0.00  0.00    +0.000 A 
ATOM      2  C   UNL     1       1.863   8.595  18.940  0.00  0.00    +0.000 A 
ATOM      3  C   UNL     1       1.296   9.864  19.128  0.00  0.00    +0.000 A 
ATOM      4  C   UNL     1       0.786  10.207  20.393  0.00  0.00    +0.000 A 
ATOM      5  C   UNL     1       0.203  11.365  20.995  0.00  0.00    +0.000 A 
ATOM      6  N   UNL     1      -0.130  11.128  22.273  0.00  0.00    +0.000 NA
ATOM      7  N   UNL     1       0.244   9.856  22.483  0.00  0.00    +0.000 N 
ATOM      8  C   UNL     1       0.821   9.249  21.399  0.00  0.00    +0.000 A 
ATOM      9  C   UNL     1       1.369   7.966  21.225  0.00  0.00    +0.000 A 
ATOM     10  H   UNL     1       0.096   9.462  23.402  0.00  0.00    +0.000 HD
ENDROOT
BRANCH   1  13
ATOM     11  O   UNL     1       0.938   4.992  20.684  0.00  0.00    +0.000 OA
ATOM     12  C   UNL     1       2.064   5.183  20.230  0.00  0.00    +0.000 C 
ATOM     13  N   UNL     1       2.584   6.408  19.831  0.00  0.00    +0.000 N 
ATOM     14  H   UNL     1       3.413   6.391  19.250  0.00  0.00    +0.000 HD
BRANCH  12  15
ATOM     15  C   UNL     1       3.020   4.014  20.045  0.00  0.00    +0.000 C 
BRANCH  15  16
ATOM     16  C   UNL     1       3.943   4.144  18.854  0.00  0.00    +0.000 A 
ATOM     17  C   UNL     1       3.518   3.792  17.569  0.00  0.00    +0.000 A 
ATOM     18  C   UNL     1       4.399   3.863  16.487  0.00  0.00    +0.000 A 
ATOM     19  C   UNL     1       5.723   4.284  16.667  0.00  0.00    +0.000 A 
ATOM     20 CL   UNL     1       6.716   4.321  15.259  0.00  0.00    +0.000 Cl
ATOM     21  C   UNL     1       6.179   4.640  17.940  0.00  0.00    +0.000 A 
ATOM     22  C   UNL     1       5.271   4.559  19.024  0.00  0.00    +0.000 A 
BRANCH  21  23
ATOM     23  C   UNL     1       7.577   5.111  18.249  0.00  0.00    +0.000 C 
ATOM     24  F   UNL     1       8.586   4.233  18.022  0.00  0.00    +0.000 F 
ATOM     25  F   UNL     1       7.895   6.227  17.529  0.00  0.00    +0.000 F 
ATOM     26  F   UNL     1       7.705   5.483  19.557  0.00  0.00    +0.000 F 
ENDBRANCH  21  23
ENDBRANCH  15  16
ENDBRANCH  12  15
ENDBRANCH   1  13
BRANCH   5  27
ATOM     27  C   UNL     1       0.019  12.628  20.335  0.00  0.00    +0.000 C 
ATOM     28  C   UNL     1       0.950  13.596  20.250  0.00  0.00    +0.000 C 
BRANCH  28  29
ATOM     29  C   UNL     1       0.756  14.871  19.545  0.00  0.00    +0.000 A 
ATOM     30  C   UNL     1       1.850  15.548  19.011  0.00  0.00    +0.000 A 
ATOM     31  C   UNL     1       1.636  16.748  18.332  0.00  0.00    +0.000 A 
ATOM     32  C   UNL     1       0.344  17.236  18.204  0.00  0.00    +0.000 A 
ATOM     33  C   UNL     1      -0.687  16.502  18.766  0.00  0.00    +0.000 A 
ATOM     34  N   UNL     1      -0.509  15.341  19.431  0.00  0.00    +0.000 NA
ENDBRANCH  28  29
ENDBRANCH   5  27
TORSDOF 6
ENDMDL
