MODEL 1
REMARK VINA RESULT:      -7.6      0.000      0.000
REMARK  Name = 
REMARK  6 active torsions:
REMARK  status: ('A' for Active; 'I' for Inactive)
REMARK    1  A    between atoms: C_1  and  C_2
REMARK    2  A    between atoms: N_4  and  C_5
REMARK    3  A    between atoms: C_5  and  C_6
REMARK    4  A    between atoms: N_8  and  C_9
REMARK    5  A    between atoms: C_12  and  N_13
REMARK    6  A    between atoms: N_13  and  O_14
REMARK                            x       y       z     vdW  Elec       q    Type
REMARK                         _______ _______ _______ _____ _____    ______ ____
ROOT
ATOM      1  C   UNL     1       6.526   5.190  15.737  0.00  0.00    +0.000 C 
ATOM      2  C   UNL     1       5.264   4.465  16.152  0.00  0.00    +0.000 C 
ATOM      3  N   UNL     1       5.346   4.456  17.583  0.00  0.00    +0.000 N 
ATOM      4  C   UNL     1       6.646   4.747  17.972  0.00  0.00    +0.000 C 
ATOM      5  O   UNL     1       7.138   4.730  19.087  0.00  0.00    +0.000 OA
ATOM      6  O   UNL     1       7.403   5.046  16.865  0.00  0.00    +0.000 OA
ENDROOT
BRANCH   3   7
ATOM      7  C   UNL     1       4.264   4.080  18.423  0.00  0.00    +0.000 A 
ATOM      8  C   UNL     1       4.342   2.980  19.284  0.00  0.00    +0.000 A 
ATOM      9  C   UNL     1       3.273   2.635  20.126  0.00  0.00    +0.000 A 
ATOM     10  C   UNL     1       2.108   3.403  20.157  0.00  0.00    +0.000 A 
ATOM     11  C   UNL     1       2.004   4.476  19.271  0.00  0.00    +0.000 A 
ATOM     12  C   UNL     1       3.069   4.816  18.423  0.00  0.00    +0.000 A 
BRANCH  10  13
ATOM     13  N   UNL     1       1.027   3.015  20.983  0.00  0.00    +0.000 N 
ATOM     14  H   UNL     1       0.377   2.411  20.479  0.00  0.00    +0.000 HD
BRANCH  13  15
ATOM     15  O   UNL     1       1.308   2.508  22.255  0.00  0.00    +0.000 OA
ATOM     16  H   UNL     1       1.996   1.839  22.082  0.00  0.00    +0.000 HD
ENDBRANCH  13  15
ENDBRANCH  10  13
ENDBRANCH   3   7
BRANCH   1  17
ATOM     17  C   UNL     1       7.174   4.571  14.498  0.00  0.00    +0.000 C 
BRANCH  17  21
ATOM     18  C   UNL     1       5.384   2.593  11.810  0.00  0.00    +0.000 C 
ATOM     19  C   UNL     1       6.384   3.555  12.392  0.00  0.00    +0.000 C 
ATOM     20  O   UNL     1       7.230   4.130  11.717  0.00  0.00    +0.000 OA
ATOM     21  N   UNL     1       6.260   3.724  13.752  0.00  0.00    +0.000 N 
ATOM     22  H   UNL     1       5.672   3.082  14.272  0.00  0.00    +0.000 HD
ENDBRANCH  17  21
ENDBRANCH   1  17
TORSDOF 5
ENDMDL
MODEL 2
REMARK VINA RESULT:      -7.5      0.072      1.098
REMARK  Name = 
REMARK  6 active torsions:
REMARK  status: ('A' for Active; 'I' for Inactive)
REMARK    1  A    between atoms: C_1  and  C_2
REMARK    2  A    between atoms: N_4  and  C_5
REMARK    3  A    between atoms: C_5  and  C_6
REMARK    4  A    between atoms: N_8  and  C_9
REMARK    5  A    between atoms: C_12  and  N_13
REMARK    6  A    between atoms: N_13  and  O_14
REMARK                            x       y       z     vdW  Elec       q    Type
REMARK                         _______ _______ _______ _____ _____    ______ ____
ROOT
ATOM      1  C   UNL     1       6.543   5.191  15.716  0.00  0.00    +0.000 C 
ATOM      2  C   UNL     1       5.278   4.481  16.147  0.00  0.00    +0.000 C 
ATOM      3  N   UNL     1       5.366   4.493  17.577  0.00  0.00    +0.000 N 
ATOM      4  C   UNL     1       6.670   4.781  17.956  0.00  0.00    +0.000 C 
ATOM      5  O   UNL     1       7.167   4.777  19.069  0.00  0.00    +0.000 OA
ATOM      6  O   UNL     1       7.424   5.058  16.841  0.00  0.00    +0.000 OA
ENDROOT
BRANCH   3   7
ATOM      7  C   UNL     1       4.286   4.138  18.427  0.00  0.00    +0.000 A 
ATOM      8  C   UNL     1       3.046   4.783  18.360  0.00  0.00    +0.000 A 
ATOM      9  C   UNL     1       1.980   4.405  19.192  0.00  0.00    +0.000 A 
ATOM     10  C   UNL     1       2.112   3.345  20.089  0.00  0.00    +0.000 A 
ATOM     11  C   UNL     1       3.357   2.722  20.194  0.00  0.00    +0.000 A 
ATOM     12  C   UNL     1       4.425   3.107  19.369  0.00  0.00    +0.000 A 
BRANCH  10  13
ATOM     13  N   UNL     1       1.038   3.005  20.945  0.00  0.00    +0.000 N 
ATOM     14  H   UNL     1       0.342   2.441  20.456  0.00  0.00    +0.000 HD
BRANCH  13  15
ATOM     15  O   UNL     1       1.331   2.472  22.203  0.00  0.00    +0.000 OA
ATOM     16  H   UNL     1       0.450   2.357  22.607  0.00  0.00    +0.000 HD
ENDBRANCH  13  15
ENDBRANCH  10  13
ENDBRANCH   3   7
BRANCH   1  17
ATOM     17  C   UNL     1       7.181   4.550  14.483  0.00  0.00    +0.000 C 
BRANCH  17  21
ATOM     18  C   UNL     1       5.353   2.585  11.811  0.00  0.00    +0.000 C 
ATOM     19  C   UNL     1       6.366   3.538  12.385  0.00  0.00    +0.000 C 
ATOM     20  O   UNL     1       7.213   4.105  11.703  0.00  0.00    +0.000 OA
ATOM     21  N   UNL     1       6.254   3.710  13.745  0.00  0.00    +0.000 N 
ATOM     22  H   UNL     1       5.665   3.074  14.270  0.00  0.00    +0.000 HD
ENDBRANCH  17  21
ENDBRANCH   1  17
TORSDOF 5
ENDMDL
MODEL 3
REMARK VINA RESULT:      -7.5      1.046      1.075
REMARK  Name = 
REMARK  6 active torsions:
REMARK  status: ('A' for Active; 'I' for Inactive)
REMARK    1  A    between atoms: C_1  and  C_2
REMARK    2  A    between atoms: N_4  and  C_5
REMARK    3  A    between atoms: C_5  and  C_6
REMARK    4  A    between atoms: N_8  and  C_9
REMARK    5  A    between atoms: C_12  and  N_13
REMARK    6  A    between atoms: N_13  and  O_14
REMARK                            x       y       z     vdW  Elec       q    Type
REMARK                         _______ _______ _______ _____ _____    ______ ____
ROOT
ATOM      1  C   UNL     1       6.431   4.862  15.079  0.00  0.00    +0.000 C 
ATOM      2  C   UNL     1       5.203   4.381  15.821  0.00  0.00    +0.000 C 
ATOM      3  N   UNL     1       5.608   4.432  17.195  0.00  0.00    +0.000 N 
ATOM      4  C   UNL     1       6.992   4.521  17.263  0.00  0.00    +0.000 C 
ATOM      5  O   UNL     1       7.718   4.478  18.241  0.00  0.00    +0.000 OA
ATOM      6  O   UNL     1       7.511   4.632  15.996  0.00  0.00    +0.000 OA
ENDROOT
BRANCH   3   7
ATOM      7  C   UNL     1       4.705   4.287  18.280  0.00  0.00    +0.000 A 
ATOM      8  C   UNL     1       4.447   3.044  18.869  0.00  0.00    +0.000 A 
ATOM      9  C   UNL     1       3.569   2.920  19.956  0.00  0.00    +0.000 A 
ATOM     10  C   UNL     1       2.949   4.040  20.510  0.00  0.00    +0.000 A 
ATOM     11  C   UNL     1       3.166   5.279  19.903  0.00  0.00    +0.000 A 
ATOM     12  C   UNL     1       4.037   5.402  18.810  0.00  0.00    +0.000 A 
BRANCH  10  13
ATOM     13  N   UNL     1       2.037   3.888  21.580  0.00  0.00    +0.000 N 
ATOM     14  H   UNL     1       1.143   4.333  21.368  0.00  0.00    +0.000 HD
BRANCH  13  15
ATOM     15  O   UNL     1       1.853   2.614  22.125  0.00  0.00    +0.000 OA
ATOM     16  H   UNL     1       0.887   2.487  22.073  0.00  0.00    +0.000 HD
ENDBRANCH  13  15
ENDBRANCH  10  13
ENDBRANCH   3   7
BRANCH   1  17
ATOM     17  C   UNL     1       6.675   4.082  13.787  0.00  0.00    +0.000 C 
BRANCH  17  21
ATOM     18  C   UNL     1       4.071   3.101  11.219  0.00  0.00    +0.000 C 
ATOM     19  C   UNL     1       5.398   3.081  11.928  0.00  0.00    +0.000 C 
ATOM     20  O   UNL     1       6.309   2.319  11.622  0.00  0.00    +0.000 OA
ATOM     21  N   UNL     1       5.490   3.994  12.953  0.00  0.00    +0.000 N 
ATOM     22  H   UNL     1       4.645   4.454  13.274  0.00  0.00    +0.000 HD
ENDBRANCH  17  21
ENDBRANCH   1  17
TORSDOF 5
ENDMDL
MODEL 4
REMARK VINA RESULT:      -7.4      1.101      1.496
REMARK  Name = 
REMARK  6 active torsions:
REMARK  status: ('A' for Active; 'I' for Inactive)
REMARK    1  A    between atoms: C_1  and  C_2
REMARK    2  A    between atoms: N_4  and  C_5
REMARK    3  A    between atoms: C_5  and  C_6
REMARK    4  A    between atoms: N_8  and  C_9
REMARK    5  A    between atoms: C_12  and  N_13
REMARK    6  A    between atoms: N_13  and  O_14
REMARK                            x       y       z     vdW  Elec       q    Type
REMARK                         _______ _______ _______ _____ _____    ______ ____
ROOT
ATOM      1  C   UNL     1       6.388   4.839  15.009  0.00  0.00    +0.000 C 
ATOM      2  C   UNL     1       5.176   4.340  15.764  0.00  0.00    +0.000 C 
ATOM      3  N   UNL     1       5.596   4.397  17.134  0.00  0.00    +0.000 N 
ATOM      4  C   UNL     1       6.978   4.505  17.187  0.00  0.00    +0.000 C 
ATOM      5  O   UNL     1       7.716   4.473  18.157  0.00  0.00    +0.000 OA
ATOM      6  O   UNL     1       7.482   4.624  15.914  0.00  0.00    +0.000 OA
ENDROOT
BRANCH   3   7
ATOM      7  C   UNL     1       4.706   4.238  18.229  0.00  0.00    +0.000 A 
ATOM      8  C   UNL     1       4.126   5.333  18.878  0.00  0.00    +0.000 A 
ATOM      9  C   UNL     1       3.231   5.159  19.945  0.00  0.00    +0.000 A 
ATOM     10  C   UNL     1       2.860   3.883  20.370  0.00  0.00    +0.000 A 
ATOM     11  C   UNL     1       3.466   2.784  19.757  0.00  0.00    +0.000 A 
ATOM     12  C   UNL     1       4.368   2.958  18.697  0.00  0.00    +0.000 A 
BRANCH  10  13
ATOM     13  N   UNL     1       1.987   3.730  21.471  0.00  0.00    +0.000 N 
ATOM     14  H   UNL     1       1.708   4.637  21.848  0.00  0.00    +0.000 HD
BRANCH  13  15
ATOM     15  O   UNL     1       0.888   2.876  21.339  0.00  0.00    +0.000 OA
ATOM     16  H   UNL     1       0.278   3.384  20.772  0.00  0.00    +0.000 HD
ENDBRANCH  13  15
ENDBRANCH  10  13
ENDBRANCH   3   7
BRANCH   1  17
ATOM     17  C   UNL     1       6.630   4.062  13.714  0.00  0.00    +0.000 C 
BRANCH  17  21
ATOM     18  C   UNL     1       3.999   3.110  11.161  0.00  0.00    +0.000 C 
ATOM     19  C   UNL     1       5.314   3.046  11.890  0.00  0.00    +0.000 C 
ATOM     20  O   UNL     1       6.179   2.215  11.638  0.00  0.00    +0.000 OA
ATOM     21  N   UNL     1       5.450   4.004  12.868  0.00  0.00    +0.000 N 
ATOM     22  H   UNL     1       4.633   4.532  13.152  0.00  0.00    +0.000 HD
ENDBRANCH  17  21
ENDBRANCH   1  17
TORSDOF 5
ENDMDL
MODEL 5
REMARK VINA RESULT:      -7.1      1.833      2.073
REMARK  Name = 
REMARK  6 active torsions:
REMARK  status: ('A' for Active; 'I' for Inactive)
REMARK    1  A    between atoms: C_1  and  C_2
REMARK    2  A    between atoms: N_4  and  C_5
REMARK    3  A    between atoms: C_5  and  C_6
REMARK    4  A    between atoms: N_8  and  C_9
REMARK    5  A    between atoms: C_12  and  N_13
REMARK    6  A    between atoms: N_13  and  O_14
REMARK                            x       y       z     vdW  Elec       q    Type
REMARK                         _______ _______ _______ _____ _____    ______ ____
ROOT
ATOM      1  C   UNL     1       6.494   4.782  14.325  0.00  0.00    +0.000 C 
ATOM      2  C   UNL     1       5.233   4.642  15.149  0.00  0.00    +0.000 C 
ATOM      3  N   UNL     1       5.703   4.786  16.495  0.00  0.00    +0.000 N 
ATOM      4  C   UNL     1       7.080   4.616  16.523  0.00  0.00    +0.000 C 
ATOM      5  O   UNL     1       7.830   4.558  17.483  0.00  0.00    +0.000 OA
ATOM      6  O   UNL     1       7.553   4.465  15.241  0.00  0.00    +0.000 OA
ENDROOT
BRANCH   3   7
ATOM      7  C   UNL     1       4.838   4.955  17.609  0.00  0.00    +0.000 A 
ATOM      8  C   UNL     1       4.582   3.917  18.512  0.00  0.00    +0.000 A 
ATOM      9  C   UNL     1       3.743   4.105  19.621  0.00  0.00    +0.000 A 
ATOM     10  C   UNL     1       3.164   5.348  19.880  0.00  0.00    +0.000 A 
ATOM     11  C   UNL     1       3.379   6.378  18.962  0.00  0.00    +0.000 A 
ATOM     12  C   UNL     1       4.210   6.187  17.848  0.00  0.00    +0.000 A 
BRANCH  10  13
ATOM     13  N   UNL     1       2.291   5.506  20.981  0.00  0.00    +0.000 N 
ATOM     14  H   UNL     1       2.725   5.178  21.845  0.00  0.00    +0.000 HD
BRANCH  13  15
ATOM     15  O   UNL     1       1.667   6.743  21.166  0.00  0.00    +0.000 OA
ATOM     16  H   UNL     1       1.233   6.905  20.308  0.00  0.00    +0.000 HD
ENDBRANCH  13  15
ENDBRANCH  10  13
ENDBRANCH   3   7
BRANCH   1  17
ATOM     17  C   UNL     1       6.529   3.812  13.142  0.00  0.00    +0.000 C 
BRANCH  17  21
ATOM     18  C   UNL     1       3.636   3.053  10.819  0.00  0.00    +0.000 C 
ATOM     19  C   UNL     1       4.940   2.822  11.535  0.00  0.00    +0.000 C 
ATOM     20  O   UNL     1       5.592   1.790  11.421  0.00  0.00    +0.000 OA
ATOM     21  N   UNL     1       5.326   3.876  12.330  0.00  0.00    +0.000 N 
ATOM     22  H   UNL     1       4.656   4.610  12.527  0.00  0.00    +0.000 HD
ENDBRANCH  17  21
ENDBRANCH   1  17
TORSDOF 5
ENDMDL
MODEL 6
REMARK VINA RESULT:      -7.1      2.024      2.457
REMARK  Name = 
REMARK  6 active torsions:
REMARK  status: ('A' for Active; 'I' for Inactive)
REMARK    1  A    between atoms: C_1  and  C_2
REMARK    2  A    between atoms: N_4  and  C_5
REMARK    3  A    between atoms: C_5  and  C_6
REMARK    4  A    between atoms: N_8  and  C_9
REMARK    5  A    between atoms: C_12  and  N_13
REMARK    6  A    between atoms: N_13  and  O_14
REMARK                            x       y       z     vdW  Elec       q    Type
REMARK                         _______ _______ _______ _____ _____    ______ ____
ROOT
ATOM      1  C   UNL     1       6.605   4.817  14.703  0.00  0.00    +0.000 C 
ATOM      2  C   UNL     1       5.257   4.918  15.383  0.00  0.00    +0.000 C 
ATOM      3  N   UNL     1       5.598   5.050  16.769  0.00  0.00    +0.000 N 
ATOM      4  C   UNL     1       6.918   4.665  16.957  0.00  0.00    +0.000 C 
ATOM      5  O   UNL     1       7.542   4.534  17.997  0.00  0.00    +0.000 OA
ATOM      6  O   UNL     1       7.494   4.380  15.742  0.00  0.00    +0.000 OA
ENDROOT
BRANCH   3   7
ATOM      7  C   UNL     1       4.659   5.405  17.772  0.00  0.00    +0.000 A 
ATOM      8  C   UNL     1       3.935   6.602  17.720  0.00  0.00    +0.000 A 
ATOM      9  C   UNL     1       2.993   6.929  18.708  0.00  0.00    +0.000 A 
ATOM     10  C   UNL     1       2.720   6.051  19.758  0.00  0.00    +0.000 A 
ATOM     11  C   UNL     1       3.467   4.875  19.842  0.00  0.00    +0.000 A 
ATOM     12  C   UNL     1       4.415   4.552  18.860  0.00  0.00    +0.000 A 
BRANCH  10  13
ATOM     13  N   UNL     1       1.795   6.417  20.764  0.00  0.00    +0.000 N 
ATOM     14  H   UNL     1       1.826   5.763  21.547  0.00  0.00    +0.000 HD
BRANCH  13  15
ATOM     15  O   UNL     1       1.784   7.741  21.210  0.00  0.00    +0.000 OA
ATOM     16  H   UNL     1       2.217   8.226  20.482  0.00  0.00    +0.000 HD
ENDBRANCH  13  15
ENDBRANCH  10  13
ENDBRANCH   3   7
BRANCH   1  17
ATOM     17  C   UNL     1       6.607   3.799  13.561  0.00  0.00    +0.000 C 
BRANCH  17  21
ATOM     18  C   UNL     1       3.832   3.167  11.063  0.00  0.00    +0.000 C 
ATOM     19  C   UNL     1       5.135   2.935  11.779  0.00  0.00    +0.000 C 
ATOM     20  O   UNL     1       5.870   1.984  11.539  0.00  0.00    +0.000 OA
ATOM     21  N   UNL     1       5.419   3.888  12.729  0.00  0.00    +0.000 N 
ATOM     22  H   UNL     1       4.689   4.533  13.009  0.00  0.00    +0.000 HD
ENDBRANCH  17  21
ENDBRANCH   1  17
TORSDOF 5
ENDMDL
MODEL 7
REMARK VINA RESULT:      -7.1      0.997      1.099
REMARK  Name = 
REMARK  6 active torsions:
REMARK  status: ('A' for Active; 'I' for Inactive)
REMARK    1  A    between atoms: C_1  and  C_2
REMARK    2  A    between atoms: N_4  and  C_5
REMARK    3  A    between atoms: C_5  and  C_6
REMARK    4  A    between atoms: N_8  and  C_9
REMARK    5  A    between atoms: C_12  and  N_13
REMARK    6  A    between atoms: N_13  and  O_14
REMARK                            x       y       z     vdW  Elec       q    Type
REMARK                         _______ _______ _______ _____ _____    ______ ____
ROOT
ATOM      1  C   UNL     1       6.793   5.358  15.421  0.00  0.00    +0.000 C 
ATOM      2  C   UNL     1       5.391   4.926  15.790  0.00  0.00    +0.000 C 
ATOM      3  N   UNL     1       5.460   4.767  17.212  0.00  0.00    +0.000 N 
ATOM      4  C   UNL     1       6.790   4.698  17.604  0.00  0.00    +0.000 C 
ATOM      5  O   UNL     1       7.257   4.460  18.705  0.00  0.00    +0.000 OA
ATOM      6  O   UNL     1       7.603   4.904  16.516  0.00  0.00    +0.000 OA
ENDROOT
BRANCH   3   7
ATOM      7  C   UNL     1       4.315   4.590  18.033  0.00  0.00    +0.000 A 
ATOM      8  C   UNL     1       4.162   5.267  19.248  0.00  0.00    +0.000 A 
ATOM      9  C   UNL     1       3.014   5.099  20.038  0.00  0.00    +0.000 A 
ATOM     10  C   UNL     1       1.968   4.277  19.617  0.00  0.00    +0.000 A 
ATOM     11  C   UNL     1       2.130   3.564  18.428  0.00  0.00    +0.000 A 
ATOM     12  C   UNL     1       3.282   3.725  17.643  0.00  0.00    +0.000 A 
BRANCH  10  13
ATOM     13  N   UNL     1       0.837   4.091  20.446  0.00  0.00    +0.000 N 
ATOM     14  H   UNL     1       0.065   4.693  20.156  0.00  0.00    +0.000 HD
BRANCH  13  15
ATOM     15  O   UNL     1       0.397   2.787  20.692  0.00  0.00    +0.000 OA
ATOM     16  H   UNL     1       0.425   2.722  21.665  0.00  0.00    +0.000 HD
ENDBRANCH  13  15
ENDBRANCH  10  13
ENDBRANCH   3   7
BRANCH   1  17
ATOM     17  C   UNL     1       7.278   4.717  14.120  0.00  0.00    +0.000 C 
BRANCH  17  21
ATOM     18  C   UNL     1       5.295   2.459  11.816  0.00  0.00    +0.000 C 
ATOM     19  C   UNL     1       6.364   3.440  12.217  0.00  0.00    +0.000 C 
ATOM     20  O   UNL     1       7.216   3.856  11.440  0.00  0.00    +0.000 OA
ATOM     21  N   UNL     1       6.296   3.820  13.537  0.00  0.00    +0.000 N 
ATOM     22  H   UNL     1       5.694   3.300  14.165  0.00  0.00    +0.000 HD
ENDBRANCH  17  21
ENDBRANCH   1  17
TORSDOF 5
ENDMDL
MODEL 8
REMARK VINA RESULT:      -7.0      3.256      4.994
REMARK  Name = 
REMARK  6 active torsions:
REMARK  status: ('A' for Active; 'I' for Inactive)
REMARK    1  A    between atoms: C_1  and  C_2
REMARK    2  A    between atoms: N_4  and  C_5
REMARK    3  A    between atoms: C_5  and  C_6
REMARK    4  A    between atoms: N_8  and  C_9
REMARK    5  A    between atoms: C_12  and  N_13
REMARK    6  A    between atoms: N_13  and  O_14
REMARK                            x       y       z     vdW  Elec       q    Type
REMARK                         _______ _______ _______ _____ _____    ______ ____
ROOT
ATOM      1  C   UNL     1       7.557   6.603  17.663  0.00  0.00    +0.000 C 
ATOM      2  C   UNL     1       6.212   6.225  18.242  0.00  0.00    +0.000 C 
ATOM      3  N   UNL     1       5.859   5.045  17.510  0.00  0.00    +0.000 N 
ATOM      4  C   UNL     1       6.651   4.953  16.374  0.00  0.00    +0.000 C 
ATOM      5  O   UNL     1       6.585   4.160  15.450  0.00  0.00    +0.000 OA
ATOM      6  O   UNL     1       7.580   5.966  16.376  0.00  0.00    +0.000 OA
ENDROOT
BRANCH   3   7
ATOM      7  C   UNL     1       4.775   4.200  17.868  0.00  0.00    +0.000 A 
ATOM      8  C   UNL     1       3.648   4.053  17.052  0.00  0.00    +0.000 A 
ATOM      9  C   UNL     1       2.595   3.196  17.409  0.00  0.00    +0.000 A 
ATOM     10  C   UNL     1       2.655   2.433  18.576  0.00  0.00    +0.000 A 
ATOM     11  C   UNL     1       3.756   2.604  19.418  0.00  0.00    +0.000 A 
ATOM     12  C   UNL     1       4.804   3.468  19.065  0.00  0.00    +0.000 A 
BRANCH  10  13
ATOM     13  N   UNL     1       1.567   1.605  18.937  0.00  0.00    +0.000 N 
ATOM     14  H   UNL     1       1.501   1.506  19.951  0.00  0.00    +0.000 HD
BRANCH  13  15
ATOM     15  O   UNL     1       0.316   1.864  18.370  0.00  0.00    +0.000 OA
ATOM     16  H   UNL     1       0.489   1.812  17.412  0.00  0.00    +0.000 HD
ENDBRANCH  13  15
ENDBRANCH  10  13
ENDBRANCH   3   7
BRANCH   1  17
ATOM     17  C   UNL     1       7.716   8.115  17.493  0.00  0.00    +0.000 C 
BRANCH  17  21
ATOM     18  C   UNL     1       9.622  10.496  19.737  0.00  0.00    +0.000 C 
ATOM     19  C   UNL     1       8.788  10.063  18.562  0.00  0.00    +0.000 C 
ATOM     20  O   UNL     1       8.358  10.846  17.722  0.00  0.00    +0.000 OA
ATOM     21  N   UNL     1       8.550   8.709  18.523  0.00  0.00    +0.000 N 
ATOM     22  H   UNL     1       8.769   8.151  19.340  0.00  0.00    +0.000 HD
ENDBRANCH  17  21
ENDBRANCH   1  17
TORSDOF 5
ENDMDL
MODEL 9
REMARK VINA RESULT:      -7.0      1.375      1.745
REMARK  Name = 
REMARK  6 active torsions:
REMARK  status: ('A' for Active; 'I' for Inactive)
REMARK    1  A    between atoms: C_1  and  C_2
REMARK    2  A    between atoms: N_4  and  C_5
REMARK    3  A    between atoms: C_5  and  C_6
REMARK    4  A    between atoms: N_8  and  C_9
REMARK    5  A    between atoms: C_12  and  N_13
REMARK    6  A    between atoms: N_13  and  O_14
REMARK                            x       y       z     vdW  Elec       q    Type
REMARK                         _______ _______ _______ _____ _____    ______ ____
ROOT
ATOM      1  C   UNL     1       5.411   5.051  14.950  0.00  0.00    +0.000 C 
ATOM      2  C   UNL     1       4.848   4.053  15.939  0.00  0.00    +0.000 C 
ATOM      3  N   UNL     1       4.318   4.885  16.979  0.00  0.00    +0.000 N 
ATOM      4  C   UNL     1       4.844   6.164  16.859  0.00  0.00    +0.000 C 
ATOM      5  O   UNL     1       4.724   7.119  17.607  0.00  0.00    +0.000 OA
ATOM      6  O   UNL     1       5.620   6.239  15.728  0.00  0.00    +0.000 OA
ENDROOT
BRANCH   3   7
ATOM      7  C   UNL     1       3.483   4.396  18.018  0.00  0.00    +0.000 A 
ATOM      8  C   UNL     1       2.123   4.719  18.091  0.00  0.00    +0.000 A 
ATOM      9  C   UNL     1       1.306   4.210  19.111  0.00  0.00    +0.000 A 
ATOM     10  C   UNL     1       1.816   3.332  20.069  0.00  0.00    +0.000 A 
ATOM     11  C   UNL     1       3.180   3.038  20.030  0.00  0.00    +0.000 A 
ATOM     12  C   UNL     1       3.999   3.555  19.015  0.00  0.00    +0.000 A 
BRANCH  10  13
ATOM     13  N   UNL     1       0.984   2.862  21.111  0.00  0.00    +0.000 N 
ATOM     14  H   UNL     1       0.360   2.125  20.780  0.00  0.00    +0.000 HD
BRANCH  13  15
ATOM     15  O   UNL     1       1.573   2.515  22.330  0.00  0.00    +0.000 OA
ATOM     16  H   UNL     1       2.528   2.609  22.152  0.00  0.00    +0.000 HD
ENDBRANCH  13  15
ENDBRANCH  10  13
ENDBRANCH   3   7
BRANCH   1  17
ATOM     17  C   UNL     1       6.738   4.589  14.346  0.00  0.00    +0.000 C 
BRANCH  17  21
ATOM     18  C   UNL     1       6.751   2.221  11.391  0.00  0.00    +0.000 C 
ATOM     19  C   UNL     1       6.924   3.521  12.129  0.00  0.00    +0.000 C 
ATOM     20  O   UNL     1       7.335   4.545  11.595  0.00  0.00    +0.000 OA
ATOM     21  N   UNL     1       6.583   3.448  13.460  0.00  0.00    +0.000 N 
ATOM     22  H   UNL     1       6.435   2.536  13.878  0.00  0.00    +0.000 HD
ENDBRANCH  17  21
ENDBRANCH   1  17
TORSDOF 5
ENDMDL
