MODEL 1
REMARK VINA RESULT:      -6.5      0.000      0.000
REMARK  Name = 
REMARK  0 active torsions:
REMARK  status: ('A' for Active; 'I' for Inactive)
REMARK                            x       y       z     vdW  Elec       q    Type
REMARK                         _______ _______ _______ _____ _____    ______ ____
ROOT
ATOM      1  N   UNL     1       9.127  12.049  22.768  0.00  0.00    +0.000 NA
ATOM      2  C   UNL     1       9.311  12.688  21.643  0.00  0.00    +0.000 C 
ATOM      3  N   UNL     1       9.844  12.052  20.522  0.00  0.00    +0.000 N 
ATOM      4  C   UNL     1       9.544  10.655  20.199  0.00  0.00    +0.000 C 
ATOM      5  C   UNL     1       9.038  10.524  18.770  0.00  0.00    +0.000 C 
ATOM      6  C   UNL     1      10.076  11.021  17.776  0.00  0.00    +0.000 C 
ATOM      7  C   UNL     1      10.809  12.245  18.256  0.00  0.00    +0.000 A 
ATOM      8  C   UNL     1      11.596  12.959  17.333  0.00  0.00    +0.000 A 
ATOM      9  C   UNL     1      12.329  14.075  17.733  0.00  0.00    +0.000 A 
ATOM     10  C   UNL     1      12.327  14.453  19.066  0.00  0.00    +0.000 A 
ATOM     11  C   UNL     1      11.567  13.732  19.988  0.00  0.00    +0.000 A 
ATOM     12  C   UNL     1      10.745  12.661  19.599  0.00  0.00    +0.000 A 
ATOM     13  N   UNL     1       9.005  14.045  21.578  0.00  0.00    +0.000 N 
ATOM     14  C   UNL     1       9.128  14.895  22.764  0.00  0.00    +0.000 C 
ATOM     15  C   UNL     1      10.029  16.088  22.462  0.00  0.00    +0.000 C 
ATOM     16  C   UNL     1       9.470  16.924  21.316  0.00  0.00    +0.000 C 
ATOM     17  C   UNL     1       8.795  16.104  20.246  0.00  0.00    +0.000 A 
ATOM     18  C   UNL     1       8.417  16.742  19.051  0.00  0.00    +0.000 A 
ATOM     19  C   UNL     1       7.744  16.040  18.054  0.00  0.00    +0.000 A 
ATOM     20  C   UNL     1       7.406  14.709  18.256  0.00  0.00    +0.000 A 
ATOM     21  C   UNL     1       7.777  14.072  19.442  0.00  0.00    +0.000 A 
ATOM     22  C   UNL     1       8.517  14.737  20.438  0.00  0.00    +0.000 A 
ATOM     23  H   UNL     1       9.456  11.091  22.656  0.00  0.00    +0.000 HD
ENDROOT
TORSDOF 0
ENDMDL
MODEL 2
REMARK VINA RESULT:      -6.5      9.137     11.073
REMARK  Name = 
REMARK  0 active torsions:
REMARK  status: ('A' for Active; 'I' for Inactive)
REMARK                            x       y       z     vdW  Elec       q    Type
REMARK                         _______ _______ _______ _____ _____    ______ ____
ROOT
ATOM      1  N   UNL     1       2.935   1.784  17.214  0.00  0.00    +0.000 NA
ATOM      2  C   UNL     1       3.344   2.973  17.569  0.00  0.00    +0.000 C 
ATOM      3  N   UNL     1       4.460   3.566  16.980  0.00  0.00    +0.000 N 
ATOM      4  C   UNL     1       4.784   3.387  15.562  0.00  0.00    +0.000 C 
ATOM      5  C   UNL     1       4.974   4.731  14.874  0.00  0.00    +0.000 C 
ATOM      6  C   UNL     1       6.105   5.518  15.516  0.00  0.00    +0.000 C 
ATOM      7  C   UNL     1       6.144   5.374  17.014  0.00  0.00    +0.000 A 
ATOM      8  C   UNL     1       6.961   6.252  17.751  0.00  0.00    +0.000 A 
ATOM      9  C   UNL     1       7.066   6.136  19.135  0.00  0.00    +0.000 A 
ATOM     10  C   UNL     1       6.402   5.111  19.789  0.00  0.00    +0.000 A 
ATOM     11  C   UNL     1       5.609   4.225  19.058  0.00  0.00    +0.000 A 
ATOM     12  C   UNL     1       5.408   4.372  17.676  0.00  0.00    +0.000 A 
ATOM     13  N   UNL     1       2.672   3.642  18.589  0.00  0.00    +0.000 N 
ATOM     14  C   UNL     1       2.022   2.897  19.669  0.00  0.00    +0.000 C 
ATOM     15  C   UNL     1       2.531   3.384  21.022  0.00  0.00    +0.000 C 
ATOM     16  C   UNL     1       2.249   4.870  21.213  0.00  0.00    +0.000 C 
ATOM     17  C   UNL     1       2.370   5.675  19.944  0.00  0.00    +0.000 A 
ATOM     18  C   UNL     1       2.328   7.077  20.033  0.00  0.00    +0.000 A 
ATOM     19  C   UNL     1       2.383   7.864  18.885  0.00  0.00    +0.000 A 
ATOM     20  C   UNL     1       2.439   7.258  17.637  0.00  0.00    +0.000 A 
ATOM     21  C   UNL     1       2.481   5.866  17.544  0.00  0.00    +0.000 A 
ATOM     22  C   UNL     1       2.495   5.048  18.689  0.00  0.00    +0.000 A 
ATOM     23  H   UNL     1       3.570   1.419  16.505  0.00  0.00    +0.000 HD
ENDROOT
TORSDOF 0
ENDMDL
MODEL 3
REMARK VINA RESULT:      -6.5      9.046     11.632
REMARK  Name = 
REMARK  0 active torsions:
REMARK  status: ('A' for Active; 'I' for Inactive)
REMARK                            x       y       z     vdW  Elec       q    Type
REMARK                         _______ _______ _______ _____ _____    ______ ____
ROOT
ATOM      1  N   UNL     1       3.023   1.763  17.309  0.00  0.00    +0.000 NA
ATOM      2  C   UNL     1       3.413   2.945  17.705  0.00  0.00    +0.000 C 
ATOM      3  N   UNL     1       2.737   3.635  18.712  0.00  0.00    +0.000 N 
ATOM      4  C   UNL     1       2.137   2.953  19.861  0.00  0.00    +0.000 C 
ATOM      5  C   UNL     1       2.617   3.566  21.168  0.00  0.00    +0.000 C 
ATOM      6  C   UNL     1       2.243   5.037  21.251  0.00  0.00    +0.000 C 
ATOM      7  C   UNL     1       2.381   5.753  19.934  0.00  0.00    +0.000 A 
ATOM      8  C   UNL     1       2.328   7.159  19.927  0.00  0.00    +0.000 A 
ATOM      9  C   UNL     1       2.410   7.870  18.732  0.00  0.00    +0.000 A 
ATOM     10  C   UNL     1       2.488   7.184  17.530  0.00  0.00    +0.000 A 
ATOM     11  C   UNL     1       2.517   5.789  17.533  0.00  0.00    +0.000 A 
ATOM     12  C   UNL     1       2.531   5.046  18.726  0.00  0.00    +0.000 A 
ATOM     13  N   UNL     1       4.502   3.543  17.079  0.00  0.00    +0.000 N 
ATOM     14  C   UNL     1       4.796   3.271  15.670  0.00  0.00    +0.000 C 
ATOM     15  C   UNL     1       4.879   4.578  14.889  0.00  0.00    +0.000 C 
ATOM     16  C   UNL     1       5.968   5.485  15.449  0.00  0.00    +0.000 C 
ATOM     17  C   UNL     1       6.107   5.406  16.948  0.00  0.00    +0.000 A 
ATOM     18  C   UNL     1       6.938   6.337  17.595  0.00  0.00    +0.000 A 
ATOM     19  C   UNL     1       7.140   6.273  18.972  0.00  0.00    +0.000 A 
ATOM     20  C   UNL     1       6.548   5.256  19.709  0.00  0.00    +0.000 A 
ATOM     21  C   UNL     1       5.723   4.328  19.070  0.00  0.00    +0.000 A 
ATOM     22  C   UNL     1       5.447   4.409  17.693  0.00  0.00    +0.000 A 
ATOM     23  H   UNL     1       2.185   1.504  17.828  0.00  0.00    +0.000 HD
ENDROOT
TORSDOF 0
ENDMDL
MODEL 4
REMARK VINA RESULT:      -6.4      0.131      4.756
REMARK  Name = 
REMARK  0 active torsions:
REMARK  status: ('A' for Active; 'I' for Inactive)
REMARK                            x       y       z     vdW  Elec       q    Type
REMARK                         _______ _______ _______ _____ _____    ______ ____
ROOT
ATOM      1  N   UNL     1       9.160  12.081  22.747  0.00  0.00    +0.000 NA
ATOM      2  C   UNL     1       9.361  12.782  21.663  0.00  0.00    +0.000 C 
ATOM      3  N   UNL     1       9.013  14.131  21.593  0.00  0.00    +0.000 N 
ATOM      4  C   UNL     1       9.144  15.033  22.740  0.00  0.00    +0.000 C 
ATOM      5  C   UNL     1       9.948  16.270  22.370  0.00  0.00    +0.000 C 
ATOM      6  C   UNL     1       9.278  17.041  21.244  0.00  0.00    +0.000 C 
ATOM      7  C   UNL     1       8.666  16.143  20.202  0.00  0.00    +0.000 A 
ATOM      8  C   UNL     1       8.254  16.715  18.983  0.00  0.00    +0.000 A 
ATOM      9  C   UNL     1       7.644  15.938  18.001  0.00  0.00    +0.000 A 
ATOM     10  C   UNL     1       7.389  14.598  18.247  0.00  0.00    +0.000 A 
ATOM     11  C   UNL     1       7.775  14.034  19.464  0.00  0.00    +0.000 A 
ATOM     12  C   UNL     1       8.475  14.768  20.436  0.00  0.00    +0.000 A 
ATOM     13  N   UNL     1       9.896  12.155  20.541  0.00  0.00    +0.000 N 
ATOM     14  C   UNL     1       9.636  10.737  20.283  0.00  0.00    +0.000 C 
ATOM     15  C   UNL     1       9.047  10.558  18.888  0.00  0.00    +0.000 C 
ATOM     16  C   UNL     1       9.995  11.084  17.818  0.00  0.00    +0.000 C 
ATOM     17  C   UNL     1      10.761  12.311  18.241  0.00  0.00    +0.000 A 
ATOM     18  C   UNL     1      11.515  12.999  17.274  0.00  0.00    +0.000 A 
ATOM     19  C   UNL     1      12.280  14.108  17.627  0.00  0.00    +0.000 A 
ATOM     20  C   UNL     1      12.333  14.516  18.952  0.00  0.00    +0.000 A 
ATOM     21  C   UNL     1      11.587  13.835  19.917  0.00  0.00    +0.000 A 
ATOM     22  C   UNL     1      10.752  12.755  19.578  0.00  0.00    +0.000 A 
ATOM     23  H   UNL     1       8.712  12.676  23.442  0.00  0.00    +0.000 HD
ENDROOT
TORSDOF 0
ENDMDL
MODEL 5
REMARK VINA RESULT:      -6.3      8.721     11.028
REMARK  Name = 
REMARK  0 active torsions:
REMARK  status: ('A' for Active; 'I' for Inactive)
REMARK                            x       y       z     vdW  Elec       q    Type
REMARK                         _______ _______ _______ _____ _____    ______ ____
ROOT
ATOM      1  N   UNL     1       2.687  13.665  19.494  0.00  0.00    +0.000 NA
ATOM      2  C   UNL     1       1.648  12.919  19.761  0.00  0.00    +0.000 C 
ATOM      3  N   UNL     1       0.972  13.019  20.977  0.00  0.00    +0.000 N 
ATOM      4  C   UNL     1       0.795  14.297  21.670  0.00  0.00    +0.000 C 
ATOM      5  C   UNL     1      -0.671  14.539  21.999  0.00  0.00    +0.000 C 
ATOM      6  C   UNL     1      -1.217  13.440  22.897  0.00  0.00    +0.000 C 
ATOM      7  C   UNL     1      -0.692  12.075  22.541  0.00  0.00    +0.000 A 
ATOM      8  C   UNL     1      -1.314  10.948  23.109  0.00  0.00    +0.000 A 
ATOM      9  C   UNL     1      -0.843   9.664  22.846  0.00  0.00    +0.000 A 
ATOM     10  C   UNL     1       0.286   9.497  22.060  0.00  0.00    +0.000 A 
ATOM     11  C   UNL     1       0.919  10.614  21.514  0.00  0.00    +0.000 A 
ATOM     12  C   UNL     1       0.414  11.914  21.684  0.00  0.00    +0.000 A 
ATOM     13  N   UNL     1       1.235  11.976  18.824  0.00  0.00    +0.000 N 
ATOM     14  C   UNL     1       2.203  11.336  17.931  0.00  0.00    +0.000 C 
ATOM     15  C   UNL     1       2.102   9.819  18.050  0.00  0.00    +0.000 C 
ATOM     16  C   UNL     1       0.705   9.330  17.687  0.00  0.00    +0.000 C 
ATOM     17  C   UNL     1      -0.393  10.269  18.118  0.00  0.00    +0.000 A 
ATOM     18  C   UNL     1      -1.726   9.834  18.015  0.00  0.00    +0.000 A 
ATOM     19  C   UNL     1      -2.778  10.683  18.352  0.00  0.00    +0.000 A 
ATOM     20  C   UNL     1      -2.511  11.984  18.754  0.00  0.00    +0.000 A 
ATOM     21  C   UNL     1      -1.189  12.421  18.857  0.00  0.00    +0.000 A 
ATOM     22  C   UNL     1      -0.105  11.565  18.588  0.00  0.00    +0.000 A 
ATOM     23  H   UNL     1       2.884  14.251  20.304  0.00  0.00    +0.000 HD
ENDROOT
TORSDOF 0
ENDMDL
MODEL 6
REMARK VINA RESULT:      -6.2      8.700     10.575
REMARK  Name = 
REMARK  0 active torsions:
REMARK  status: ('A' for Active; 'I' for Inactive)
REMARK                            x       y       z     vdW  Elec       q    Type
REMARK                         _______ _______ _______ _____ _____    ______ ____
ROOT
ATOM      1  N   UNL     1       2.703  13.690  19.405  0.00  0.00    +0.000 NA
ATOM      2  C   UNL     1       1.701  12.896  19.676  0.00  0.00    +0.000 C 
ATOM      3  N   UNL     1       1.271  11.929  18.768  0.00  0.00    +0.000 N 
ATOM      4  C   UNL     1       2.201  11.197  17.905  0.00  0.00    +0.000 C 
ATOM      5  C   UNL     1       2.001   9.695  18.041  0.00  0.00    +0.000 C 
ATOM      6  C   UNL     1       0.588   9.295  17.649  0.00  0.00    +0.000 C 
ATOM      7  C   UNL     1      -0.450  10.285  18.106  0.00  0.00    +0.000 A 
ATOM      8  C   UNL     1      -1.806   9.910  18.047  0.00  0.00    +0.000 A 
ATOM      9  C   UNL     1      -2.809  10.801  18.419  0.00  0.00    +0.000 A 
ATOM     10  C   UNL     1      -2.474  12.092  18.798  0.00  0.00    +0.000 A 
ATOM     11  C   UNL     1      -1.132  12.474  18.834  0.00  0.00    +0.000 A 
ATOM     12  C   UNL     1      -0.093  11.570  18.556  0.00  0.00    +0.000 A 
ATOM     13  N   UNL     1       1.026  13.048  20.884  0.00  0.00    +0.000 N 
ATOM     14  C   UNL     1       0.921  14.363  21.520  0.00  0.00    +0.000 C 
ATOM     15  C   UNL     1      -0.542  14.702  21.787  0.00  0.00    +0.000 C 
ATOM     16  C   UNL     1      -1.190  13.666  22.697  0.00  0.00    +0.000 C 
ATOM     17  C   UNL     1      -0.695  12.262  22.459  0.00  0.00    +0.000 A 
ATOM     18  C   UNL     1      -1.359  11.199  23.097  0.00  0.00    +0.000 A 
ATOM     19  C   UNL     1      -0.909   9.889  22.950  0.00  0.00    +0.000 A 
ATOM     20  C   UNL     1       0.231   9.633  22.201  0.00  0.00    +0.000 A 
ATOM     21  C   UNL     1       0.894  10.684  21.566  0.00  0.00    +0.000 A 
ATOM     22  C   UNL     1       0.423  12.008  21.641  0.00  0.00    +0.000 A 
ATOM     23  H   UNL     1       3.039  13.481  18.465  0.00  0.00    +0.000 HD
ENDROOT
TORSDOF 0
ENDMDL
MODEL 7
REMARK VINA RESULT:      -6.1      1.801      3.568
REMARK  Name = 
REMARK  0 active torsions:
REMARK  status: ('A' for Active; 'I' for Inactive)
REMARK                            x       y       z     vdW  Elec       q    Type
REMARK                         _______ _______ _______ _____ _____    ______ ____
ROOT
ATOM      1  N   UNL     1      12.333  16.101  19.893  0.00  0.00    +0.000 NA
ATOM      2  C   UNL     1      11.257  15.360  19.892  0.00  0.00    +0.000 C 
ATOM      3  N   UNL     1      11.051  14.376  18.926  0.00  0.00    +0.000 N 
ATOM      4  C   UNL     1      12.148  13.572  18.381  0.00  0.00    +0.000 C 
ATOM      5  C   UNL     1      11.842  12.086  18.496  0.00  0.00    +0.000 C 
ATOM      6  C   UNL     1      10.577  11.728  17.732  0.00  0.00    +0.000 C 
ATOM      7  C   UNL     1       9.504  12.777  17.849  0.00  0.00    +0.000 A 
ATOM      8  C   UNL     1       8.202  12.456  17.421  0.00  0.00    +0.000 A 
ATOM      9  C   UNL     1       7.181  13.402  17.469  0.00  0.00    +0.000 A 
ATOM     10  C   UNL     1       7.462  14.692  17.891  0.00  0.00    +0.000 A 
ATOM     11  C   UNL     1       8.757  15.020  18.295  0.00  0.00    +0.000 A 
ATOM     12  C   UNL     1       9.785  14.064  18.347  0.00  0.00    +0.000 A 
ATOM     13  N   UNL     1      10.277  15.589  20.854  0.00  0.00    +0.000 N 
ATOM     14  C   UNL     1      10.065  16.932  21.399  0.00  0.00    +0.000 C 
ATOM     15  C   UNL     1       8.605  17.340  21.232  0.00  0.00    +0.000 C 
ATOM     16  C   UNL     1       7.676  16.369  21.949  0.00  0.00    +0.000 C 
ATOM     17  C   UNL     1       8.146  14.938  21.900  0.00  0.00    +0.000 A 
ATOM     18  C   UNL     1       7.276  13.930  22.353  0.00  0.00    +0.000 A 
ATOM     19  C   UNL     1       7.683  12.598  22.376  0.00  0.00    +0.000 A 
ATOM     20  C   UNL     1       8.973  12.265  21.986  0.00  0.00    +0.000 A 
ATOM     21  C   UNL     1       9.840  13.262  21.536  0.00  0.00    +0.000 A 
ATOM     22  C   UNL     1       9.435  14.605  21.438  0.00  0.00    +0.000 A 
ATOM     23  H   UNL     1      12.909  15.841  19.093  0.00  0.00    +0.000 HD
ENDROOT
TORSDOF 0
ENDMDL
MODEL 8
REMARK VINA RESULT:      -6.0      1.167      4.676
REMARK  Name = 
REMARK  0 active torsions:
REMARK  status: ('A' for Active; 'I' for Inactive)
REMARK                            x       y       z     vdW  Elec       q    Type
REMARK                         _______ _______ _______ _____ _____    ______ ____
ROOT
ATOM      1  N   UNL     1      10.098  11.541  21.524  0.00  0.00    +0.000 NA
ATOM      2  C   UNL     1      10.035  12.647  20.831  0.00  0.00    +0.000 C 
ATOM      3  N   UNL     1       9.142  13.665  21.163  0.00  0.00    +0.000 N 
ATOM      4  C   UNL     1       8.803  13.988  22.551  0.00  0.00    +0.000 C 
ATOM      5  C   UNL     1       9.010  15.468  22.831  0.00  0.00    +0.000 C 
ATOM      6  C   UNL     1       8.137  16.323  21.927  0.00  0.00    +0.000 C 
ATOM      7  C   UNL     1       8.036  15.781  20.526  0.00  0.00    +0.000 A 
ATOM      8  C   UNL     1       7.487  16.606  19.526  0.00  0.00    +0.000 A 
ATOM      9  C   UNL     1       7.332  16.140  18.223  0.00  0.00    +0.000 A 
ATOM     10  C   UNL     1       7.670  14.831  17.919  0.00  0.00    +0.000 A 
ATOM     11  C   UNL     1       8.192  14.003  18.913  0.00  0.00    +0.000 A 
ATOM     12  C   UNL     1       8.448  14.472  20.213  0.00  0.00    +0.000 A 
ATOM     13  N   UNL     1      10.852  12.791  19.714  0.00  0.00    +0.000 N 
ATOM     14  C   UNL     1      11.249  11.624  18.922  0.00  0.00    +0.000 C 
ATOM     15  C   UNL     1      10.876  11.833  17.458  0.00  0.00    +0.000 C 
ATOM     16  C   UNL     1      11.562  13.067  16.886  0.00  0.00    +0.000 C 
ATOM     17  C   UNL     1      11.693  14.197  17.876  0.00  0.00    +0.000 A 
ATOM     18  C   UNL     1      12.129  15.450  17.409  0.00  0.00    +0.000 A 
ATOM     19  C   UNL     1      12.315  16.510  18.293  0.00  0.00    +0.000 A 
ATOM     20  C   UNL     1      12.110  16.319  19.652  0.00  0.00    +0.000 A 
ATOM     21  C   UNL     1      11.680  15.076  20.120  0.00  0.00    +0.000 A 
ATOM     22  C   UNL     1      11.418  14.008  19.244  0.00  0.00    +0.000 A 
ATOM     23  H   UNL     1       9.397  11.579  22.264  0.00  0.00    +0.000 HD
ENDROOT
TORSDOF 0
ENDMDL
MODEL 9
REMARK VINA RESULT:      -6.0      1.796      4.901
REMARK  Name = 
REMARK  0 active torsions:
REMARK  status: ('A' for Active; 'I' for Inactive)
REMARK                            x       y       z     vdW  Elec       q    Type
REMARK                         _______ _______ _______ _____ _____    ______ ____
ROOT
ATOM      1  N   UNL     1      12.333  16.116  20.029  0.00  0.00    +0.000 NA
ATOM      2  C   UNL     1      11.220  15.433  20.008  0.00  0.00    +0.000 C 
ATOM      3  N   UNL     1      10.256  15.580  21.005  0.00  0.00    +0.000 N 
ATOM      4  C   UNL     1       9.977  16.871  21.639  0.00  0.00    +0.000 C 
ATOM      5  C   UNL     1       8.493  17.199  21.575  0.00  0.00    +0.000 C 
ATOM      6  C   UNL     1       7.668  16.140  22.289  0.00  0.00    +0.000 C 
ATOM      7  C   UNL     1       8.189  14.744  22.070  0.00  0.00    +0.000 A 
ATOM      8  C   UNL     1       7.376  13.659  22.446  0.00  0.00    +0.000 A 
ATOM      9  C   UNL     1       7.825  12.348  22.304  0.00  0.00    +0.000 A 
ATOM     10  C   UNL     1       9.109  12.111  21.840  0.00  0.00    +0.000 A 
ATOM     11  C   UNL     1       9.926  13.186  21.489  0.00  0.00    +0.000 A 
ATOM     12  C   UNL     1       9.469  14.514  21.532  0.00  0.00    +0.000 A 
ATOM     13  N   UNL     1      11.012  14.509  18.987  0.00  0.00    +0.000 N 
ATOM     14  C   UNL     1      12.142  13.809  18.373  0.00  0.00    +0.000 C 
ATOM     15  C   UNL     1      11.927  12.301  18.448  0.00  0.00    +0.000 C 
ATOM     16  C   UNL     1      10.648  11.891  17.727  0.00  0.00    +0.000 C 
ATOM     17  C   UNL     1       9.532  12.895  17.864  0.00  0.00    +0.000 A 
ATOM     18  C   UNL     1       8.249  12.537  17.412  0.00  0.00    +0.000 A 
ATOM     19  C   UNL     1       7.196  13.448  17.469  0.00  0.00    +0.000 A 
ATOM     20  C   UNL     1       7.423  14.734  17.939  0.00  0.00    +0.000 A 
ATOM     21  C   UNL     1       8.695  15.094  18.388  0.00  0.00    +0.000 A 
ATOM     22  C   UNL     1       9.760  14.175  18.405  0.00  0.00    +0.000 A 
ATOM     23  H   UNL     1      12.345  16.695  20.868  0.00  0.00    +0.000 HD
ENDROOT
TORSDOF 0
ENDMDL
