MODEL 1
REMARK VINA RESULT:      -7.8      0.000      0.000
REMARK  Name = 
REMARK  9 active torsions:
REMARK  status: ('A' for Active; 'I' for Inactive)
REMARK    1  A    between atoms: C_1  and  S_2
REMARK    2  A    between atoms: S_2  and  C_3
REMARK    3  A    between atoms: C_3  and  C_4
REMARK    4  A    between atoms: C_4  and  N_5
REMARK    5  A    between atoms: C_6  and  C_9
REMARK    6  A    between atoms: N_7  and  O_8
REMARK    7  A    between atoms: C_12  and  C_13
REMARK    8  A    between atoms: C_15  and  O_16
REMARK    9  A    between atoms: O_16  and  C_17
REMARK                            x       y       z     vdW  Elec       q    Type
REMARK                         _______ _______ _______ _____ _____    ______ ____
ROOT
ATOM      1  C   UNL     1       5.605   5.115  18.373  0.00  0.00    +0.000 A 
ATOM      2  C   UNL     1       6.968   5.136  18.720  0.00  0.00    +0.000 A 
ATOM      3  C   UNL     1       7.759   6.254  18.476  0.00  0.00    +0.000 A 
ATOM      4  C   UNL     1       7.165   7.369  17.926  0.00  0.00    +0.000 A 
ATOM      5  C   UNL     1       7.975   8.561  17.517  0.00  0.00    +0.000 C 
ATOM      6  N   UNL     1       5.843   7.411  17.642  0.00  0.00    +0.000 NA
ATOM      7  C   UNL     1       5.085   6.287  17.820  0.00  0.00    +0.000 A 
ENDROOT
BRANCH   1   9
ATOM      8  N   UNL     1       3.814   3.498  17.763  0.00  0.00    +0.000 N 
ATOM      9  C   UNL     1       4.851   3.822  18.612  0.00  0.00    +0.000 C 
ATOM     10  N   UNL     1       5.275   3.130  19.637  0.00  0.00    +0.000 NA
ATOM     11  H   UNL     1       4.018   3.558  16.766  0.00  0.00    +0.000 HD
BRANCH  10  12
ATOM     12  O   UNL     1       4.661   1.890  19.794  0.00  0.00    +0.000 OA
ATOM     13  H   UNL     1       3.718   2.119  19.707  0.00  0.00    +0.000 HD
ENDBRANCH  10  12
BRANCH   8  14
ATOM     14  C   UNL     1       2.725   2.589  18.076  0.00  0.00    +0.000 C 
BRANCH  14  15
ATOM     15  C   UNL     1       1.552   3.345  18.703  0.00  0.00    +0.000 C 
BRANCH  15  17
ATOM     16  C   UNL     1       2.112   4.068  21.305  0.00  0.00    +0.000 C 
ATOM     17  S   UNL     1       1.235   2.766  20.411  0.00  0.00    +0.000 S 
ENDBRANCH  15  17
ENDBRANCH  14  15
ENDBRANCH   8  14
ENDBRANCH   1   9
BRANCH   7  18
ATOM     18  O   UNL     1       3.763   6.341  17.371  0.00  0.00    +0.000 OA
BRANCH  18  19
ATOM     19  C   UNL     1       2.930   7.274  17.976  0.00  0.00    +0.000 A 
ATOM     20  C   UNL     1       2.498   8.421  17.310  0.00  0.00    +0.000 A 
ATOM     21  C   UNL     1       1.754   9.395  17.979  0.00  0.00    +0.000 A 
ATOM     22  C   UNL     1       1.389   9.213  19.316  0.00  0.00    +0.000 A 
ATOM     23  C   UNL     1       0.691  10.217  20.010  0.00  0.00    +0.000 A 
ATOM     24  C   UNL     1       0.305  10.029  21.336  0.00  0.00    +0.000 A 
ATOM     25  C   UNL     1       0.596   8.834  21.977  0.00  0.00    +0.000 A 
ATOM     26  C   UNL     1       1.301   7.824  21.304  0.00  0.00    +0.000 A 
ATOM     27  C   UNL     1       1.728   8.005  19.971  0.00  0.00    +0.000 A 
ATOM     28  C   UNL     1       2.501   7.040  19.288  0.00  0.00    +0.000 A 
ENDBRANCH  18  19
ENDBRANCH   7  18
TORSDOF 7
ENDMDL
MODEL 2
REMARK VINA RESULT:      -7.7      2.522      4.551
REMARK  Name = 
REMARK  9 active torsions:
REMARK  status: ('A' for Active; 'I' for Inactive)
REMARK    1  A    between atoms: C_1  and  S_2
REMARK    2  A    between atoms: S_2  and  C_3
REMARK    3  A    between atoms: C_3  and  C_4
REMARK    4  A    between atoms: C_4  and  N_5
REMARK    5  A    between atoms: C_6  and  C_9
REMARK    6  A    between atoms: N_7  and  O_8
REMARK    7  A    between atoms: C_12  and  C_13
REMARK    8  A    between atoms: C_15  and  O_16
REMARK    9  A    between atoms: O_16  and  C_17
REMARK                            x       y       z     vdW  Elec       q    Type
REMARK                         _______ _______ _______ _____ _____    ______ ____
ROOT
ATOM      1  C   UNL     1       4.131   4.134  18.275  0.00  0.00    +0.000 A 
ATOM      2  C   UNL     1       3.834   2.920  17.630  0.00  0.00    +0.000 A 
ATOM      3  C   UNL     1       2.613   2.281  17.817  0.00  0.00    +0.000 A 
ATOM      4  C   UNL     1       1.672   2.890  18.618  0.00  0.00    +0.000 A 
ATOM      5  C   UNL     1       0.387   2.205  18.969  0.00  0.00    +0.000 C 
ATOM      6  N   UNL     1       1.894   4.090  19.200  0.00  0.00    +0.000 NA
ATOM      7  C   UNL     1       3.120   4.681  19.068  0.00  0.00    +0.000 A 
ENDROOT
BRANCH   1   9
ATOM      8  N   UNL     1       5.740   5.504  16.960  0.00  0.00    +0.000 N 
ATOM      9  C   UNL     1       5.518   4.708  18.063  0.00  0.00    +0.000 C 
ATOM     10  N   UNL     1       6.388   4.368  18.977  0.00  0.00    +0.000 NA
ATOM     11  H   UNL     1       5.068   6.256  16.810  0.00  0.00    +0.000 HD
BRANCH  10  12
ATOM     12  O   UNL     1       7.633   4.981  18.849  0.00  0.00    +0.000 OA
ATOM     13  H   UNL     1       8.236   4.216  18.851  0.00  0.00    +0.000 HD
ENDBRANCH  10  12
BRANCH   8  14
ATOM     14  C   UNL     1       7.036   5.758  16.354  0.00  0.00    +0.000 C 
BRANCH  14  15
ATOM     15  C   UNL     1       7.259   4.841  15.149  0.00  0.00    +0.000 C 
BRANCH  15  17
ATOM     16  C   UNL     1       6.292   3.648  12.859  0.00  0.00    +0.000 C 
ATOM     17  S   UNL     1       5.664   4.330  14.410  0.00  0.00    +0.000 S 
ENDBRANCH  15  17
ENDBRANCH  14  15
ENDBRANCH   8  14
ENDBRANCH   1   9
BRANCH   7  18
ATOM     18  O   UNL     1       3.344   5.843  19.811  0.00  0.00    +0.000 OA
BRANCH  18  19
ATOM     19  C   UNL     1       2.603   6.966  19.462  0.00  0.00    +0.000 A 
ATOM     20  C   UNL     1       2.600   7.477  18.164  0.00  0.00    +0.000 A 
ATOM     21  C   UNL     1       1.937   8.669  17.870  0.00  0.00    +0.000 A 
ATOM     22  C   UNL     1       1.224   9.346  18.863  0.00  0.00    +0.000 A 
ATOM     23  C   UNL     1       0.604  10.577  18.585  0.00  0.00    +0.000 A 
ATOM     24  C   UNL     1      -0.128  11.244  19.567  0.00  0.00    +0.000 A 
ATOM     25  C   UNL     1      -0.262  10.682  20.829  0.00  0.00    +0.000 A 
ATOM     26  C   UNL     1       0.358   9.459  21.127  0.00  0.00    +0.000 A 
ATOM     27  C   UNL     1       1.128   8.782  20.158  0.00  0.00    +0.000 A 
ATOM     28  C   UNL     1       1.825   7.587  20.446  0.00  0.00    +0.000 A 
ENDBRANCH  18  19
ENDBRANCH   7  18
TORSDOF 7
ENDMDL
MODEL 3
REMARK VINA RESULT:      -7.7      0.632      1.528
REMARK  Name = 
REMARK  9 active torsions:
REMARK  status: ('A' for Active; 'I' for Inactive)
REMARK    1  A    between atoms: C_1  and  S_2
REMARK    2  A    between atoms: S_2  and  C_3
REMARK    3  A    between atoms: C_3  and  C_4
REMARK    4  A    between atoms: C_4  and  N_5
REMARK    5  A    between atoms: C_6  and  C_9
REMARK    6  A    between atoms: N_7  and  O_8
REMARK    7  A    between atoms: C_12  and  C_13
REMARK    8  A    between atoms: C_15  and  O_16
REMARK    9  A    between atoms: O_16  and  C_17
REMARK                            x       y       z     vdW  Elec       q    Type
REMARK                         _______ _______ _______ _____ _____    ______ ____
ROOT
ATOM      1  C   UNL     1       5.563   5.079  18.172  0.00  0.00    +0.000 A 
ATOM      2  C   UNL     1       6.942   4.994  18.434  0.00  0.00    +0.000 A 
ATOM      3  C   UNL     1       7.784   6.084  18.237  0.00  0.00    +0.000 A 
ATOM      4  C   UNL     1       7.228   7.273  17.821  0.00  0.00    +0.000 A 
ATOM      5  C   UNL     1       8.084   8.450  17.464  0.00  0.00    +0.000 C 
ATOM      6  N   UNL     1       5.898   7.413  17.624  0.00  0.00    +0.000 NA
ATOM      7  C   UNL     1       5.085   6.322  17.754  0.00  0.00    +0.000 A 
ENDROOT
BRANCH   1   9
ATOM      8  N   UNL     1       3.758   3.535  17.429  0.00  0.00    +0.000 N 
ATOM      9  C   UNL     1       4.748   3.813  18.347  0.00  0.00    +0.000 C 
ATOM     10  N   UNL     1       5.077   3.098  19.391  0.00  0.00    +0.000 NA
ATOM     11  H   UNL     1       4.029   3.596  16.448  0.00  0.00    +0.000 HD
BRANCH  10  12
ATOM     12  O   UNL     1       4.408   1.880  19.494  0.00  0.00    +0.000 OA
ATOM     13  H   UNL     1       3.475   2.161  19.477  0.00  0.00    +0.000 HD
ENDBRANCH  10  12
BRANCH   8  14
ATOM     14  C   UNL     1       2.617   2.666  17.661  0.00  0.00    +0.000 C 
BRANCH  14  15
ATOM     15  C   UNL     1       1.456   3.449  18.278  0.00  0.00    +0.000 C 
BRANCH  15  17
ATOM     16  C   UNL     1       1.686   3.577  21.023  0.00  0.00    +0.000 C 
ATOM     17  S   UNL     1       0.817   2.606  19.772  0.00  0.00    +0.000 S 
ENDBRANCH  15  17
ENDBRANCH  14  15
ENDBRANCH   8  14
ENDBRANCH   1   9
BRANCH   7  18
ATOM     18  O   UNL     1       3.744   6.488  17.394  0.00  0.00    +0.000 OA
BRANCH  18  19
ATOM     19  C   UNL     1       2.943   7.214  18.267  0.00  0.00    +0.000 A 
ATOM     20  C   UNL     1       2.670   6.773  19.561  0.00  0.00    +0.000 A 
ATOM     21  C   UNL     1       1.773   7.466  20.375  0.00  0.00    +0.000 A 
ATOM     22  C   UNL     1       1.169   8.643  19.922  0.00  0.00    +0.000 A 
ATOM     23  C   UNL     1       0.221   9.312  20.716  0.00  0.00    +0.000 A 
ATOM     24  C   UNL     1      -0.366  10.498  20.276  0.00  0.00    +0.000 A 
ATOM     25  C   UNL     1      -0.001  11.036  19.051  0.00  0.00    +0.000 A 
ATOM     26  C   UNL     1       0.937  10.377  18.241  0.00  0.00    +0.000 A 
ATOM     27  C   UNL     1       1.520   9.160  18.652  0.00  0.00    +0.000 A 
ATOM     28  C   UNL     1       2.412   8.434  17.831  0.00  0.00    +0.000 A 
ENDBRANCH  18  19
ENDBRANCH   7  18
TORSDOF 7
ENDMDL
MODEL 4
REMARK VINA RESULT:      -7.6      2.497      4.657
REMARK  Name = 
REMARK  9 active torsions:
REMARK  status: ('A' for Active; 'I' for Inactive)
REMARK    1  A    between atoms: C_1  and  S_2
REMARK    2  A    between atoms: S_2  and  C_3
REMARK    3  A    between atoms: C_3  and  C_4
REMARK    4  A    between atoms: C_4  and  N_5
REMARK    5  A    between atoms: C_6  and  C_9
REMARK    6  A    between atoms: N_7  and  O_8
REMARK    7  A    between atoms: C_12  and  C_13
REMARK    8  A    between atoms: C_15  and  O_16
REMARK    9  A    between atoms: O_16  and  C_17
REMARK                            x       y       z     vdW  Elec       q    Type
REMARK                         _______ _______ _______ _____ _____    ______ ____
ROOT
ATOM      1  C   UNL     1       4.702   4.883  18.768  0.00  0.00    +0.000 A 
ATOM      2  C   UNL     1       4.566   3.567  19.246  0.00  0.00    +0.000 A 
ATOM      3  C   UNL     1       3.347   2.899  19.188  0.00  0.00    +0.000 A 
ATOM      4  C   UNL     1       2.276   3.542  18.606  0.00  0.00    +0.000 A 
ATOM      5  C   UNL     1       0.905   2.941  18.623  0.00  0.00    +0.000 C 
ATOM      6  N   UNL     1       2.385   4.781  18.075  0.00  0.00    +0.000 NA
ATOM      7  C   UNL     1       3.567   5.458  18.195  0.00  0.00    +0.000 A 
ENDROOT
BRANCH   1   9
ATOM      8  N   UNL     1       6.377   6.612  18.135  0.00  0.00    +0.000 N 
ATOM      9  C   UNL     1       6.054   5.546  18.948  0.00  0.00    +0.000 C 
ATOM     10  N   UNL     1       6.798   5.013  19.881  0.00  0.00    +0.000 NA
ATOM     11  H   UNL     1       5.677   7.349  18.067  0.00  0.00    +0.000 HD
BRANCH  10  12
ATOM     12  O   UNL     1       7.993   5.686  20.126  0.00  0.00    +0.000 OA
ATOM     13  H   UNL     1       8.069   5.615  21.094  0.00  0.00    +0.000 HD
ENDBRANCH  10  12
BRANCH   8  14
ATOM     14  C   UNL     1       7.726   7.066  17.843  0.00  0.00    +0.000 C 
BRANCH  14  15
ATOM     15  C   UNL     1       7.753   8.581  17.632  0.00  0.00    +0.000 C 
BRANCH  15  17
ATOM     16  C   UNL     1       8.898  11.047  18.094  0.00  0.00    +0.000 C 
ATOM     17  S   UNL     1       8.900   9.387  18.808  0.00  0.00    +0.000 S 
ENDBRANCH  15  17
ENDBRANCH  14  15
ENDBRANCH   8  14
ENDBRANCH   1   9
BRANCH   7  18
ATOM     18  O   UNL     1       3.579   6.787  17.763  0.00  0.00    +0.000 OA
BRANCH  18  19
ATOM     19  C   UNL     1       2.640   7.642  18.328  0.00  0.00    +0.000 A 
ATOM     20  C   UNL     1       2.016   8.647  17.589  0.00  0.00    +0.000 A 
ATOM     21  C   UNL     1       1.162   9.560  18.209  0.00  0.00    +0.000 A 
ATOM     22  C   UNL     1       0.882   9.453  19.574  0.00  0.00    +0.000 A 
ATOM     23  C   UNL     1       0.069  10.405  20.215  0.00  0.00    +0.000 A 
ATOM     24  C   UNL     1      -0.231  10.288  21.571  0.00  0.00    +0.000 A 
ATOM     25  C   UNL     1       0.261   9.213  22.297  0.00  0.00    +0.000 A 
ATOM     26  C   UNL     1       1.081   8.258  21.677  0.00  0.00    +0.000 A 
ATOM     27  C   UNL     1       1.423   8.373  20.313  0.00  0.00    +0.000 A 
ATOM     28  C   UNL     1       2.303   7.471  19.675  0.00  0.00    +0.000 A 
ENDBRANCH  18  19
ENDBRANCH   7  18
TORSDOF 7
ENDMDL
MODEL 5
REMARK VINA RESULT:      -7.4      3.443      5.791
REMARK  Name = 
REMARK  9 active torsions:
REMARK  status: ('A' for Active; 'I' for Inactive)
REMARK    1  A    between atoms: C_1  and  S_2
REMARK    2  A    between atoms: S_2  and  C_3
REMARK    3  A    between atoms: C_3  and  C_4
REMARK    4  A    between atoms: C_4  and  N_5
REMARK    5  A    between atoms: C_6  and  C_9
REMARK    6  A    between atoms: N_7  and  O_8
REMARK    7  A    between atoms: C_12  and  C_13
REMARK    8  A    between atoms: C_15  and  O_16
REMARK    9  A    between atoms: O_16  and  C_17
REMARK                            x       y       z     vdW  Elec       q    Type
REMARK                         _______ _______ _______ _____ _____    ______ ____
ROOT
ATOM      1  C   UNL     1       6.756   5.676  16.460  0.00  0.00    +0.000 A 
ATOM      2  C   UNL     1       7.512   4.730  15.747  0.00  0.00    +0.000 A 
ATOM      3  C   UNL     1       6.994   4.083  14.629  0.00  0.00    +0.000 A 
ATOM      4  C   UNL     1       5.730   4.425  14.203  0.00  0.00    +0.000 A 
ATOM      5  C   UNL     1       5.056   3.683  13.090  0.00  0.00    +0.000 C 
ATOM      6  N   UNL     1       4.998   5.379  14.822  0.00  0.00    +0.000 NA
ATOM      7  C   UNL     1       5.484   5.962  15.959  0.00  0.00    +0.000 A 
ENDROOT
BRANCH   1   9
ATOM      8  N   UNL     1       7.581   7.630  17.762  0.00  0.00    +0.000 N 
ATOM      9  C   UNL     1       7.385   6.267  17.706  0.00  0.00    +0.000 C 
ATOM     10  N   UNL     1       7.693   5.389  18.624  0.00  0.00    +0.000 NA
ATOM     11  H   UNL     1       6.777   8.207  17.519  0.00  0.00    +0.000 HD
BRANCH  10  12
ATOM     12  O   UNL     1       8.168   5.935  19.814  0.00  0.00    +0.000 OA
ATOM     13  H   UNL     1       8.945   5.377  19.996  0.00  0.00    +0.000 HD
ENDBRANCH  10  12
BRANCH   8  14
ATOM     14  C   UNL     1       8.539   8.306  18.620  0.00  0.00    +0.000 C 
BRANCH  14  15
ATOM     15  C   UNL     1       8.563   9.808  18.326  0.00  0.00    +0.000 C 
BRANCH  15  17
ATOM     16  C   UNL     1       9.725  12.279  18.711  0.00  0.00    +0.000 C 
ATOM     17  S   UNL     1       9.546  10.706  19.582  0.00  0.00    +0.000 S 
ENDBRANCH  15  17
ENDBRANCH  14  15
ENDBRANCH   8  14
ENDBRANCH   1   9
BRANCH   7  18
ATOM     18  O   UNL     1       4.626   6.830  16.639  0.00  0.00    +0.000 OA
BRANCH  18  19
ATOM     19  C   UNL     1       3.735   6.258  17.538  0.00  0.00    +0.000 A 
ATOM     20  C   UNL     1       3.164   6.988  18.581  0.00  0.00    +0.000 A 
ATOM     21  C   UNL     1       2.361   6.360  19.534  0.00  0.00    +0.000 A 
ATOM     22  C   UNL     1       2.076   4.996  19.432  0.00  0.00    +0.000 A 
ATOM     23  C   UNL     1       1.316   4.347  20.421  0.00  0.00    +0.000 A 
ATOM     24  C   UNL     1       1.011   2.991  20.310  0.00  0.00    +0.000 A 
ATOM     25  C   UNL     1       1.445   2.274  19.205  0.00  0.00    +0.000 A 
ATOM     26  C   UNL     1       2.213   2.902  18.212  0.00  0.00    +0.000 A 
ATOM     27  C   UNL     1       2.559   4.266  18.319  0.00  0.00    +0.000 A 
ATOM     28  C   UNL     1       3.390   4.911  17.376  0.00  0.00    +0.000 A 
ENDBRANCH  18  19
ENDBRANCH   7  18
TORSDOF 7
ENDMDL
MODEL 6
REMARK VINA RESULT:      -7.4      2.503      4.883
REMARK  Name = 
REMARK  9 active torsions:
REMARK  status: ('A' for Active; 'I' for Inactive)
REMARK    1  A    between atoms: C_1  and  S_2
REMARK    2  A    between atoms: S_2  and  C_3
REMARK    3  A    between atoms: C_3  and  C_4
REMARK    4  A    between atoms: C_4  and  N_5
REMARK    5  A    between atoms: C_6  and  C_9
REMARK    6  A    between atoms: N_7  and  O_8
REMARK    7  A    between atoms: C_12  and  C_13
REMARK    8  A    between atoms: C_15  and  O_16
REMARK    9  A    between atoms: O_16  and  C_17
REMARK                            x       y       z     vdW  Elec       q    Type
REMARK                         _______ _______ _______ _____ _____    ______ ____
ROOT
ATOM      1  C   UNL     1       4.620   4.670  18.733  0.00  0.00    +0.000 A 
ATOM      2  C   UNL     1       4.579   3.326  19.144  0.00  0.00    +0.000 A 
ATOM      3  C   UNL     1       3.397   2.594  19.108  0.00  0.00    +0.000 A 
ATOM      4  C   UNL     1       2.265   3.203  18.613  0.00  0.00    +0.000 A 
ATOM      5  C   UNL     1       0.931   2.524  18.663  0.00  0.00    +0.000 C 
ATOM      6  N   UNL     1       2.279   4.472  18.146  0.00  0.00    +0.000 NA
ATOM      7  C   UNL     1       3.427   5.208  18.246  0.00  0.00    +0.000 A 
ENDROOT
BRANCH   1   9
ATOM      8  N   UNL     1       6.235   6.417  18.002  0.00  0.00    +0.000 N 
ATOM      9  C   UNL     1       5.940   5.399  18.883  0.00  0.00    +0.000 C 
ATOM     10  N   UNL     1       6.689   4.964  19.862  0.00  0.00    +0.000 NA
ATOM     11  H   UNL     1       5.507   7.119  17.872  0.00  0.00    +0.000 HD
BRANCH  10  12
ATOM     12  O   UNL     1       7.852   5.702  20.075  0.00  0.00    +0.000 OA
ATOM     13  H   UNL     1       7.651   6.157  20.913  0.00  0.00    +0.000 HD
ENDBRANCH  10  12
BRANCH   8  14
ATOM     14  C   UNL     1       7.569   6.905  17.696  0.00  0.00    +0.000 C 
BRANCH  14  15
ATOM     15  C   UNL     1       7.577   8.432  17.596  0.00  0.00    +0.000 C 
BRANCH  15  17
ATOM     16  C   UNL     1       8.968  10.778  18.004  0.00  0.00    +0.000 C 
ATOM     17  S   UNL     1       8.764   9.161  18.784  0.00  0.00    +0.000 S 
ENDBRANCH  15  17
ENDBRANCH  14  15
ENDBRANCH   8  14
ENDBRANCH   1   9
BRANCH   7  18
ATOM     18  O   UNL     1       3.345   6.556  17.886  0.00  0.00    +0.000 OA
BRANCH  18  19
ATOM     19  C   UNL     1       2.574   7.379  18.698  0.00  0.00    +0.000 A 
ATOM     20  C   UNL     1       2.304   7.061  20.029  0.00  0.00    +0.000 A 
ATOM     21  C   UNL     1       1.436   7.849  20.787  0.00  0.00    +0.000 A 
ATOM     22  C   UNL     1       0.860   8.998  20.237  0.00  0.00    +0.000 A 
ATOM     23  C   UNL     1      -0.060   9.762  20.977  0.00  0.00    +0.000 A 
ATOM     24  C   UNL     1      -0.619  10.921  20.440  0.00  0.00    +0.000 A 
ATOM     25  C   UNL     1      -0.253  11.339  19.169  0.00  0.00    +0.000 A 
ATOM     26  C   UNL     1       0.657  10.584  18.412  0.00  0.00    +0.000 A 
ATOM     27  C   UNL     1       1.211   9.392  18.923  0.00  0.00    +0.000 A 
ATOM     28  C   UNL     1       2.072   8.571  18.162  0.00  0.00    +0.000 A 
ENDBRANCH  18  19
ENDBRANCH   7  18
TORSDOF 7
ENDMDL
MODEL 7
REMARK VINA RESULT:      -7.4      1.045      1.810
REMARK  Name = 
REMARK  9 active torsions:
REMARK  status: ('A' for Active; 'I' for Inactive)
REMARK    1  A    between atoms: C_1  and  S_2
REMARK    2  A    between atoms: S_2  and  C_3
REMARK    3  A    between atoms: C_3  and  C_4
REMARK    4  A    between atoms: C_4  and  N_5
REMARK    5  A    between atoms: C_6  and  C_9
REMARK    6  A    between atoms: N_7  and  O_8
REMARK    7  A    between atoms: C_12  and  C_13
REMARK    8  A    between atoms: C_15  and  O_16
REMARK    9  A    between atoms: O_16  and  C_17
REMARK                            x       y       z     vdW  Elec       q    Type
REMARK                         _______ _______ _______ _____ _____    ______ ____
ROOT
ATOM      1  C   UNL     1       4.647   4.660  17.967  0.00  0.00    +0.000 A 
ATOM      2  C   UNL     1       6.005   4.330  18.123  0.00  0.00    +0.000 A 
ATOM      3  C   UNL     1       7.004   5.287  17.976  0.00  0.00    +0.000 A 
ATOM      4  C   UNL     1       6.631   6.587  17.718  0.00  0.00    +0.000 A 
ATOM      5  C   UNL     1       7.649   7.645  17.420  0.00  0.00    +0.000 C 
ATOM      6  N   UNL     1       5.334   6.957  17.627  0.00  0.00    +0.000 NA
ATOM      7  C   UNL     1       4.359   6.001  17.705  0.00  0.00    +0.000 A 
ENDROOT
BRANCH   1   9
ATOM      8  N   UNL     1       2.309   3.812  17.882  0.00  0.00    +0.000 N 
ATOM      9  C   UNL     1       3.644   3.529  18.073  0.00  0.00    +0.000 C 
ATOM     10  N   UNL     1       4.170   2.365  18.351  0.00  0.00    +0.000 NA
ATOM     11  H   UNL     1       2.082   4.350  17.046  0.00  0.00    +0.000 HD
BRANCH  10  12
ATOM     12  O   UNL     1       3.268   1.303  18.340  0.00  0.00    +0.000 OA
ATOM     13  H   UNL     1       2.951   1.298  19.261  0.00  0.00    +0.000 HD
ENDBRANCH  10  12
BRANCH   8  14
ATOM     14  C   UNL     1       1.201   3.010  18.371  0.00  0.00    +0.000 C 
BRANCH  14  15
ATOM     15  C   UNL     1       0.685   3.554  19.704  0.00  0.00    +0.000 C 
BRANCH  15  17
ATOM     16  C   UNL     1       2.529   3.896  21.726  0.00  0.00    +0.000 C 
ATOM     17  S   UNL     1       1.399   2.627  21.112  0.00  0.00    +0.000 S 
ENDBRANCH  15  17
ENDBRANCH  14  15
ENDBRANCH   8  14
ENDBRANCH   1   9
BRANCH   7  18
ATOM     18  O   UNL     1       3.048   6.416  17.457  0.00  0.00    +0.000 OA
BRANCH  18  19
ATOM     19  C   UNL     1       2.465   7.260  18.395  0.00  0.00    +0.000 A 
ATOM     20  C   UNL     1       2.361   6.910  19.741  0.00  0.00    +0.000 A 
ATOM     21  C   UNL     1       1.672   7.728  20.638  0.00  0.00    +0.000 A 
ATOM     22  C   UNL     1       1.115   8.936  20.210  0.00  0.00    +0.000 A 
ATOM     23  C   UNL     1       0.371   9.735  21.096  0.00  0.00    +0.000 A 
ATOM     24  C   UNL     1      -0.166  10.952  20.679  0.00  0.00    +0.000 A 
ATOM     25  C   UNL     1       0.049  11.392  19.381  0.00  0.00    +0.000 A 
ATOM     26  C   UNL     1       0.782  10.604  18.480  0.00  0.00    +0.000 A 
ATOM     27  C   UNL     1       1.308   9.356  18.872  0.00  0.00    +0.000 A 
ATOM     28  C   UNL     1       1.987   8.505  17.971  0.00  0.00    +0.000 A 
ENDBRANCH  18  19
ENDBRANCH   7  18
TORSDOF 7
ENDMDL
MODEL 8
REMARK VINA RESULT:      -7.3      2.395      4.288
REMARK  Name = 
REMARK  9 active torsions:
REMARK  status: ('A' for Active; 'I' for Inactive)
REMARK    1  A    between atoms: C_1  and  S_2
REMARK    2  A    between atoms: S_2  and  C_3
REMARK    3  A    between atoms: C_3  and  C_4
REMARK    4  A    between atoms: C_4  and  N_5
REMARK    5  A    between atoms: C_6  and  C_9
REMARK    6  A    between atoms: N_7  and  O_8
REMARK    7  A    between atoms: C_12  and  C_13
REMARK    8  A    between atoms: C_15  and  O_16
REMARK    9  A    between atoms: O_16  and  C_17
REMARK                            x       y       z     vdW  Elec       q    Type
REMARK                         _______ _______ _______ _____ _____    ______ ____
ROOT
ATOM      1  C   UNL     1       4.414   4.825  19.085  0.00  0.00    +0.000 A 
ATOM      2  C   UNL     1       4.365   3.638  19.838  0.00  0.00    +0.000 A 
ATOM      3  C   UNL     1       3.153   3.091  20.247  0.00  0.00    +0.000 A 
ATOM      4  C   UNL     1       1.988   3.716  19.857  0.00  0.00    +0.000 A 
ATOM      5  C   UNL     1       0.654   3.262  20.364  0.00  0.00    +0.000 C 
ATOM      6  N   UNL     1       1.993   4.820  19.076  0.00  0.00    +0.000 NA
ATOM      7  C   UNL     1       3.188   5.391  18.733  0.00  0.00    +0.000 A 
ENDROOT
BRANCH   1   9
ATOM      8  N   UNL     1       5.984   5.960  17.522  0.00  0.00    +0.000 N 
ATOM      9  C   UNL     1       5.788   5.377  18.755  0.00  0.00    +0.000 C 
ATOM     10  N   UNL     1       6.672   5.228  19.706  0.00  0.00    +0.000 NA
ATOM     11  H   UNL     1       5.295   6.658  17.244  0.00  0.00    +0.000 HD
BRANCH  10  12
ATOM     12  O   UNL     1       7.902   5.832  19.454  0.00  0.00    +0.000 OA
ATOM     13  H   UNL     1       7.640   6.749  19.256  0.00  0.00    +0.000 HD
ENDBRANCH  10  12
BRANCH   8  14
ATOM     14  C   UNL     1       7.270   6.124  16.865  0.00  0.00    +0.000 C 
BRANCH  14  15
ATOM     15  C   UNL     1       7.477   5.039  15.805  0.00  0.00    +0.000 C 
BRANCH  15  17
ATOM     16  C   UNL     1       6.414   3.983  13.491  0.00  0.00    +0.000 C 
ATOM     17  S   UNL     1       5.874   4.445  15.153  0.00  0.00    +0.000 S 
ENDBRANCH  15  17
ENDBRANCH  14  15
ENDBRANCH   8  14
ENDBRANCH   1   9
BRANCH   7  18
ATOM     18  O   UNL     1       3.131   6.610  18.053  0.00  0.00    +0.000 OA
BRANCH  18  19
ATOM     19  C   UNL     1       2.314   7.596  18.593  0.00  0.00    +0.000 A 
ATOM     20  C   UNL     1       1.755   8.604  17.808  0.00  0.00    +0.000 A 
ATOM     21  C   UNL     1       1.030   9.643  18.395  0.00  0.00    +0.000 A 
ATOM     22  C   UNL     1       0.813   9.664  19.776  0.00  0.00    +0.000 A 
ATOM     23  C   UNL     1       0.134  10.738  20.378  0.00  0.00    +0.000 A 
ATOM     24  C   UNL     1      -0.104  10.750  21.751  0.00  0.00    +0.000 A 
ATOM     25  C   UNL     1       0.316   9.685  22.534  0.00  0.00    +0.000 A 
ATOM     26  C   UNL     1       1.003   8.608  21.952  0.00  0.00    +0.000 A 
ATOM     27  C   UNL     1       1.282   8.589  20.569  0.00  0.00    +0.000 A 
ATOM     28  C   UNL     1       2.033   7.558  19.964  0.00  0.00    +0.000 A 
ENDBRANCH  18  19
ENDBRANCH   7  18
TORSDOF 7
ENDMDL
MODEL 9
REMARK VINA RESULT:      -7.3      2.256      4.582
REMARK  Name = 
REMARK  9 active torsions:
REMARK  status: ('A' for Active; 'I' for Inactive)
REMARK    1  A    between atoms: C_1  and  S_2
REMARK    2  A    between atoms: S_2  and  C_3
REMARK    3  A    between atoms: C_3  and  C_4
REMARK    4  A    between atoms: C_4  and  N_5
REMARK    5  A    between atoms: C_6  and  C_9
REMARK    6  A    between atoms: N_7  and  O_8
REMARK    7  A    between atoms: C_12  and  C_13
REMARK    8  A    between atoms: C_15  and  O_16
REMARK    9  A    between atoms: O_16  and  C_17
REMARK                            x       y       z     vdW  Elec       q    Type
REMARK                         _______ _______ _______ _____ _____    ______ ____
ROOT
ATOM      1  C   UNL     1       3.597   4.725  17.604  0.00  0.00    +0.000 A 
ATOM      2  C   UNL     1       3.205   3.501  17.035  0.00  0.00    +0.000 A 
ATOM      3  C   UNL     1       2.168   2.749  17.579  0.00  0.00    +0.000 A 
ATOM      4  C   UNL     1       1.495   3.256  18.669  0.00  0.00    +0.000 A 
ATOM      5  C   UNL     1       0.457   2.450  19.386  0.00  0.00    +0.000 C 
ATOM      6  N   UNL     1       1.798   4.461  19.203  0.00  0.00    +0.000 NA
ATOM      7  C   UNL     1       2.861   5.163  18.706  0.00  0.00    +0.000 A 
ENDROOT
BRANCH   1   9
ATOM      8  N   UNL     1       5.533   6.282  17.763  0.00  0.00    +0.000 N 
ATOM      9  C   UNL     1       4.787   5.427  16.980  0.00  0.00    +0.000 C 
ATOM     10  N   UNL     1       4.982   5.144  15.719  0.00  0.00    +0.000 NA
ATOM     11  H   UNL     1       5.829   5.914  18.667  0.00  0.00    +0.000 HD
BRANCH  10  12
ATOM     12  O   UNL     1       6.137   5.698  15.171  0.00  0.00    +0.000 OA
ATOM     13  H   UNL     1       5.882   5.810  14.237  0.00  0.00    +0.000 HD
ENDBRANCH  10  12
BRANCH   8  14
ATOM     14  C   UNL     1       6.383   7.350  17.267  0.00  0.00    +0.000 C 
BRANCH  14  15
ATOM     15  C   UNL     1       7.780   7.261  17.884  0.00  0.00    +0.000 C 
BRANCH  15  17
ATOM     16  C   UNL     1       8.049   4.518  17.947  0.00  0.00    +0.000 C 
ATOM     17  S   UNL     1       7.874   5.897  19.101  0.00  0.00    +0.000 S 
ENDBRANCH  15  17
ENDBRANCH  14  15
ENDBRANCH   8  14
ENDBRANCH   1   9
BRANCH   7  18
ATOM     18  O   UNL     1       3.222   6.328  19.390  0.00  0.00    +0.000 OA
BRANCH  18  19
ATOM     19  C   UNL     1       2.383   7.427  19.247  0.00  0.00    +0.000 A 
ATOM     20  C   UNL     1       2.209   8.070  18.022  0.00  0.00    +0.000 A 
ATOM     21  C   UNL     1       1.450   9.238  17.932  0.00  0.00    +0.000 A 
ATOM     22  C   UNL     1       0.811   9.756  19.063  0.00  0.00    +0.000 A 
ATOM     23  C   UNL     1       0.093  10.962  18.990  0.00  0.00    +0.000 A 
ATOM     24  C   UNL     1      -0.564  11.469  20.110  0.00  0.00    +0.000 A 
ATOM     25  C   UNL     1      -0.526  10.770  21.307  0.00  0.00    +0.000 A 
ATOM     26  C   UNL     1       0.193   9.569  21.402  0.00  0.00    +0.000 A 
ATOM     27  C   UNL     1       0.890   9.053  20.289  0.00  0.00    +0.000 A 
ATOM     28  C   UNL     1       1.682   7.886  20.368  0.00  0.00    +0.000 A 
ENDBRANCH  18  19
ENDBRANCH   7  18
TORSDOF 7
ENDMDL
