MODEL 1
REMARK VINA RESULT:      -7.5      0.000      0.000
REMARK  Name = 
REMARK  5 active torsions:
REMARK  status: ('A' for Active; 'I' for Inactive)
REMARK    1  A    between atoms: C_2  and  C_3
REMARK    2  A    between atoms: C_2  and  C_16
REMARK    3  A    between atoms: C_3  and  S_4
REMARK    4  A    between atoms: S_4  and  C_5
REMARK    5  A    between atoms: C_8  and  C_9
REMARK                            x       y       z     vdW  Elec       q    Type
REMARK                         _______ _______ _______ _____ _____    ______ ____
ROOT
ATOM      1  S   UNL     1       7.460   5.448  18.394  0.00  0.00    +0.000 S 
ENDROOT
BRANCH   1   2
ATOM      2  C   UNL     1       7.696   7.135  18.089  0.00  0.00    +0.000 A 
ATOM      3  N   UNL     1       7.090   7.828  17.148  0.00  0.00    +0.000 NA
ATOM      4  N   UNL     1       7.567   9.119  17.239  0.00  0.00    +0.000 NA
ATOM      5  C   UNL     1       8.436   9.130  18.230  0.00  0.00    +0.000 A 
ATOM      6  O   UNL     1       8.566   7.903  18.824  0.00  0.00    +0.000 OA
BRANCH   5   7
ATOM      7  C   UNL     1       9.251  10.220  18.737  0.00  0.00    +0.000 A 
ATOM      8  C   UNL     1       9.994  11.078  17.917  0.00  0.00    +0.000 A 
ATOM      9  C   UNL     1      10.733  12.118  18.485  0.00  0.00    +0.000 A 
ATOM     10  C   UNL     1      10.712  12.268  19.862  0.00  0.00    +0.000 A 
ATOM     11  N   UNL     1      10.017  11.460  20.688  0.00  0.00    +0.000 NA
ATOM     12  C   UNL     1       9.308  10.460  20.107  0.00  0.00    +0.000 A 
ENDBRANCH   5   7
ENDBRANCH   1   2
BRANCH   1  13
ATOM     13  C   UNL     1       7.224   4.803  16.704  0.00  0.00    +0.000 C 
BRANCH  13  15
ATOM     14  O   UNL     1       5.525   5.476  15.103  0.00  0.00    +0.000 OA
ATOM     15  C   UNL     1       5.799   5.054  16.225  0.00  0.00    +0.000 C 
BRANCH  15  16
ATOM     16  C   UNL     1       4.657   4.774  17.154  0.00  0.00    +0.000 A 
ATOM     17  C   UNL     1       3.849   5.857  17.545  0.00  0.00    +0.000 A 
ATOM     18  C   UNL     1       2.772   5.672  18.416  0.00  0.00    +0.000 A 
ATOM     19  C   UNL     1       2.495   4.401  18.905  0.00  0.00    +0.000 A 
ATOM     20 CL   UNL     1       1.174   4.169  19.982  0.00  0.00    +0.000 Cl
ATOM     21  C   UNL     1       3.286   3.315  18.526  0.00  0.00    +0.000 A 
ATOM     22  C   UNL     1       4.366   3.497  17.650  0.00  0.00    +0.000 A 
ENDBRANCH  15  16
ENDBRANCH  13  15
ENDBRANCH   1  13
TORSDOF 5
ENDMDL
MODEL 2
REMARK VINA RESULT:      -7.5      5.244      6.685
REMARK  Name = 
REMARK  5 active torsions:
REMARK  status: ('A' for Active; 'I' for Inactive)
REMARK    1  A    between atoms: C_2  and  C_3
REMARK    2  A    between atoms: C_2  and  C_16
REMARK    3  A    between atoms: C_3  and  S_4
REMARK    4  A    between atoms: S_4  and  C_5
REMARK    5  A    between atoms: C_8  and  C_9
REMARK                            x       y       z     vdW  Elec       q    Type
REMARK                         _______ _______ _______ _____ _____    ______ ____
ROOT
ATOM      1  S   UNL     1       2.185   2.085  19.602  0.00  0.00    +0.000 S 
ENDROOT
BRANCH   1   2
ATOM      2  C   UNL     1       3.651   2.815  19.040  0.00  0.00    +0.000 A 
ATOM      3  N   UNL     1       4.650   3.196  19.808  0.00  0.00    +0.000 NA
ATOM      4  N   UNL     1       5.607   3.733  18.972  0.00  0.00    +0.000 NA
ATOM      5  C   UNL     1       5.127   3.647  17.747  0.00  0.00    +0.000 A 
ATOM      6  O   UNL     1       3.888   3.065  17.711  0.00  0.00    +0.000 OA
BRANCH   5   7
ATOM      7  C   UNL     1       5.709   4.086  16.490  0.00  0.00    +0.000 A 
ATOM      8  C   UNL     1       5.021   4.069  15.271  0.00  0.00    +0.000 A 
ATOM      9  C   UNL     1       5.647   4.532  14.111  0.00  0.00    +0.000 A 
ATOM     10  C   UNL     1       6.949   4.996  14.204  0.00  0.00    +0.000 A 
ATOM     11  N   UNL     1       7.649   5.022  15.356  0.00  0.00    +0.000 NA
ATOM     12  C   UNL     1       7.015   4.568  16.465  0.00  0.00    +0.000 A 
ENDBRANCH   5   7
ENDBRANCH   1   2
BRANCH   1  13
ATOM     13  C   UNL     1       1.082   3.533  19.722  0.00  0.00    +0.000 C 
BRANCH  13  15
ATOM     14  O   UNL     1       2.210   4.481  21.652  0.00  0.00    +0.000 OA
ATOM     15  C   UNL     1       1.739   4.646  20.528  0.00  0.00    +0.000 C 
BRANCH  15  16
ATOM     16  C   UNL     1       1.830   6.020  19.937  0.00  0.00    +0.000 A 
ATOM     17  C   UNL     1       2.304   6.136  18.618  0.00  0.00    +0.000 A 
ATOM     18  C   UNL     1       2.423   7.387  18.005  0.00  0.00    +0.000 A 
ATOM     19  C   UNL     1       2.070   8.532  18.708  0.00  0.00    +0.000 A 
ATOM     20 CL   UNL     1       2.221  10.074  17.960  0.00  0.00    +0.000 Cl
ATOM     21  C   UNL     1       1.596   8.435  20.017  0.00  0.00    +0.000 A 
ATOM     22  C   UNL     1       1.473   7.181  20.634  0.00  0.00    +0.000 A 
ENDBRANCH  15  16
ENDBRANCH  13  15
ENDBRANCH   1  13
TORSDOF 5
ENDMDL
MODEL 3
REMARK VINA RESULT:      -7.3      0.759      1.512
REMARK  Name = 
REMARK  5 active torsions:
REMARK  status: ('A' for Active; 'I' for Inactive)
REMARK    1  A    between atoms: C_2  and  C_3
REMARK    2  A    between atoms: C_2  and  C_16
REMARK    3  A    between atoms: C_3  and  S_4
REMARK    4  A    between atoms: S_4  and  C_5
REMARK    5  A    between atoms: C_8  and  C_9
REMARK                            x       y       z     vdW  Elec       q    Type
REMARK                         _______ _______ _______ _____ _____    ______ ____
ROOT
ATOM      1  S   UNL     1       7.544   5.539  18.533  0.00  0.00    +0.000 S 
ENDROOT
BRANCH   1   2
ATOM      2  C   UNL     1       7.813   7.205  18.148  0.00  0.00    +0.000 A 
ATOM      3  N   UNL     1       7.351   7.822  17.081  0.00  0.00    +0.000 NA
ATOM      4  N   UNL     1       7.801   9.124  17.151  0.00  0.00    +0.000 NA
ATOM      5  C   UNL     1       8.512   9.217  18.257  0.00  0.00    +0.000 A 
ATOM      6  O   UNL     1       8.558   8.036  18.949  0.00  0.00    +0.000 OA
BRANCH   5   7
ATOM      7  C   UNL     1       9.235  10.353  18.801  0.00  0.00    +0.000 A 
ATOM      8  C   UNL     1       9.499  10.521  20.166  0.00  0.00    +0.000 A 
ATOM      9  C   UNL     1      10.223  11.633  20.604  0.00  0.00    +0.000 A 
ATOM     10  C   UNL     1      10.660  12.549  19.662  0.00  0.00    +0.000 A 
ATOM     11  N   UNL     1      10.421  12.429  18.340  0.00  0.00    +0.000 NA
ATOM     12  C   UNL     1       9.718  11.339  17.945  0.00  0.00    +0.000 A 
ENDBRANCH   5   7
ENDBRANCH   1   2
BRANCH   1  13
ATOM     13  C   UNL     1       7.299   4.819  16.874  0.00  0.00    +0.000 C 
BRANCH  13  15
ATOM     14  O   UNL     1       5.509   5.051  15.249  0.00  0.00    +0.000 OA
ATOM     15  C   UNL     1       5.851   4.973  16.428  0.00  0.00    +0.000 C 
BRANCH  15  16
ATOM     16  C   UNL     1       4.770   5.031  17.464  0.00  0.00    +0.000 A 
ATOM     17  C   UNL     1       4.411   3.831  18.105  0.00  0.00    +0.000 A 
ATOM     18  C   UNL     1       3.405   3.808  19.076  0.00  0.00    +0.000 A 
ATOM     19  C   UNL     1       2.749   4.986  19.413  0.00  0.00    +0.000 A 
ATOM     20 CL   UNL     1       1.507   4.962  20.602  0.00  0.00    +0.000 Cl
ATOM     21  C   UNL     1       3.095   6.186  18.788  0.00  0.00    +0.000 A 
ATOM     22  C   UNL     1       4.105   6.213  17.815  0.00  0.00    +0.000 A 
ENDBRANCH  15  16
ENDBRANCH  13  15
ENDBRANCH   1  13
TORSDOF 5
ENDMDL
MODEL 4
REMARK VINA RESULT:      -7.2      1.431      1.766
REMARK  Name = 
REMARK  5 active torsions:
REMARK  status: ('A' for Active; 'I' for Inactive)
REMARK    1  A    between atoms: C_2  and  C_3
REMARK    2  A    between atoms: C_2  and  C_16
REMARK    3  A    between atoms: C_3  and  S_4
REMARK    4  A    between atoms: S_4  and  C_5
REMARK    5  A    between atoms: C_8  and  C_9
REMARK                            x       y       z     vdW  Elec       q    Type
REMARK                         _______ _______ _______ _____ _____    ______ ____
ROOT
ATOM      1  S   UNL     1       7.481   5.611  18.327  0.00  0.00    +0.000 S 
ENDROOT
BRANCH   1   2
ATOM      2  C   UNL     1       7.739   7.303  18.072  0.00  0.00    +0.000 A 
ATOM      3  N   UNL     1       7.138   8.032  17.155  0.00  0.00    +0.000 NA
ATOM      4  N   UNL     1       7.633   9.313  17.282  0.00  0.00    +0.000 NA
ATOM      5  C   UNL     1       8.507   9.282  18.268  0.00  0.00    +0.000 A 
ATOM      6  O   UNL     1       8.623   8.036  18.824  0.00  0.00    +0.000 OA
BRANCH   5   7
ATOM      7  C   UNL     1       9.340  10.346  18.802  0.00  0.00    +0.000 A 
ATOM      8  C   UNL     1      10.148  11.169  18.010  0.00  0.00    +0.000 A 
ATOM      9  C   UNL     1      10.901  12.186  18.603  0.00  0.00    +0.000 A 
ATOM     10  C   UNL     1      10.826  12.348  19.976  0.00  0.00    +0.000 A 
ATOM     11  N   UNL     1      10.067  11.572  20.776  0.00  0.00    +0.000 NA
ATOM     12  C   UNL     1       9.346  10.594  20.172  0.00  0.00    +0.000 A 
ENDBRANCH   5   7
ENDBRANCH   1   2
BRANCH   1  13
ATOM     13  C   UNL     1       6.426   5.185  16.901  0.00  0.00    +0.000 C 
BRANCH  13  15
ATOM     14  O   UNL     1       4.694   3.517  17.242  0.00  0.00    +0.000 OA
ATOM     15  C   UNL     1       5.066   4.683  17.367  0.00  0.00    +0.000 C 
BRANCH  15  16
ATOM     16  C   UNL     1       4.117   5.642  18.019  0.00  0.00    +0.000 A 
ATOM     17  C   UNL     1       3.866   6.862  17.364  0.00  0.00    +0.000 A 
ATOM     18  C   UNL     1       2.999   7.809  17.917  0.00  0.00    +0.000 A 
ATOM     19  C   UNL     1       2.377   7.543  19.131  0.00  0.00    +0.000 A 
ATOM     20 CL   UNL     1       1.314   8.708  19.819  0.00  0.00    +0.000 Cl
ATOM     21  C   UNL     1       2.614   6.337  19.793  0.00  0.00    +0.000 A 
ATOM     22  C   UNL     1       3.481   5.384  19.240  0.00  0.00    +0.000 A 
ENDBRANCH  15  16
ENDBRANCH  13  15
ENDBRANCH   1  13
TORSDOF 5
ENDMDL
MODEL 5
REMARK VINA RESULT:      -7.2      5.379      7.246
REMARK  Name = 
REMARK  5 active torsions:
REMARK  status: ('A' for Active; 'I' for Inactive)
REMARK    1  A    between atoms: C_2  and  C_3
REMARK    2  A    between atoms: C_2  and  C_16
REMARK    3  A    between atoms: C_3  and  S_4
REMARK    4  A    between atoms: S_4  and  C_5
REMARK    5  A    between atoms: C_8  and  C_9
REMARK                            x       y       z     vdW  Elec       q    Type
REMARK                         _______ _______ _______ _____ _____    ______ ____
ROOT
ATOM      1  S   UNL     1       2.754   5.156  19.975  0.00  0.00    +0.000 S 
ENDROOT
BRANCH   1   2
ATOM      2  C   UNL     1       2.154   6.777  19.877  0.00  0.00    +0.000 A 
ATOM      3  N   UNL     1       2.347   7.597  18.865  0.00  0.00    +0.000 NA
ATOM      4  N   UNL     1       1.718   8.780  19.191  0.00  0.00    +0.000 NA
ATOM      5  C   UNL     1       1.184   8.606  20.383  0.00  0.00    +0.000 A 
ATOM      6  O   UNL     1       1.414   7.351  20.880  0.00  0.00    +0.000 OA
BRANCH   5   7
ATOM      7  C   UNL     1       0.433   9.538  21.208  0.00  0.00    +0.000 A 
ATOM      8  C   UNL     1      -0.339  10.583  20.689  0.00  0.00    +0.000 A 
ATOM      9  C   UNL     1      -1.050  11.420  21.553  0.00  0.00    +0.000 A 
ATOM     10  C   UNL     1      -0.964  11.188  22.916  0.00  0.00    +0.000 A 
ATOM     11  N   UNL     1      -0.226  10.198  23.458  0.00  0.00    +0.000 NA
ATOM     12  C   UNL     1       0.452   9.401  22.594  0.00  0.00    +0.000 A 
ENDBRANCH   5   7
ENDBRANCH   1   2
BRANCH   1  13
ATOM     13  C   UNL     1       4.520   5.399  19.587  0.00  0.00    +0.000 C 
BRANCH  13  15
ATOM     14  O   UNL     1       5.151   3.064  19.369  0.00  0.00    +0.000 OA
ATOM     15  C   UNL     1       5.085   4.183  18.864  0.00  0.00    +0.000 C 
BRANCH  15  16
ATOM     16  C   UNL     1       5.589   4.337  17.461  0.00  0.00    +0.000 A 
ATOM     17  C   UNL     1       6.938   4.696  17.285  0.00  0.00    +0.000 A 
ATOM     18  C   UNL     1       7.475   4.866  16.005  0.00  0.00    +0.000 A 
ATOM     19  C   UNL     1       6.666   4.680  14.891  0.00  0.00    +0.000 A 
ATOM     20 CL   UNL     1       7.320   4.894  13.315  0.00  0.00    +0.000 Cl
ATOM     21  C   UNL     1       5.326   4.322  15.048  0.00  0.00    +0.000 A 
ATOM     22  C   UNL     1       4.784   4.148  16.331  0.00  0.00    +0.000 A 
ENDBRANCH  15  16
ENDBRANCH  13  15
ENDBRANCH   1  13
TORSDOF 5
ENDMDL
MODEL 6
REMARK VINA RESULT:      -7.2      0.422      1.075
REMARK  Name = 
REMARK  5 active torsions:
REMARK  status: ('A' for Active; 'I' for Inactive)
REMARK    1  A    between atoms: C_2  and  C_3
REMARK    2  A    between atoms: C_2  and  C_16
REMARK    3  A    between atoms: C_3  and  S_4
REMARK    4  A    between atoms: S_4  and  C_5
REMARK    5  A    between atoms: C_8  and  C_9
REMARK                            x       y       z     vdW  Elec       q    Type
REMARK                         _______ _______ _______ _____ _____    ______ ____
ROOT
ATOM      1  S   UNL     1       7.451   5.560  18.653  0.00  0.00    +0.000 S 
ENDROOT
BRANCH   1   2
ATOM      2  C   UNL     1       7.788   7.206  18.238  0.00  0.00    +0.000 A 
ATOM      3  N   UNL     1       7.387   7.809  17.138  0.00  0.00    +0.000 NA
ATOM      4  N   UNL     1       7.875   9.097  17.193  0.00  0.00    +0.000 NA
ATOM      5  C   UNL     1       8.545   9.198  18.324  0.00  0.00    +0.000 A 
ATOM      6  O   UNL     1       8.527   8.034  19.047  0.00  0.00    +0.000 OA
BRANCH   5   7
ATOM      7  C   UNL     1       9.282  10.325  18.868  0.00  0.00    +0.000 A 
ATOM      8  C   UNL     1       9.953  11.266  18.078  0.00  0.00    +0.000 A 
ATOM      9  C   UNL     1      10.619  12.335  18.682  0.00  0.00    +0.000 A 
ATOM     10  C   UNL     1      10.598  12.430  20.064  0.00  0.00    +0.000 A 
ATOM     11  N   UNL     1       9.971  11.542  20.862  0.00  0.00    +0.000 NA
ATOM     12  C   UNL     1       9.332  10.516  20.247  0.00  0.00    +0.000 A 
ENDBRANCH   5   7
ENDBRANCH   1   2
BRANCH   1  13
ATOM     13  C   UNL     1       7.001   4.862  17.029  0.00  0.00    +0.000 C 
BRANCH  13  15
ATOM     14  O   UNL     1       5.318   5.869  15.597  0.00  0.00    +0.000 OA
ATOM     15  C   UNL     1       5.587   5.273  16.638  0.00  0.00    +0.000 C 
BRANCH  15  16
ATOM     16  C   UNL     1       4.450   4.942  17.556  0.00  0.00    +0.000 A 
ATOM     17  C   UNL     1       3.998   3.610  17.585  0.00  0.00    +0.000 A 
ATOM     18  C   UNL     1       2.936   3.229  18.411  0.00  0.00    +0.000 A 
ATOM     19  C   UNL     1       2.317   4.179  19.214  0.00  0.00    +0.000 A 
ATOM     20 CL   UNL     1       1.006   3.717  20.228  0.00  0.00    +0.000 Cl
ATOM     21  C   UNL     1       2.754   5.505  19.199  0.00  0.00    +0.000 A 
ATOM     22  C   UNL     1       3.821   5.889  18.373  0.00  0.00    +0.000 A 
ENDBRANCH  15  16
ENDBRANCH  13  15
ENDBRANCH   1  13
TORSDOF 5
ENDMDL
MODEL 7
REMARK VINA RESULT:      -7.1      4.419      7.368
REMARK  Name = 
REMARK  5 active torsions:
REMARK  status: ('A' for Active; 'I' for Inactive)
REMARK    1  A    between atoms: C_2  and  C_3
REMARK    2  A    between atoms: C_2  and  C_16
REMARK    3  A    between atoms: C_3  and  S_4
REMARK    4  A    between atoms: S_4  and  C_5
REMARK    5  A    between atoms: C_8  and  C_9
REMARK                            x       y       z     vdW  Elec       q    Type
REMARK                         _______ _______ _______ _____ _____    ______ ____
ROOT
ATOM      1  S   UNL     1       5.899   7.136  16.936  0.00  0.00    +0.000 S 
ENDROOT
BRANCH   1   2
ATOM      2  C   UNL     1       4.393   6.784  17.713  0.00  0.00    +0.000 A 
ATOM      3  N   UNL     1       3.362   7.601  17.776  0.00  0.00    +0.000 NA
ATOM      4  N   UNL     1       2.380   6.945  18.487  0.00  0.00    +0.000 NA
ATOM      5  C   UNL     1       2.876   5.768  18.815  0.00  0.00    +0.000 A 
ATOM      6  O   UNL     1       4.152   5.592  18.349  0.00  0.00    +0.000 OA
BRANCH   5   7
ATOM      7  C   UNL     1       2.279   4.692  19.587  0.00  0.00    +0.000 A 
ATOM      8  C   UNL     1       2.482   4.519  20.961  0.00  0.00    +0.000 A 
ATOM      9  C   UNL     1       1.850   3.470  21.632  0.00  0.00    +0.000 A 
ATOM     10  C   UNL     1       1.033   2.619  20.907  0.00  0.00    +0.000 A 
ATOM     11  N   UNL     1       0.816   2.745  19.582  0.00  0.00    +0.000 NA
ATOM     12  C   UNL     1       1.442   3.774  18.958  0.00  0.00    +0.000 A 
ENDBRANCH   5   7
ENDBRANCH   1   2
BRANCH   1  13
ATOM     13  C   UNL     1       7.073   6.218  17.988  0.00  0.00    +0.000 C 
BRANCH  13  15
ATOM     14  O   UNL     1       8.312   4.137  17.805  0.00  0.00    +0.000 OA
ATOM     15  C   UNL     1       7.517   4.931  17.304  0.00  0.00    +0.000 C 
BRANCH  15  16
ATOM     16  C   UNL     1       6.966   4.595  15.952  0.00  0.00    +0.000 A 
ATOM     17  C   UNL     1       5.852   3.738  15.893  0.00  0.00    +0.000 A 
ATOM     18  C   UNL     1       5.290   3.374  14.665  0.00  0.00    +0.000 A 
ATOM     19  C   UNL     1       5.839   3.865  13.487  0.00  0.00    +0.000 A 
ATOM     20 CL   UNL     1       5.155   3.415  11.974  0.00  0.00    +0.000 Cl
ATOM     21  C   UNL     1       6.943   4.718  13.528  0.00  0.00    +0.000 A 
ATOM     22  C   UNL     1       7.508   5.086  14.758  0.00  0.00    +0.000 A 
ENDBRANCH  15  16
ENDBRANCH  13  15
ENDBRANCH   1  13
TORSDOF 5
ENDMDL
MODEL 8
REMARK VINA RESULT:      -7.1      3.306      5.147
REMARK  Name = 
REMARK  5 active torsions:
REMARK  status: ('A' for Active; 'I' for Inactive)
REMARK    1  A    between atoms: C_2  and  C_3
REMARK    2  A    between atoms: C_2  and  C_16
REMARK    3  A    between atoms: C_3  and  S_4
REMARK    4  A    between atoms: S_4  and  C_5
REMARK    5  A    between atoms: C_8  and  C_9
REMARK                            x       y       z     vdW  Elec       q    Type
REMARK                         _______ _______ _______ _____ _____    ______ ____
ROOT
ATOM      1  S   UNL     1       3.938   1.945  19.976  0.00  0.00    +0.000 S 
ENDROOT
BRANCH   1   2
ATOM      2  C   UNL     1       4.607   3.043  18.818  0.00  0.00    +0.000 A 
ATOM      3  N   UNL     1       4.481   2.938  17.512  0.00  0.00    +0.000 NA
ATOM      4  N   UNL     1       5.168   3.999  16.962  0.00  0.00    +0.000 NA
ATOM      5  C   UNL     1       5.672   4.684  17.970  0.00  0.00    +0.000 A 
ATOM      6  O   UNL     1       5.350   4.138  19.184  0.00  0.00    +0.000 OA
BRANCH   5   7
ATOM      7  C   UNL     1       6.503   5.875  17.958  0.00  0.00    +0.000 A 
ATOM      8  C   UNL     1       7.595   6.067  18.813  0.00  0.00    +0.000 A 
ATOM      9  C   UNL     1       8.357   7.234  18.720  0.00  0.00    +0.000 A 
ATOM     10  C   UNL     1       8.001   8.181  17.775  0.00  0.00    +0.000 A 
ATOM     11  N   UNL     1       6.953   8.041  16.939  0.00  0.00    +0.000 NA
ATOM     12  C   UNL     1       6.233   6.896  17.051  0.00  0.00    +0.000 A 
ENDBRANCH   5   7
ENDBRANCH   1   2
BRANCH   1  13
ATOM     13  C   UNL     1       2.948   3.071  21.015  0.00  0.00    +0.000 C 
BRANCH  13  15
ATOM     14  O   UNL     1       0.769   3.071  19.942  0.00  0.00    +0.000 OA
ATOM     15  C   UNL     1       1.804   3.679  20.213  0.00  0.00    +0.000 C 
BRANCH  15  16
ATOM     16  C   UNL     1       1.924   5.089  19.722  0.00  0.00    +0.000 A 
ATOM     17  C   UNL     1       2.105   5.289  18.341  0.00  0.00    +0.000 A 
ATOM     18  C   UNL     1       2.233   6.577  17.813  0.00  0.00    +0.000 A 
ATOM     19  C   UNL     1       2.184   7.676  18.663  0.00  0.00    +0.000 A 
ATOM     20 CL   UNL     1       2.348   9.262  18.019  0.00  0.00    +0.000 Cl
ATOM     21  C   UNL     1       2.003   7.495  20.035  0.00  0.00    +0.000 A 
ATOM     22  C   UNL     1       1.872   6.204  20.568  0.00  0.00    +0.000 A 
ENDBRANCH  15  16
ENDBRANCH  13  15
ENDBRANCH   1  13
TORSDOF 5
ENDMDL
MODEL 9
REMARK VINA RESULT:      -7.1      5.071      7.102
REMARK  Name = 
REMARK  5 active torsions:
REMARK  status: ('A' for Active; 'I' for Inactive)
REMARK    1  A    between atoms: C_2  and  C_3
REMARK    2  A    between atoms: C_2  and  C_16
REMARK    3  A    between atoms: C_3  and  S_4
REMARK    4  A    between atoms: S_4  and  C_5
REMARK    5  A    between atoms: C_8  and  C_9
REMARK                            x       y       z     vdW  Elec       q    Type
REMARK                         _______ _______ _______ _____ _____    ______ ____
ROOT
ATOM      1  S   UNL     1       1.830   4.589  19.449  0.00  0.00    +0.000 S 
ENDROOT
BRANCH   1   2
ATOM      2  C   UNL     1       3.439   4.402  18.838  0.00  0.00    +0.000 A 
ATOM      3  N   UNL     1       4.494   4.094  19.563  0.00  0.00    +0.000 NA
ATOM      4  N   UNL     1       5.569   4.057  18.699  0.00  0.00    +0.000 NA
ATOM      5  C   UNL     1       5.099   4.348  17.502  0.00  0.00    +0.000 A 
ATOM      6  O   UNL     1       3.748   4.573  17.512  0.00  0.00    +0.000 OA
BRANCH   5   7
ATOM      7  C   UNL     1       5.801   4.475  16.237  0.00  0.00    +0.000 A 
ATOM      8  C   UNL     1       5.392   3.841  15.058  0.00  0.00    +0.000 A 
ATOM      9  C   UNL     1       6.111   4.035  13.876  0.00  0.00    +0.000 A 
ATOM     10  C   UNL     1       7.225   4.857  13.909  0.00  0.00    +0.000 A 
ATOM     11  N   UNL     1       7.658   5.480  15.023  0.00  0.00    +0.000 NA
ATOM     12  C   UNL     1       6.938   5.274  16.155  0.00  0.00    +0.000 A 
ENDBRANCH   5   7
ENDBRANCH   1   2
BRANCH   1  13
ATOM     13  C   UNL     1       2.043   5.976  20.614  0.00  0.00    +0.000 C 
BRANCH  13  15
ATOM     14  O   UNL     1       2.429   7.507  18.769  0.00  0.00    +0.000 OA
ATOM     15  C   UNL     1       1.952   7.311  19.885  0.00  0.00    +0.000 C 
BRANCH  15  16
ATOM     16  C   UNL     1       1.246   8.456  20.544  0.00  0.00    +0.000 A 
ATOM     17  C   UNL     1       1.087   8.412  21.941  0.00  0.00    +0.000 A 
ATOM     18  C   UNL     1       0.431   9.442  22.623  0.00  0.00    +0.000 A 
ATOM     19  C   UNL     1      -0.074  10.523  21.911  0.00  0.00    +0.000 A 
ATOM     20 CL   UNL     1      -0.888  11.789  22.743  0.00  0.00    +0.000 Cl
ATOM     21  C   UNL     1       0.076  10.583  20.524  0.00  0.00    +0.000 A 
ATOM     22  C   UNL     1       0.736   9.553  19.838  0.00  0.00    +0.000 A 
ENDBRANCH  15  16
ENDBRANCH  13  15
ENDBRANCH   1  13
TORSDOF 5
ENDMDL
