MODEL 1
REMARK VINA RESULT:      -8.4      0.000      0.000
REMARK  Name = 
REMARK  7 active torsions:
REMARK  status: ('A' for Active; 'I' for Inactive)
REMARK    1  A    between atoms: C_1  and  C_2
REMARK    2  A    between atoms: C_7  and  O_8
REMARK    3  A    between atoms: O_8  and  C_9
REMARK    4  A    between atoms: C_9  and  C_10
REMARK    5  A    between atoms: C_10  and  N_11
REMARK    6  A    between atoms: C_13  and  C_14
REMARK    7  A    between atoms: C_14  and  C_16
REMARK                            x       y       z     vdW  Elec       q    Type
REMARK                         _______ _______ _______ _____ _____    ______ ____
ROOT
ATOM      1  N   UNL     1       2.358   6.437  19.467  0.00  0.00    +0.000 N 
ATOM      2  C   UNL     1       3.208   6.549  18.389  0.00  0.00    +0.000 A 
ATOM      3  C   UNL     1       3.472   5.298  17.871  0.00  0.00    +0.000 A 
ATOM      4  C   UNL     1       2.693   4.378  18.640  0.00  0.00    +0.000 A 
ATOM      5  C   UNL     1       2.527   2.977  18.585  0.00  0.00    +0.000 A 
ATOM      6  C   UNL     1       1.677   2.338  19.489  0.00  0.00    +0.000 A 
ATOM      7  C   UNL     1       0.998   3.076  20.450  0.00  0.00    +0.000 A 
ATOM      8  C   UNL     1       1.147   4.466  20.535  0.00  0.00    +0.000 A 
ATOM      9  C   UNL     1       2.003   5.107  19.624  0.00  0.00    +0.000 A 
ENDROOT
BRANCH   3  10
ATOM     10  C   UNL     1       4.382   4.987  16.764  0.00  0.00    +0.000 C 
ATOM     11  O   UNL     1       4.379   3.901  16.188  0.00  0.00    +0.000 OA
BRANCH  10  12
ATOM     12  C   UNL     1       5.420   6.017  16.305  0.00  0.00    +0.000 C 
ATOM     13  O   UNL     1       5.108   6.794  15.406  0.00  0.00    +0.000 OA
ATOM     14  N   UNL     1       6.655   6.046  16.949  0.00  0.00    +0.000 N 
ATOM     15  C   UNL     1       7.117   5.118  17.987  0.00  0.00    +0.000 C 
ATOM     16  C   UNL     1       7.515   5.886  19.257  0.00  0.00    +0.000 C 
ATOM     17  O   UNL     1       8.467   6.923  18.958  0.00  0.00    +0.000 OA
ATOM     18  C   UNL     1       7.925   7.856  18.009  0.00  0.00    +0.000 C 
ATOM     19  C   UNL     1       7.577   7.151  16.693  0.00  0.00    +0.000 C 
ENDBRANCH  10  12
ENDBRANCH   3  10
BRANCH   1  20
ATOM     20  C   UNL     1       1.920   7.562  20.305  0.00  0.00    +0.000 C 
BRANCH  20  21
ATOM     21  C   UNL     1       1.506   8.784  19.473  0.00  0.00    +0.000 C 
BRANCH  21  22
ATOM     22  O   UNL     1       0.238   9.332  19.807  0.00  0.00    +0.000 OA
BRANCH  22  29
ATOM     23  C   UNL     1      -2.258  10.055  17.921  0.00  0.00    +0.000 C 
ATOM     24  C   UNL     1      -1.156  10.946  18.434  0.00  0.00    +0.000 A 
ATOM     25  C   UNL     1      -1.240  12.293  18.005  0.00  0.00    +0.000 A 
ATOM     26  C   UNL     1      -0.306  13.249  18.391  0.00  0.00    +0.000 A 
ATOM     27  C   UNL     1       0.738  12.881  19.225  0.00  0.00    +0.000 A 
ATOM     28  C   UNL     1       0.844  11.556  19.659  0.00  0.00    +0.000 A 
ATOM     29  C   UNL     1      -0.083  10.568  19.274  0.00  0.00    +0.000 A 
ENDBRANCH  22  29
ENDBRANCH  21  22
ENDBRANCH  20  21
ENDBRANCH   1  20
TORSDOF 6
ENDMDL
MODEL 2
REMARK VINA RESULT:      -8.4      0.692      1.359
REMARK  Name = 
REMARK  7 active torsions:
REMARK  status: ('A' for Active; 'I' for Inactive)
REMARK    1  A    between atoms: C_1  and  C_2
REMARK    2  A    between atoms: C_7  and  O_8
REMARK    3  A    between atoms: O_8  and  C_9
REMARK    4  A    between atoms: C_9  and  C_10
REMARK    5  A    between atoms: C_10  and  N_11
REMARK    6  A    between atoms: C_13  and  C_14
REMARK    7  A    between atoms: C_14  and  C_16
REMARK                            x       y       z     vdW  Elec       q    Type
REMARK                         _______ _______ _______ _____ _____    ______ ____
ROOT
ATOM      1  N   UNL     1       2.337   6.393  19.509  0.00  0.00    +0.000 N 
ATOM      2  C   UNL     1       3.188   6.517  18.433  0.00  0.00    +0.000 A 
ATOM      3  C   UNL     1       3.468   5.269  17.914  0.00  0.00    +0.000 A 
ATOM      4  C   UNL     1       2.697   4.340  18.679  0.00  0.00    +0.000 A 
ATOM      5  C   UNL     1       2.547   2.937  18.620  0.00  0.00    +0.000 A 
ATOM      6  C   UNL     1       1.701   2.286  19.520  0.00  0.00    +0.000 A 
ATOM      7  C   UNL     1       1.011   3.015  20.480  0.00  0.00    +0.000 A 
ATOM      8  C   UNL     1       1.145   4.406  20.569  0.00  0.00    +0.000 A 
ATOM      9  C   UNL     1       1.996   5.059  19.661  0.00  0.00    +0.000 A 
ENDROOT
BRANCH   3  10
ATOM     10  C   UNL     1       4.385   4.972  16.809  0.00  0.00    +0.000 C 
ATOM     11  O   UNL     1       4.397   3.886  16.231  0.00  0.00    +0.000 OA
BRANCH  10  12
ATOM     12  C   UNL     1       5.411   6.015  16.354  0.00  0.00    +0.000 C 
ATOM     13  O   UNL     1       5.085   6.804  15.471  0.00  0.00    +0.000 OA
ATOM     14  N   UNL     1       6.653   6.042  16.985  0.00  0.00    +0.000 N 
ATOM     15  C   UNL     1       7.133   5.101  18.003  0.00  0.00    +0.000 C 
ATOM     16  C   UNL     1       7.540   5.852  19.279  0.00  0.00    +0.000 C 
ATOM     17  O   UNL     1       8.482   6.900  18.986  0.00  0.00    +0.000 OA
ATOM     18  C   UNL     1       7.924   7.843  18.057  0.00  0.00    +0.000 C 
ATOM     19  C   UNL     1       7.566   7.156  16.735  0.00  0.00    +0.000 C 
ENDBRANCH  10  12
ENDBRANCH   3  10
BRANCH   1  20
ATOM     20  C   UNL     1       1.884   7.511  20.348  0.00  0.00    +0.000 C 
BRANCH  20  21
ATOM     21  C   UNL     1       1.508   8.748  19.520  0.00  0.00    +0.000 C 
BRANCH  21  22
ATOM     22  O   UNL     1       0.921   9.808  20.264  0.00  0.00    +0.000 OA
BRANCH  22  29
ATOM     23  C   UNL     1      -0.359  12.584  21.246  0.00  0.00    +0.000 C 
ATOM     24  C   UNL     1      -0.703  11.743  20.043  0.00  0.00    +0.000 A 
ATOM     25  C   UNL     1      -1.753  12.260  19.244  0.00  0.00    +0.000 A 
ATOM     26  C   UNL     1      -2.192  11.611  18.095  0.00  0.00    +0.000 A 
ATOM     27  C   UNL     1      -1.584  10.427  17.709  0.00  0.00    +0.000 A 
ATOM     28  C   UNL     1      -0.548   9.895  18.483  0.00  0.00    +0.000 A 
ATOM     29  C   UNL     1      -0.093  10.528  19.656  0.00  0.00    +0.000 A 
ENDBRANCH  22  29
ENDBRANCH  21  22
ENDBRANCH  20  21
ENDBRANCH   1  20
TORSDOF 6
ENDMDL
MODEL 3
REMARK VINA RESULT:      -8.1      1.430      1.977
REMARK  Name = 
REMARK  7 active torsions:
REMARK  status: ('A' for Active; 'I' for Inactive)
REMARK    1  A    between atoms: C_1  and  C_2
REMARK    2  A    between atoms: C_7  and  O_8
REMARK    3  A    between atoms: O_8  and  C_9
REMARK    4  A    between atoms: C_9  and  C_10
REMARK    5  A    between atoms: C_10  and  N_11
REMARK    6  A    between atoms: C_13  and  C_14
REMARK    7  A    between atoms: C_14  and  C_16
REMARK                            x       y       z     vdW  Elec       q    Type
REMARK                         _______ _______ _______ _____ _____    ______ ____
ROOT
ATOM      1  N   UNL     1       2.590   6.026  19.638  0.00  0.00    +0.000 N 
ATOM      2  C   UNL     1       3.502   6.227  18.625  0.00  0.00    +0.000 A 
ATOM      3  C   UNL     1       3.570   5.101  17.830  0.00  0.00    +0.000 A 
ATOM      4  C   UNL     1       2.603   4.187  18.352  0.00  0.00    +0.000 A 
ATOM      5  C   UNL     1       2.197   2.891  17.966  0.00  0.00    +0.000 A 
ATOM      6  C   UNL     1       1.202   2.227  18.685  0.00  0.00    +0.000 A 
ATOM      7  C   UNL     1       0.613   2.835  19.786  0.00  0.00    +0.000 A 
ATOM      8  C   UNL     1       0.998   4.117  20.198  0.00  0.00    +0.000 A 
ATOM      9  C   UNL     1       2.000   4.784  19.473  0.00  0.00    +0.000 A 
ENDROOT
BRANCH   3  10
ATOM     10  C   UNL     1       4.469   4.894  16.690  0.00  0.00    +0.000 C 
ATOM     11  O   UNL     1       4.500   3.843  16.052  0.00  0.00    +0.000 OA
BRANCH  10  12
ATOM     12  C   UNL     1       5.454   5.991  16.272  0.00  0.00    +0.000 C 
ATOM     13  O   UNL     1       5.101   6.790  15.408  0.00  0.00    +0.000 OA
ATOM     14  N   UNL     1       6.689   6.053  16.914  0.00  0.00    +0.000 N 
ATOM     15  C   UNL     1       7.200   5.105  17.911  0.00  0.00    +0.000 C 
ATOM     16  C   UNL     1       7.566   5.837  19.210  0.00  0.00    +0.000 C 
ATOM     17  O   UNL     1       8.466   6.931  18.954  0.00  0.00    +0.000 OA
ATOM     18  C   UNL     1       7.874   7.876  18.046  0.00  0.00    +0.000 C 
ATOM     19  C   UNL     1       7.555   7.211  16.702  0.00  0.00    +0.000 C 
ENDBRANCH  10  12
ENDBRANCH   3  10
BRANCH   1  20
ATOM     20  C   UNL     1       2.312   6.989  20.714  0.00  0.00    +0.000 C 
BRANCH  20  21
ATOM     21  C   UNL     1       1.050   7.818  20.443  0.00  0.00    +0.000 C 
BRANCH  21  22
ATOM     22  O   UNL     1       1.274   9.213  20.287  0.00  0.00    +0.000 OA
BRANCH  22  29
ATOM     23  C   UNL     1       0.690  12.324  19.746  0.00  0.00    +0.000 C 
ATOM     24  C   UNL     1       0.226  11.446  20.879  0.00  0.00    +0.000 A 
ATOM     25  C   UNL     1      -0.575  12.104  21.845  0.00  0.00    +0.000 A 
ATOM     26  C   UNL     1      -1.091  11.439  22.952  0.00  0.00    +0.000 A 
ATOM     27  C   UNL     1      -0.823  10.090  23.120  0.00  0.00    +0.000 A 
ATOM     28  C   UNL     1      -0.031   9.418  22.182  0.00  0.00    +0.000 A 
ATOM     29  C   UNL     1       0.510  10.072  21.058  0.00  0.00    +0.000 A 
ENDBRANCH  22  29
ENDBRANCH  21  22
ENDBRANCH  20  21
ENDBRANCH   1  20
TORSDOF 6
ENDMDL
MODEL 4
REMARK VINA RESULT:      -8.0      1.092      1.439
REMARK  Name = 
REMARK  7 active torsions:
REMARK  status: ('A' for Active; 'I' for Inactive)
REMARK    1  A    between atoms: C_1  and  C_2
REMARK    2  A    between atoms: C_7  and  O_8
REMARK    3  A    between atoms: O_8  and  C_9
REMARK    4  A    between atoms: C_9  and  C_10
REMARK    5  A    between atoms: C_10  and  N_11
REMARK    6  A    between atoms: C_13  and  C_14
REMARK    7  A    between atoms: C_14  and  C_16
REMARK                            x       y       z     vdW  Elec       q    Type
REMARK                         _______ _______ _______ _____ _____    ______ ____
ROOT
ATOM      1  N   UNL     1       2.482   6.119  19.587  0.00  0.00    +0.000 N 
ATOM      2  C   UNL     1       3.400   6.312  18.578  0.00  0.00    +0.000 A 
ATOM      3  C   UNL     1       3.518   5.158  17.829  0.00  0.00    +0.000 A 
ATOM      4  C   UNL     1       2.576   4.232  18.376  0.00  0.00    +0.000 A 
ATOM      5  C   UNL     1       2.222   2.908  18.037  0.00  0.00    +0.000 A 
ATOM      6  C   UNL     1       1.241   2.238  18.769  0.00  0.00    +0.000 A 
ATOM      7  C   UNL     1       0.616   2.868  19.838  0.00  0.00    +0.000 A 
ATOM      8  C   UNL     1       0.950   4.178  20.203  0.00  0.00    +0.000 A 
ATOM      9  C   UNL     1       1.937   4.851  19.464  0.00  0.00    +0.000 A 
ENDROOT
BRANCH   3  10
ATOM     10  C   UNL     1       4.439   4.938  16.710  0.00  0.00    +0.000 C 
ATOM     11  O   UNL     1       4.476   3.883  16.078  0.00  0.00    +0.000 OA
BRANCH  10  12
ATOM     12  C   UNL     1       5.441   6.026  16.306  0.00  0.00    +0.000 C 
ATOM     13  O   UNL     1       5.100   6.841  15.453  0.00  0.00    +0.000 OA
ATOM     14  N   UNL     1       6.676   6.060  16.949  0.00  0.00    +0.000 N 
ATOM     15  C   UNL     1       7.173   5.092  17.933  0.00  0.00    +0.000 C 
ATOM     16  C   UNL     1       7.549   5.801  19.242  0.00  0.00    +0.000 C 
ATOM     17  O   UNL     1       8.465   6.885  19.001  0.00  0.00    +0.000 OA
ATOM     18  C   UNL     1       7.889   7.851  18.105  0.00  0.00    +0.000 C 
ATOM     19  C   UNL     1       7.560   7.208  16.753  0.00  0.00    +0.000 C 
ENDBRANCH  10  12
ENDBRANCH   3  10
BRANCH   1  20
ATOM     20  C   UNL     1       2.155   7.113  20.619  0.00  0.00    +0.000 C 
BRANCH  20  21
ATOM     21  C   UNL     1       1.401   8.322  20.049  0.00  0.00    +0.000 C 
BRANCH  21  22
ATOM     22  O   UNL     1       0.547   8.983  20.973  0.00  0.00    +0.000 OA
BRANCH  22  29
ATOM     23  C   UNL     1      -1.034  10.992  22.915  0.00  0.00    +0.000 C 
ATOM     24  C   UNL     1      -0.358  11.268  21.597  0.00  0.00    +0.000 A 
ATOM     25  C   UNL     1      -0.451  12.612  21.157  0.00  0.00    +0.000 A 
ATOM     26  C   UNL     1       0.122  13.038  19.964  0.00  0.00    +0.000 A 
ATOM     27  C   UNL     1       0.812  12.128  19.178  0.00  0.00    +0.000 A 
ATOM     28  C   UNL     1       0.914  10.795  19.589  0.00  0.00    +0.000 A 
ATOM     29  C   UNL     1       0.334  10.338  20.788  0.00  0.00    +0.000 A 
ENDBRANCH  22  29
ENDBRANCH  21  22
ENDBRANCH  20  21
ENDBRANCH   1  20
TORSDOF 6
ENDMDL
MODEL 5
REMARK VINA RESULT:      -8.0      2.606      7.939
REMARK  Name = 
REMARK  7 active torsions:
REMARK  status: ('A' for Active; 'I' for Inactive)
REMARK    1  A    between atoms: C_1  and  C_2
REMARK    2  A    between atoms: C_7  and  O_8
REMARK    3  A    between atoms: O_8  and  C_9
REMARK    4  A    between atoms: C_9  and  C_10
REMARK    5  A    between atoms: C_10  and  N_11
REMARK    6  A    between atoms: C_13  and  C_14
REMARK    7  A    between atoms: C_14  and  C_16
REMARK                            x       y       z     vdW  Elec       q    Type
REMARK                         _______ _______ _______ _____ _____    ______ ____
ROOT
ATOM      1  N   UNL     1       5.253   5.523  17.927  0.00  0.00    +0.000 N 
ATOM      2  C   UNL     1       4.756   6.795  18.107  0.00  0.00    +0.000 A 
ATOM      3  C   UNL     1       3.377   6.765  18.082  0.00  0.00    +0.000 A 
ATOM      4  C   UNL     1       3.013   5.390  17.939  0.00  0.00    +0.000 A 
ATOM      5  C   UNL     1       1.768   4.726  17.868  0.00  0.00    +0.000 A 
ATOM      6  C   UNL     1       1.723   3.339  17.725  0.00  0.00    +0.000 A 
ATOM      7  C   UNL     1       2.901   2.607  17.646  0.00  0.00    +0.000 A 
ATOM      8  C   UNL     1       4.151   3.236  17.706  0.00  0.00    +0.000 A 
ATOM      9  C   UNL     1       4.194   4.633  17.851  0.00  0.00    +0.000 A 
ENDROOT
BRANCH   3  10
ATOM     10  C   UNL     1       2.479   7.920  18.171  0.00  0.00    +0.000 C 
ATOM     11  O   UNL     1       2.318   8.710  17.242  0.00  0.00    +0.000 OA
BRANCH  10  12
ATOM     12  C   UNL     1       1.723   8.214  19.472  0.00  0.00    +0.000 C 
ATOM     13  O   UNL     1       1.909   7.471  20.432  0.00  0.00    +0.000 OA
ATOM     14  N   UNL     1       0.889   9.329  19.516  0.00  0.00    +0.000 N 
ATOM     15  C   UNL     1       0.575  10.227  18.399  0.00  0.00    +0.000 C 
ATOM     16  C   UNL     1       0.934  11.676  18.757  0.00  0.00    +0.000 C 
ATOM     17  O   UNL     1       0.316  12.073  19.994  0.00  0.00    +0.000 OA
ATOM     18  C   UNL     1       0.734  11.218  21.071  0.00  0.00    +0.000 C 
ATOM     19  C   UNL     1       0.333   9.764  20.797  0.00  0.00    +0.000 C 
ENDBRANCH  10  12
ENDBRANCH   3  10
BRANCH   1  20
ATOM     20  C   UNL     1       6.681   5.190  17.828  0.00  0.00    +0.000 C 
BRANCH  20  21
ATOM     21  C   UNL     1       7.024   4.470  16.517  0.00  0.00    +0.000 C 
BRANCH  21  22
ATOM     22  O   UNL     1       7.304   5.328  15.419  0.00  0.00    +0.000 OA
BRANCH  22  29
ATOM     23  C   UNL     1       8.883   6.042  12.716  0.00  0.00    +0.000 C 
ATOM     24  C   UNL     1       7.708   5.121  12.924  0.00  0.00    +0.000 A 
ATOM     25  C   UNL     1       7.235   4.494  11.745  0.00  0.00    +0.000 A 
ATOM     26  C   UNL     1       6.161   3.610  11.761  0.00  0.00    +0.000 A 
ATOM     27  C   UNL     1       5.534   3.324  12.963  0.00  0.00    +0.000 A 
ATOM     28  C   UNL     1       5.980   3.933  14.140  0.00  0.00    +0.000 A 
ATOM     29  C   UNL     1       7.059   4.839  14.148  0.00  0.00    +0.000 A 
ENDBRANCH  22  29
ENDBRANCH  21  22
ENDBRANCH  20  21
ENDBRANCH   1  20
TORSDOF 6
ENDMDL
MODEL 6
REMARK VINA RESULT:      -7.9      2.666      7.979
REMARK  Name = 
REMARK  7 active torsions:
REMARK  status: ('A' for Active; 'I' for Inactive)
REMARK    1  A    between atoms: C_1  and  C_2
REMARK    2  A    between atoms: C_7  and  O_8
REMARK    3  A    between atoms: O_8  and  C_9
REMARK    4  A    between atoms: C_9  and  C_10
REMARK    5  A    between atoms: C_10  and  N_11
REMARK    6  A    between atoms: C_13  and  C_14
REMARK    7  A    between atoms: C_14  and  C_16
REMARK                            x       y       z     vdW  Elec       q    Type
REMARK                         _______ _______ _______ _____ _____    ______ ____
ROOT
ATOM      1  N   UNL     1       3.997   6.143  17.377  0.00  0.00    +0.000 N 
ATOM      2  C   UNL     1       3.559   7.102  18.262  0.00  0.00    +0.000 A 
ATOM      3  C   UNL     1       2.536   6.592  19.034  0.00  0.00    +0.000 A 
ATOM      4  C   UNL     1       2.382   5.227  18.637  0.00  0.00    +0.000 A 
ATOM      5  C   UNL     1       1.522   4.192  19.064  0.00  0.00    +0.000 A 
ATOM      6  C   UNL     1       1.604   2.929  18.477  0.00  0.00    +0.000 A 
ATOM      7  C   UNL     1       2.526   2.687  17.467  0.00  0.00    +0.000 A 
ATOM      8  C   UNL     1       3.389   3.695  17.017  0.00  0.00    +0.000 A 
ATOM      9  C   UNL     1       3.304   4.966  17.610  0.00  0.00    +0.000 A 
ENDROOT
BRANCH   3  10
ATOM     10  C   UNL     1       1.761   7.319  20.044  0.00  0.00    +0.000 C 
ATOM     11  O   UNL     1       1.361   6.792  21.081  0.00  0.00    +0.000 OA
BRANCH  10  12
ATOM     12  C   UNL     1       1.378   8.786  19.818  0.00  0.00    +0.000 C 
ATOM     13  O   UNL     1       1.207   9.169  18.663  0.00  0.00    +0.000 OA
ATOM     14  N   UNL     1       1.209   9.607  20.931  0.00  0.00    +0.000 N 
ATOM     15  C   UNL     1       1.449   9.236  22.330  0.00  0.00    +0.000 C 
ATOM     16  C   UNL     1       0.183   9.458  23.170  0.00  0.00    +0.000 C 
ATOM     17  O   UNL     1      -0.313  10.801  23.015  0.00  0.00    +0.000 OA
ATOM     18  C   UNL     1      -0.622  11.076  21.639  0.00  0.00    +0.000 C 
ATOM     19  C   UNL     1       0.630  10.939  20.764  0.00  0.00    +0.000 C 
ENDBRANCH  10  12
ENDBRANCH   3  10
BRANCH   1  20
ATOM     20  C   UNL     1       5.030   6.360  16.354  0.00  0.00    +0.000 C 
BRANCH  20  21
ATOM     21  C   UNL     1       6.252   5.454  16.556  0.00  0.00    +0.000 C 
BRANCH  21  22
ATOM     22  O   UNL     1       7.252   5.566  15.551  0.00  0.00    +0.000 OA
BRANCH  22  29
ATOM     23  C   UNL     1       8.786   6.036  12.770  0.00  0.00    +0.000 C 
ATOM     24  C   UNL     1       7.644   5.105  13.088  0.00  0.00    +0.000 A 
ATOM     25  C   UNL     1       7.184   4.340  11.989  0.00  0.00    +0.000 A 
ATOM     26  C   UNL     1       6.141   3.428  12.111  0.00  0.00    +0.000 A 
ATOM     27  C   UNL     1       5.533   3.252  13.343  0.00  0.00    +0.000 A 
ATOM     28  C   UNL     1       5.966   3.999  14.443  0.00  0.00    +0.000 A 
ATOM     29  C   UNL     1       7.014   4.935  14.343  0.00  0.00    +0.000 A 
ENDBRANCH  22  29
ENDBRANCH  21  22
ENDBRANCH  20  21
ENDBRANCH   1  20
TORSDOF 6
ENDMDL
MODEL 7
REMARK VINA RESULT:      -7.9      2.914      8.746
REMARK  Name = 
REMARK  7 active torsions:
REMARK  status: ('A' for Active; 'I' for Inactive)
REMARK    1  A    between atoms: C_1  and  C_2
REMARK    2  A    between atoms: C_7  and  O_8
REMARK    3  A    between atoms: O_8  and  C_9
REMARK    4  A    between atoms: C_9  and  C_10
REMARK    5  A    between atoms: C_10  and  N_11
REMARK    6  A    between atoms: C_13  and  C_14
REMARK    7  A    between atoms: C_14  and  C_16
REMARK                            x       y       z     vdW  Elec       q    Type
REMARK                         _______ _______ _______ _____ _____    ______ ____
ROOT
ATOM      1  N   UNL     1       1.285   8.941  19.953  0.00  0.00    +0.000 N 
ATOM      2  C   UNL     1       0.889   9.807  18.959  0.00  0.00    +0.000 A 
ATOM      3  C   UNL     1      -0.005  10.726  19.471  0.00  0.00    +0.000 A 
ATOM      4  C   UNL     1      -0.113  10.439  20.867  0.00  0.00    +0.000 A 
ATOM      5  C   UNL     1      -0.849  11.030  21.917  0.00  0.00    +0.000 A 
ATOM      6  C   UNL     1      -0.750  10.521  23.213  0.00  0.00    +0.000 A 
ATOM      7  C   UNL     1       0.066   9.428  23.473  0.00  0.00    +0.000 A 
ATOM      8  C   UNL     1       0.803   8.815  22.452  0.00  0.00    +0.000 A 
ATOM      9  C   UNL     1       0.703   9.329  21.148  0.00  0.00    +0.000 A 
ENDROOT
BRANCH   3  10
ATOM     10  C   UNL     1      -0.707  11.771  18.719  0.00  0.00    +0.000 C 
ATOM     11  O   UNL     1      -0.115  12.659  18.107  0.00  0.00    +0.000 OA
BRANCH  10  12
ATOM     12  C   UNL     1      -2.239  11.816  18.702  0.00  0.00    +0.000 C 
ATOM     13  O   UNL     1      -2.805  12.582  19.477  0.00  0.00    +0.000 OA
ATOM     14  N   UNL     1      -2.916  11.012  17.788  0.00  0.00    +0.000 N 
ATOM     15  C   UNL     1      -2.313  10.035  16.874  0.00  0.00    +0.000 C 
ATOM     16  C   UNL     1      -2.693  10.353  15.420  0.00  0.00    +0.000 C 
ATOM     17  O   UNL     1      -4.120  10.466  15.270  0.00  0.00    +0.000 OA
ATOM     18  C   UNL     1      -4.643  11.502  16.118  0.00  0.00    +0.000 C 
ATOM     19  C   UNL     1      -4.353  11.195  17.592  0.00  0.00    +0.000 C 
ENDBRANCH  10  12
ENDBRANCH   3  10
BRANCH   1  20
ATOM     20  C   UNL     1       2.179   7.791  19.751  0.00  0.00    +0.000 C 
BRANCH  20  21
ATOM     21  C   UNL     1       2.356   7.443  18.267  0.00  0.00    +0.000 C 
BRANCH  21  22
ATOM     22  O   UNL     1       1.987   6.115  17.917  0.00  0.00    +0.000 OA
BRANCH  22  29
ATOM     23  C   UNL     1       0.967   4.143  20.237  0.00  0.00    +0.000 C 
ATOM     24  C   UNL     1       2.301   4.189  19.537  0.00  0.00    +0.000 A 
ATOM     25  C   UNL     1       3.236   3.223  19.985  0.00  0.00    +0.000 A 
ATOM     26  C   UNL     1       4.512   3.125  19.442  0.00  0.00    +0.000 A 
ATOM     27  C   UNL     1       4.887   3.990  18.426  0.00  0.00    +0.000 A 
ATOM     28  C   UNL     1       3.984   4.955  17.969  0.00  0.00    +0.000 A 
ATOM     29  C   UNL     1       2.689   5.080  18.510  0.00  0.00    +0.000 A 
ENDBRANCH  22  29
ENDBRANCH  21  22
ENDBRANCH  20  21
ENDBRANCH   1  20
TORSDOF 6
ENDMDL
MODEL 8
REMARK VINA RESULT:      -7.9      3.541      9.669
REMARK  Name = 
REMARK  7 active torsions:
REMARK  status: ('A' for Active; 'I' for Inactive)
REMARK    1  A    between atoms: C_1  and  C_2
REMARK    2  A    between atoms: C_7  and  O_8
REMARK    3  A    between atoms: O_8  and  C_9
REMARK    4  A    between atoms: C_9  and  C_10
REMARK    5  A    between atoms: C_10  and  N_11
REMARK    6  A    between atoms: C_13  and  C_14
REMARK    7  A    between atoms: C_14  and  C_16
REMARK                            x       y       z     vdW  Elec       q    Type
REMARK                         _______ _______ _______ _____ _____    ______ ____
ROOT
ATOM      1  N   UNL     1       0.578   9.982  18.624  0.00  0.00    +0.000 N 
ATOM      2  C   UNL     1       0.861  10.535  19.853  0.00  0.00    +0.000 A 
ATOM      3  C   UNL     1      -0.218  11.275  20.291  0.00  0.00    +0.000 A 
ATOM      4  C   UNL     1      -1.237  11.116  19.301  0.00  0.00    +0.000 A 
ATOM      5  C   UNL     1      -2.556  11.608  19.189  0.00  0.00    +0.000 A 
ATOM      6  C   UNL     1      -3.334  11.274  18.080  0.00  0.00    +0.000 A 
ATOM      7  C   UNL     1      -2.812  10.465  17.079  0.00  0.00    +0.000 A 
ATOM      8  C   UNL     1      -1.506   9.967  17.157  0.00  0.00    +0.000 A 
ATOM      9  C   UNL     1      -0.724  10.303  18.275  0.00  0.00    +0.000 A 
ENDROOT
BRANCH   3  10
ATOM     10  C   UNL     1      -0.286  12.072  21.520  0.00  0.00    +0.000 C 
ATOM     11  O   UNL     1       0.484  13.003  21.751  0.00  0.00    +0.000 OA
BRANCH  10  12
ATOM     12  C   UNL     1      -1.318  11.738  22.602  0.00  0.00    +0.000 C 
ATOM     13  O   UNL     1      -1.081  10.801  23.361  0.00  0.00    +0.000 OA
ATOM     14  N   UNL     1      -2.460  12.531  22.697  0.00  0.00    +0.000 N 
ATOM     15  C   UNL     1      -2.837  13.626  21.796  0.00  0.00    +0.000 C 
ATOM     16  C   UNL     1      -3.032  14.928  22.585  0.00  0.00    +0.000 C 
ATOM     17  O   UNL     1      -3.958  14.743  23.672  0.00  0.00    +0.000 OA
ATOM     18  C   UNL     1      -3.491  13.726  24.573  0.00  0.00    +0.000 C 
ATOM     19  C   UNL     1      -3.348  12.383  23.850  0.00  0.00    +0.000 C 
ENDBRANCH  10  12
ENDBRANCH   3  10
BRANCH   1  20
ATOM     20  C   UNL     1       1.525   9.189  17.827  0.00  0.00    +0.000 C 
BRANCH  20  21
ATOM     21  C   UNL     1       2.168   8.057  18.640  0.00  0.00    +0.000 C 
BRANCH  21  22
ATOM     22  O   UNL     1       3.366   7.531  18.085  0.00  0.00    +0.000 OA
BRANCH  22  29
ATOM     23  C   UNL     1       5.706   5.908  16.601  0.00  0.00    +0.000 C 
ATOM     24  C   UNL     1       4.370   5.420  17.099  0.00  0.00    +0.000 A 
ATOM     25  C   UNL     1       4.118   4.046  16.862  0.00  0.00    +0.000 A 
ATOM     26  C   UNL     1       2.935   3.434  17.262  0.00  0.00    +0.000 A 
ATOM     27  C   UNL     1       1.971   4.182  17.919  0.00  0.00    +0.000 A 
ATOM     28  C   UNL     1       2.194   5.541  18.162  0.00  0.00    +0.000 A 
ATOM     29  C   UNL     1       3.380   6.186  17.758  0.00  0.00    +0.000 A 
ENDBRANCH  22  29
ENDBRANCH  21  22
ENDBRANCH  20  21
ENDBRANCH   1  20
TORSDOF 6
ENDMDL
MODEL 9
REMARK VINA RESULT:      -7.8      2.917      8.806
REMARK  Name = 
REMARK  7 active torsions:
REMARK  status: ('A' for Active; 'I' for Inactive)
REMARK    1  A    between atoms: C_1  and  C_2
REMARK    2  A    between atoms: C_7  and  O_8
REMARK    3  A    between atoms: O_8  and  C_9
REMARK    4  A    between atoms: C_9  and  C_10
REMARK    5  A    between atoms: C_10  and  N_11
REMARK    6  A    between atoms: C_13  and  C_14
REMARK    7  A    between atoms: C_14  and  C_16
REMARK                            x       y       z     vdW  Elec       q    Type
REMARK                         _______ _______ _______ _____ _____    ______ ____
ROOT
ATOM      1  N   UNL     1       1.731   9.286  18.760  0.00  0.00    +0.000 N 
ATOM      2  C   UNL     1       1.169  10.371  18.123  0.00  0.00    +0.000 A 
ATOM      3  C   UNL     1       0.259  10.982  18.961  0.00  0.00    +0.000 A 
ATOM      4  C   UNL     1       0.313  10.266  20.197  0.00  0.00    +0.000 A 
ATOM      5  C   UNL     1      -0.361  10.419  21.428  0.00  0.00    +0.000 A 
ATOM      6  C   UNL     1      -0.094   9.546  22.484  0.00  0.00    +0.000 A 
ATOM      7  C   UNL     1       0.829   8.521  22.325  0.00  0.00    +0.000 A 
ATOM      8  C   UNL     1       1.510   8.339  21.114  0.00  0.00    +0.000 A 
ATOM      9  C   UNL     1       1.240   9.219  20.053  0.00  0.00    +0.000 A 
ENDROOT
BRANCH   3  10
ATOM     10  C   UNL     1      -0.596  12.127  18.631  0.00  0.00    +0.000 C 
ATOM     11  O   UNL     1      -0.148  13.186  18.195  0.00  0.00    +0.000 OA
BRANCH  10  12
ATOM     12  C   UNL     1      -2.110  12.054  18.862  0.00  0.00    +0.000 C 
ATOM     13  O   UNL     1      -2.589  12.711  19.783  0.00  0.00    +0.000 OA
ATOM     14  N   UNL     1      -2.875  11.275  17.997  0.00  0.00    +0.000 N 
ATOM     15  C   UNL     1      -2.370  10.423  16.914  0.00  0.00    +0.000 C 
ATOM     16  C   UNL     1      -3.004  10.824  15.574  0.00  0.00    +0.000 C 
ATOM     17  O   UNL     1      -4.440  10.837  15.663  0.00  0.00    +0.000 OA
ATOM     18  C   UNL     1      -4.882  11.759  16.673  0.00  0.00    +0.000 C 
ATOM     19  C   UNL     1      -4.334  11.360  18.048  0.00  0.00    +0.000 C 
ENDBRANCH  10  12
ENDBRANCH   3  10
BRANCH   1  20
ATOM     20  C   UNL     1       2.691   8.361  18.141  0.00  0.00    +0.000 C 
BRANCH  20  21
ATOM     21  C   UNL     1       2.148   6.928  18.054  0.00  0.00    +0.000 C 
BRANCH  21  22
ATOM     22  O   UNL     1       2.715   6.017  18.987  0.00  0.00    +0.000 OA
BRANCH  22  29
ATOM     23  C   UNL     1       3.935   3.889  16.915  0.00  0.00    +0.000 C 
ATOM     24  C   UNL     1       2.870   3.701  17.964  0.00  0.00    +0.000 A 
ATOM     25  C   UNL     1       2.329   2.393  18.027  0.00  0.00    +0.000 A 
ATOM     26  C   UNL     1       1.341   2.048  18.943  0.00  0.00    +0.000 A 
ATOM     27  C   UNL     1       0.870   3.004  19.828  0.00  0.00    +0.000 A 
ATOM     28  C   UNL     1       1.385   4.304  19.782  0.00  0.00    +0.000 A 
ATOM     29  C   UNL     1       2.379   4.681  18.858  0.00  0.00    +0.000 A 
ENDBRANCH  22  29
ENDBRANCH  21  22
ENDBRANCH  20  21
ENDBRANCH   1  20
TORSDOF 6
ENDMDL
