MODEL 1
REMARK VINA RESULT:      -7.7      0.000      0.000
REMARK  Name = 
REMARK  4 active torsions:
REMARK  status: ('A' for Active; 'I' for Inactive)
REMARK    1  A    between atoms: C_1  and  O_2
REMARK    2  A    between atoms: O_2  and  C_3
REMARK    3  A    between atoms: C_10  and  C_11
REMARK    4  A    between atoms: C_14  and  O_15
REMARK                            x       y       z     vdW  Elec       q    Type
REMARK                         _______ _______ _______ _____ _____    ______ ____
ROOT
ATOM      1  C   UNL     1      -0.057  10.140  21.975  0.00  0.00    +0.000 A 
ATOM      2  C   UNL     1      -0.035  10.983  20.860  0.00  0.00    +0.000 A 
ATOM      3  C   UNL     1       0.581  10.568  19.680  0.00  0.00    +0.000 A 
ATOM      4  C   UNL     1       1.177   9.308  19.618  0.00  0.00    +0.000 A 
ATOM      5  C   UNL     1       1.851   8.866  18.391  0.00  0.00    +0.000 A 
ATOM      6  O   UNL     1       1.883   9.548  17.377  0.00  0.00    +0.000 OA
ATOM      7  C   UNL     1       2.505   7.553  18.444  0.00  0.00    +0.000 A 
ATOM      8  C   UNL     1       2.417   6.808  19.557  0.00  0.00    +0.000 A 
ATOM      9  O   UNL     1       1.744   7.212  20.705  0.00  0.00    +0.000 OA
ATOM     10  C   UNL     1       1.160   8.457  20.718  0.00  0.00    +0.000 A 
ATOM     11  C   UNL     1       0.536   8.874  21.896  0.00  0.00    +0.000 A 
ENDROOT
BRANCH   8  12
ATOM     12  C   UNL     1       3.089   5.490  19.657  0.00  0.00    +0.000 A 
ATOM     13  C   UNL     1       4.370   5.302  19.110  0.00  0.00    +0.000 A 
ATOM     14  C   UNL     1       5.002   4.053  19.165  0.00  0.00    +0.000 A 
ATOM     15  C   UNL     1       4.356   2.984  19.773  0.00  0.00    +0.000 A 
ATOM     16  C   UNL     1       3.101   3.146  20.340  0.00  0.00    +0.000 A 
ATOM     17  C   UNL     1       2.475   4.395  20.290  0.00  0.00    +0.000 A 
BRANCH  15  18
ATOM     18  O   UNL     1       4.925   1.748  19.837  0.00  0.00    +0.000 OA
ATOM     19  H   UNL     1       4.512   1.180  19.166  0.00  0.00    +0.000 HD
ENDBRANCH  15  18
ENDBRANCH   8  12
BRANCH   1  21
ATOM     20  C   UNL     1      -1.656  11.416  23.184  0.00  0.00    +0.000 C 
ATOM     21  O   UNL     1      -0.619  10.441  23.186  0.00  0.00    +0.000 OA
ENDBRANCH   1  21
TORSDOF 3
ENDMDL
MODEL 2
REMARK VINA RESULT:      -7.7      0.065      1.078
REMARK  Name = 
REMARK  4 active torsions:
REMARK  status: ('A' for Active; 'I' for Inactive)
REMARK    1  A    between atoms: C_1  and  O_2
REMARK    2  A    between atoms: O_2  and  C_3
REMARK    3  A    between atoms: C_10  and  C_11
REMARK    4  A    between atoms: C_14  and  O_15
REMARK                            x       y       z     vdW  Elec       q    Type
REMARK                         _______ _______ _______ _____ _____    ______ ____
ROOT
ATOM      1  C   UNL     1      -0.043  10.126  21.980  0.00  0.00    +0.000 A 
ATOM      2  C   UNL     1      -0.006  10.986  20.879  0.00  0.00    +0.000 A 
ATOM      3  C   UNL     1       0.611  10.583  19.695  0.00  0.00    +0.000 A 
ATOM      4  C   UNL     1       1.192   9.316  19.616  0.00  0.00    +0.000 A 
ATOM      5  C   UNL     1       1.867   8.885  18.386  0.00  0.00    +0.000 A 
ATOM      6  O   UNL     1       1.911   9.583  17.383  0.00  0.00    +0.000 OA
ATOM      7  C   UNL     1       2.505   7.564  18.421  0.00  0.00    +0.000 A 
ATOM      8  C   UNL     1       2.403   6.803  19.521  0.00  0.00    +0.000 A 
ATOM      9  O   UNL     1       1.729   7.197  20.673  0.00  0.00    +0.000 OA
ATOM     10  C   UNL     1       1.160   8.449  20.702  0.00  0.00    +0.000 A 
ATOM     11  C   UNL     1       0.535   8.854  21.884  0.00  0.00    +0.000 A 
ENDROOT
BRANCH   8  12
ATOM     12  C   UNL     1       3.058   5.476  19.604  0.00  0.00    +0.000 A 
ATOM     13  C   UNL     1       2.450   4.424  20.310  0.00  0.00    +0.000 A 
ATOM     14  C   UNL     1       3.075   3.176  20.427  0.00  0.00    +0.000 A 
ATOM     15  C   UNL     1       4.313   2.971  19.832  0.00  0.00    +0.000 A 
ATOM     16  C   UNL     1       4.927   3.984  19.111  0.00  0.00    +0.000 A 
ATOM     17  C   UNL     1       4.299   5.227  18.989  0.00  0.00    +0.000 A 
BRANCH  15  18
ATOM     18  O   UNL     1       4.966   1.779  19.931  0.00  0.00    +0.000 OA
ATOM     19  H   UNL     1       4.493   1.217  20.566  0.00  0.00    +0.000 HD
ENDBRANCH  15  18
ENDBRANCH   8  12
BRANCH   1  21
ATOM     20  C   UNL     1      -1.655  11.378  23.197  0.00  0.00    +0.000 C 
ATOM     21  O   UNL     1      -0.608  10.414  23.194  0.00  0.00    +0.000 OA
ENDBRANCH   1  21
TORSDOF 3
ENDMDL
MODEL 3
REMARK VINA RESULT:      -7.4      1.213      1.257
REMARK  Name = 
REMARK  4 active torsions:
REMARK  status: ('A' for Active; 'I' for Inactive)
REMARK    1  A    between atoms: C_1  and  O_2
REMARK    2  A    between atoms: O_2  and  C_3
REMARK    3  A    between atoms: C_10  and  C_11
REMARK    4  A    between atoms: C_14  and  O_15
REMARK                            x       y       z     vdW  Elec       q    Type
REMARK                         _______ _______ _______ _____ _____    ______ ____
ROOT
ATOM      1  C   UNL     1       0.694   9.678  21.882  0.00  0.00    +0.000 A 
ATOM      2  C   UNL     1       0.797  10.632  20.866  0.00  0.00    +0.000 A 
ATOM      3  C   UNL     1       1.255  10.263  19.601  0.00  0.00    +0.000 A 
ATOM      4  C   UNL     1       1.611   8.937  19.355  0.00  0.00    +0.000 A 
ATOM      5  C   UNL     1       2.118   8.536  18.038  0.00  0.00    +0.000 A 
ATOM      6  O   UNL     1       2.208   9.319  17.103  0.00  0.00    +0.000 OA
ATOM      7  C   UNL     1       2.529   7.135  17.895  0.00  0.00    +0.000 A 
ATOM      8  C   UNL     1       2.378   6.288  18.925  0.00  0.00    +0.000 A 
ATOM      9  O   UNL     1       1.861   6.660  20.162  0.00  0.00    +0.000 OA
ATOM     10  C   UNL     1       1.511   7.975  20.356  0.00  0.00    +0.000 A 
ATOM     11  C   UNL     1       1.046   8.348  21.619  0.00  0.00    +0.000 A 
ENDROOT
BRANCH   8  12
ATOM     12  C   UNL     1       2.809   4.872  18.828  0.00  0.00    +0.000 A 
ATOM     13  C   UNL     1       3.770   4.358  19.716  0.00  0.00    +0.000 A 
ATOM     14  C   UNL     1       4.213   3.034  19.613  0.00  0.00    +0.000 A 
ATOM     15  C   UNL     1       3.693   2.212  18.621  0.00  0.00    +0.000 A 
ATOM     16  C   UNL     1       2.728   2.685  17.745  0.00  0.00    +0.000 A 
ATOM     17  C   UNL     1       2.282   4.006  17.854  0.00  0.00    +0.000 A 
BRANCH  15  18
ATOM     18  O   UNL     1       4.104   0.922  18.473  0.00  0.00    +0.000 OA
ATOM     19  H   UNL     1       3.618   0.365  19.103  0.00  0.00    +0.000 HD
ENDBRANCH  15  18
ENDBRANCH   8  12
BRANCH   1  21
ATOM     20  C   UNL     1      -0.999  10.548  23.303  0.00  0.00    +0.000 C 
ATOM     21  O   UNL     1       0.271   9.923  23.160  0.00  0.00    +0.000 OA
ENDBRANCH   1  21
TORSDOF 3
ENDMDL
MODEL 4
REMARK VINA RESULT:      -7.4      4.759      8.437
REMARK  Name = 
REMARK  4 active torsions:
REMARK  status: ('A' for Active; 'I' for Inactive)
REMARK    1  A    between atoms: C_1  and  O_2
REMARK    2  A    between atoms: O_2  and  C_3
REMARK    3  A    between atoms: C_10  and  C_11
REMARK    4  A    between atoms: C_14  and  O_15
REMARK                            x       y       z     vdW  Elec       q    Type
REMARK                         _______ _______ _______ _____ _____    ______ ____
ROOT
ATOM      1  C   UNL     1       6.610   3.866  12.700  0.00  0.00    +0.000 A 
ATOM      2  C   UNL     1       7.615   4.808  12.941  0.00  0.00    +0.000 A 
ATOM      3  C   UNL     1       7.667   5.480  14.163  0.00  0.00    +0.000 A 
ATOM      4  C   UNL     1       6.710   5.208  15.141  0.00  0.00    +0.000 A 
ATOM      5  C   UNL     1       6.736   5.924  16.423  0.00  0.00    +0.000 A 
ATOM      6  O   UNL     1       7.603   6.740  16.701  0.00  0.00    +0.000 OA
ATOM      7  C   UNL     1       5.651   5.618  17.362  0.00  0.00    +0.000 A 
ATOM      8  C   UNL     1       4.738   4.686  17.047  0.00  0.00    +0.000 A 
ATOM      9  O   UNL     1       4.738   3.980  15.848  0.00  0.00    +0.000 OA
ATOM     10  C   UNL     1       5.707   4.272  14.917  0.00  0.00    +0.000 A 
ATOM     11  C   UNL     1       5.662   3.596  13.695  0.00  0.00    +0.000 A 
ENDROOT
BRANCH   8  12
ATOM     12  C   UNL     1       3.612   4.372  17.958  0.00  0.00    +0.000 A 
ATOM     13  C   UNL     1       2.498   3.652  17.490  0.00  0.00    +0.000 A 
ATOM     14  C   UNL     1       1.411   3.380  18.330  0.00  0.00    +0.000 A 
ATOM     15  C   UNL     1       1.433   3.822  19.646  0.00  0.00    +0.000 A 
ATOM     16  C   UNL     1       2.528   4.515  20.141  0.00  0.00    +0.000 A 
ATOM     17  C   UNL     1       3.615   4.781  19.303  0.00  0.00    +0.000 A 
BRANCH  15  18
ATOM     18  O   UNL     1       0.392   3.594  20.495  0.00  0.00    +0.000 OA
ATOM     19  H   UNL     1       0.111   4.440  20.879  0.00  0.00    +0.000 HD
ENDBRANCH  15  18
ENDBRANCH   8  12
BRANCH   1  21
ATOM     20  C   UNL     1       5.436   2.158  11.538  0.00  0.00    +0.000 C 
ATOM     21  O   UNL     1       6.451   3.156  11.541  0.00  0.00    +0.000 OA
ENDBRANCH   1  21
TORSDOF 3
ENDMDL
MODEL 5
REMARK VINA RESULT:      -7.3      4.780      8.459
REMARK  Name = 
REMARK  4 active torsions:
REMARK  status: ('A' for Active; 'I' for Inactive)
REMARK    1  A    between atoms: C_1  and  O_2
REMARK    2  A    between atoms: O_2  and  C_3
REMARK    3  A    between atoms: C_10  and  C_11
REMARK    4  A    between atoms: C_14  and  O_15
REMARK                            x       y       z     vdW  Elec       q    Type
REMARK                         _______ _______ _______ _____ _____    ______ ____
ROOT
ATOM      1  C   UNL     1       6.516   3.871  12.619  0.00  0.00    +0.000 A 
ATOM      2  C   UNL     1       7.559   4.766  12.873  0.00  0.00    +0.000 A 
ATOM      3  C   UNL     1       7.637   5.421  14.102  0.00  0.00    +0.000 A 
ATOM      4  C   UNL     1       6.667   5.178  15.076  0.00  0.00    +0.000 A 
ATOM      5  C   UNL     1       6.721   5.876  16.366  0.00  0.00    +0.000 A 
ATOM      6  O   UNL     1       7.621   6.652  16.656  0.00  0.00    +0.000 OA
ATOM      7  C   UNL     1       5.622   5.606  17.300  0.00  0.00    +0.000 A 
ATOM      8  C   UNL     1       4.671   4.717  16.972  0.00  0.00    +0.000 A 
ATOM      9  O   UNL     1       4.643   4.026  15.765  0.00  0.00    +0.000 OA
ATOM     10  C   UNL     1       5.626   4.288  14.839  0.00  0.00    +0.000 A 
ATOM     11  C   UNL     1       5.555   3.630  13.608  0.00  0.00    +0.000 A 
ENDROOT
BRANCH   8  12
ATOM     12  C   UNL     1       3.530   4.440  17.877  0.00  0.00    +0.000 A 
ATOM     13  C   UNL     1       3.506   4.977  19.176  0.00  0.00    +0.000 A 
ATOM     14  C   UNL     1       2.452   4.694  20.054  0.00  0.00    +0.000 A 
ATOM     15  C   UNL     1       1.412   3.874  19.636  0.00  0.00    +0.000 A 
ATOM     16  C   UNL     1       1.398   3.348  18.353  0.00  0.00    +0.000 A 
ATOM     17  C   UNL     1       2.447   3.637  17.475  0.00  0.00    +0.000 A 
BRANCH  15  18
ATOM     18  O   UNL     1       0.374   3.559  20.460  0.00  0.00    +0.000 OA
ATOM     19  H   UNL     1      -0.193   2.910  20.013  0.00  0.00    +0.000 HD
ENDBRANCH  15  18
ENDBRANCH   8  12
BRANCH   1  21
ATOM     20  C   UNL     1       5.666   1.926  11.550  0.00  0.00    +0.000 C 
ATOM     21  O   UNL     1       6.329   3.182  11.451  0.00  0.00    +0.000 OA
ENDBRANCH   1  21
TORSDOF 3
ENDMDL
MODEL 6
REMARK VINA RESULT:      -7.3      4.584      8.080
REMARK  Name = 
REMARK  4 active torsions:
REMARK  status: ('A' for Active; 'I' for Inactive)
REMARK    1  A    between atoms: C_1  and  O_2
REMARK    2  A    between atoms: O_2  and  C_3
REMARK    3  A    between atoms: C_10  and  C_11
REMARK    4  A    between atoms: C_14  and  O_15
REMARK                            x       y       z     vdW  Elec       q    Type
REMARK                         _______ _______ _______ _____ _____    ______ ____
ROOT
ATOM      1  C   UNL     1       6.123   3.710  13.139  0.00  0.00    +0.000 A 
ATOM      2  C   UNL     1       7.082   4.726  13.155  0.00  0.00    +0.000 A 
ATOM      3  C   UNL     1       7.338   5.431  14.331  0.00  0.00    +0.000 A 
ATOM      4  C   UNL     1       6.629   5.118  15.491  0.00  0.00    +0.000 A 
ATOM      5  C   UNL     1       6.868   5.866  16.731  0.00  0.00    +0.000 A 
ATOM      6  O   UNL     1       7.710   6.749  16.813  0.00  0.00    +0.000 OA
ATOM      7  C   UNL     1       6.028   5.510  17.880  0.00  0.00    +0.000 A 
ATOM      8  C   UNL     1       5.142   4.508  17.772  0.00  0.00    +0.000 A 
ATOM      9  O   UNL     1       4.944   3.773  16.608  0.00  0.00    +0.000 OA
ATOM     10  C   UNL     1       5.673   4.108  15.491  0.00  0.00    +0.000 A 
ATOM     11  C   UNL     1       5.426   3.400  14.313  0.00  0.00    +0.000 A 
ENDROOT
BRANCH   8  12
ATOM     12  C   UNL     1       4.256   4.138  18.903  0.00  0.00    +0.000 A 
ATOM     13  C   UNL     1       3.376   5.084  19.456  0.00  0.00    +0.000 A 
ATOM     14  C   UNL     1       2.560   4.760  20.547  0.00  0.00    +0.000 A 
ATOM     15  C   UNL     1       2.616   3.483  21.090  0.00  0.00    +0.000 A 
ATOM     16  C   UNL     1       3.459   2.522  20.551  0.00  0.00    +0.000 A 
ATOM     17  C   UNL     1       4.268   2.846  19.457  0.00  0.00    +0.000 A 
BRANCH  15  18
ATOM     18  O   UNL     1       1.852   3.126  22.160  0.00  0.00    +0.000 OA
ATOM     19  H   UNL     1       1.985   2.180  22.336  0.00  0.00    +0.000 HD
ENDBRANCH  15  18
ENDBRANCH   8  12
BRANCH   1  21
ATOM     20  C   UNL     1       4.517   3.242  11.451  0.00  0.00    +0.000 C 
ATOM     21  O   UNL     1       5.779   2.960  12.046  0.00  0.00    +0.000 OA
ENDBRANCH   1  21
TORSDOF 3
ENDMDL
MODEL 7
REMARK VINA RESULT:      -7.2      2.380      7.375
REMARK  Name = 
REMARK  4 active torsions:
REMARK  status: ('A' for Active; 'I' for Inactive)
REMARK    1  A    between atoms: C_1  and  O_2
REMARK    2  A    between atoms: O_2  and  C_3
REMARK    3  A    between atoms: C_10  and  C_11
REMARK    4  A    between atoms: C_14  and  O_15
REMARK                            x       y       z     vdW  Elec       q    Type
REMARK                         _______ _______ _______ _____ _____    ______ ____
ROOT
ATOM      1  C   UNL     1       5.250   5.450  16.221  0.00  0.00    +0.000 A 
ATOM      2  C   UNL     1       5.119   4.137  16.682  0.00  0.00    +0.000 A 
ATOM      3  C   UNL     1       4.283   3.853  17.762  0.00  0.00    +0.000 A 
ATOM      4  C   UNL     1       3.578   4.887  18.380  0.00  0.00    +0.000 A 
ATOM      5  C   UNL     1       2.713   4.610  19.532  0.00  0.00    +0.000 A 
ATOM      6  O   UNL     1       2.539   3.480  19.966  0.00  0.00    +0.000 OA
ATOM      7  C   UNL     1       2.065   5.770  20.155  0.00  0.00    +0.000 A 
ATOM      8  C   UNL     1       2.240   6.993  19.631  0.00  0.00    +0.000 A 
ATOM      9  O   UNL     1       3.029   7.249  18.514  0.00  0.00    +0.000 OA
ATOM     10  C   UNL     1       3.696   6.198  17.929  0.00  0.00    +0.000 A 
ATOM     11  C   UNL     1       4.530   6.476  16.844  0.00  0.00    +0.000 A 
ENDROOT
BRANCH   8  12
ATOM     12  C   UNL     1       1.626   8.192  20.250  0.00  0.00    +0.000 A 
ATOM     13  C   UNL     1       1.244   9.286  19.456  0.00  0.00    +0.000 A 
ATOM     14  C   UNL     1       0.696  10.440  20.031  0.00  0.00    +0.000 A 
ATOM     15  C   UNL     1       0.522  10.503  21.408  0.00  0.00    +0.000 A 
ATOM     16  C   UNL     1       0.869   9.430  22.214  0.00  0.00    +0.000 A 
ATOM     17  C   UNL     1       1.410   8.277  21.637  0.00  0.00    +0.000 A 
BRANCH  15  18
ATOM     18  O   UNL     1       0.007  11.609  22.014  0.00  0.00    +0.000 OA
ATOM     19  H   UNL     1      -0.333  11.356  22.887  0.00  0.00    +0.000 HD
ENDBRANCH  15  18
ENDBRANCH   8  12
BRANCH   1  21
ATOM     20  C   UNL     1       6.705   4.822  14.450  0.00  0.00    +0.000 C 
ATOM     21  O   UNL     1       6.047   5.850  15.182  0.00  0.00    +0.000 OA
ENDBRANCH   1  21
TORSDOF 3
ENDMDL
MODEL 8
REMARK VINA RESULT:      -7.1      1.231      6.786
REMARK  Name = 
REMARK  4 active torsions:
REMARK  status: ('A' for Active; 'I' for Inactive)
REMARK    1  A    between atoms: C_1  and  O_2
REMARK    2  A    between atoms: O_2  and  C_3
REMARK    3  A    between atoms: C_10  and  C_11
REMARK    4  A    between atoms: C_14  and  O_15
REMARK                            x       y       z     vdW  Elec       q    Type
REMARK                         _______ _______ _______ _____ _____    ______ ____
ROOT
ATOM      1  C   UNL     1       2.920   4.186  19.834  0.00  0.00    +0.000 A 
ATOM      2  C   UNL     1       3.412   4.484  18.560  0.00  0.00    +0.000 A 
ATOM      3  C   UNL     1       3.237   5.758  18.021  0.00  0.00    +0.000 A 
ATOM      4  C   UNL     1       2.567   6.734  18.760  0.00  0.00    +0.000 A 
ATOM      5  C   UNL     1       2.352   8.073  18.199  0.00  0.00    +0.000 A 
ATOM      6  O   UNL     1       2.779   8.400  17.100  0.00  0.00    +0.000 OA
ATOM      7  C   UNL     1       1.580   9.010  19.023  0.00  0.00    +0.000 A 
ATOM      8  C   UNL     1       1.162   8.636  20.242  0.00  0.00    +0.000 A 
ATOM      9  O   UNL     1       1.400   7.380  20.789  0.00  0.00    +0.000 OA
ATOM     10  C   UNL     1       2.075   6.453  20.030  0.00  0.00    +0.000 A 
ATOM     11  C   UNL     1       2.259   5.177  20.568  0.00  0.00    +0.000 A 
ENDROOT
BRANCH   8  12
ATOM     12  C   UNL     1       0.354   9.545  21.091  0.00  0.00    +0.000 A 
ATOM     13  C   UNL     1       0.110   9.230  22.439  0.00  0.00    +0.000 A 
ATOM     14  C   UNL     1      -0.681  10.061  23.242  0.00  0.00    +0.000 A 
ATOM     15  C   UNL     1      -1.229  11.217  22.703  0.00  0.00    +0.000 A 
ATOM     16  C   UNL     1      -0.987  11.565  21.382  0.00  0.00    +0.000 A 
ATOM     17  C   UNL     1      -0.192  10.738  20.583  0.00  0.00    +0.000 A 
BRANCH  15  18
ATOM     18  O   UNL     1      -2.016  12.048  23.441  0.00  0.00    +0.000 OA
ATOM     19  H   UNL     1      -2.802  12.279  22.919  0.00  0.00    +0.000 HD
ENDBRANCH  15  18
ENDBRANCH   8  12
BRANCH   1  21
ATOM     20  C   UNL     1       2.269   2.807  21.656  0.00  0.00    +0.000 C 
ATOM     21  O   UNL     1       3.021   2.972  20.459  0.00  0.00    +0.000 OA
ENDBRANCH   1  21
TORSDOF 3
ENDMDL
MODEL 9
REMARK VINA RESULT:      -7.1      2.853      7.749
REMARK  Name = 
REMARK  4 active torsions:
REMARK  status: ('A' for Active; 'I' for Inactive)
REMARK    1  A    between atoms: C_1  and  O_2
REMARK    2  A    between atoms: O_2  and  C_3
REMARK    3  A    between atoms: C_10  and  C_11
REMARK    4  A    between atoms: C_14  and  O_15
REMARK                            x       y       z     vdW  Elec       q    Type
REMARK                         _______ _______ _______ _____ _____    ______ ____
ROOT
ATOM      1  C   UNL     1       5.903   5.214  15.540  0.00  0.00    +0.000 A 
ATOM      2  C   UNL     1       5.697   3.916  16.016  0.00  0.00    +0.000 A 
ATOM      3  C   UNL     1       4.757   3.678  17.018  0.00  0.00    +0.000 A 
ATOM      4  C   UNL     1       4.023   4.742  17.543  0.00  0.00    +0.000 A 
ATOM      5  C   UNL     1       3.046   4.513  18.615  0.00  0.00    +0.000 A 
ATOM      6  O   UNL     1       2.805   3.398  19.056  0.00  0.00    +0.000 OA
ATOM      7  C   UNL     1       2.372   5.702  19.148  0.00  0.00    +0.000 A 
ATOM      8  C   UNL     1       2.625   6.907  18.615  0.00  0.00    +0.000 A 
ATOM      9  O   UNL     1       3.521   7.118  17.572  0.00  0.00    +0.000 OA
ATOM     10  C   UNL     1       4.214   6.038  17.077  0.00  0.00    +0.000 A 
ATOM     11  C   UNL     1       5.153   6.272  16.069  0.00  0.00    +0.000 A 
ENDROOT
BRANCH   8  12
ATOM     12  C   UNL     1       1.985   8.134  19.147  0.00  0.00    +0.000 A 
ATOM     13  C   UNL     1       1.548   8.187  20.481  0.00  0.00    +0.000 A 
ATOM     14  C   UNL     1       0.909   9.327  20.987  0.00  0.00    +0.000 A 
ATOM     15  C   UNL     1       0.707  10.424  20.160  0.00  0.00    +0.000 A 
ATOM     16  C   UNL     1       1.147  10.408  18.845  0.00  0.00    +0.000 A 
ATOM     17  C   UNL     1       1.791   9.273  18.344  0.00  0.00    +0.000 A 
BRANCH  15  18
ATOM     18  O   UNL     1       0.077  11.548  20.603  0.00  0.00    +0.000 OA
ATOM     19  H   UNL     1       0.058  12.199  19.883  0.00  0.00    +0.000 HD
ENDBRANCH  15  18
ENDBRANCH   8  12
BRANCH   1  21
ATOM     20  C   UNL     1       7.014   4.635  13.521  0.00  0.00    +0.000 C 
ATOM     21  O   UNL     1       6.803   5.571  14.572  0.00  0.00    +0.000 OA
ENDBRANCH   1  21
TORSDOF 3
ENDMDL
