MODEL 1
REMARK VINA RESULT:      -8.3      0.000      0.000
REMARK  Name = 
REMARK  4 active torsions:
REMARK  status: ('A' for Active; 'I' for Inactive)
REMARK    1  A    between atoms: C_2  and  C_3
REMARK    2  A    between atoms: C_3  and  C_4
REMARK    3  A    between atoms: N_18  and  C_19
REMARK    4  A    between atoms: C_19  and  C_20
REMARK                            x       y       z     vdW  Elec       q    Type
REMARK                         _______ _______ _______ _____ _____    ______ ____
ROOT
ATOM      1  C   UNL     1       3.287   6.466  18.176  0.00  0.00    +0.000 C 
ATOM      2  C   UNL     1       4.669   6.291  17.511  0.00  0.00    +0.000 C 
ATOM      3  C   UNL     1       5.006   4.776  17.389  0.00  0.00    +0.000 C 
ATOM      4  C   UNL     1       6.170   4.380  18.317  0.00  0.00    +0.000 C 
ATOM      5  C   UNL     1       7.498   4.985  17.846  0.00  0.00    +0.000 C 
ATOM      6  N   UNL     1       7.808   4.630  16.459  0.00  0.00    +0.000 NA
ATOM      7  C   UNL     1       6.740   5.046  15.549  0.00  0.00    +0.000 C 
ATOM      8  C   UNL     1       5.394   4.427  15.935  0.00  0.00    +0.000 C 
ATOM      9  C   UNL     1       3.696   4.131  17.779  0.00  0.00    +0.000 A 
ATOM     10  C   UNL     1       3.400   2.772  17.818  0.00  0.00    +0.000 A 
ATOM     11  C   UNL     1       2.125   2.365  18.221  0.00  0.00    +0.000 A 
ATOM     12  C   UNL     1       1.159   3.312  18.575  0.00  0.00    +0.000 A 
ATOM     13  C   UNL     1       1.458   4.675  18.544  0.00  0.00    +0.000 A 
ATOM     14  C   UNL     1       2.730   5.073  18.147  0.00  0.00    +0.000 A 
ATOM     15  H   UNL     1       7.924   3.619  16.395  0.00  0.00    +0.000 HD
ENDROOT
BRANCH   1  16
ATOM     16  C   UNL     1       2.453   7.528  17.450  0.00  0.00    +0.000 C 
BRANCH  16  18
ATOM     17  O   UNL     1       1.832   8.266  19.664  0.00  0.00    +0.000 OA
ATOM     18  C   UNL     1       1.839   8.486  18.455  0.00  0.00    +0.000 C 
ATOM     19  N   UNL     1       1.280   9.618  17.905  0.00  0.00    +0.000 N 
ATOM     20  H   UNL     1       1.165   9.696  16.903  0.00  0.00    +0.000 HD
BRANCH  19  21
ATOM     21  C   UNL     1       0.651  10.589  18.768  0.00  0.00    +0.000 C 
BRANCH  21  22
ATOM     22  C   UNL     1      -0.825  10.377  18.843  0.00  0.00    +0.000 C 
ATOM     23  C   UNL     1      -1.826  11.361  18.284  0.00  0.00    +0.000 C 
ATOM     24  C   UNL     1      -1.574  10.064  17.571  0.00  0.00    +0.000 C 
ENDBRANCH  21  22
ENDBRANCH  19  21
ENDBRANCH  16  18
ENDBRANCH   1  16
TORSDOF 4
ENDMDL
MODEL 2
REMARK VINA RESULT:      -8.2      1.661      1.930
REMARK  Name = 
REMARK  4 active torsions:
REMARK  status: ('A' for Active; 'I' for Inactive)
REMARK    1  A    between atoms: C_2  and  C_3
REMARK    2  A    between atoms: C_3  and  C_4
REMARK    3  A    between atoms: N_18  and  C_19
REMARK    4  A    between atoms: C_19  and  C_20
REMARK                            x       y       z     vdW  Elec       q    Type
REMARK                         _______ _______ _______ _____ _____    ______ ____
ROOT
ATOM      1  C   UNL     1       3.165   6.227  18.545  0.00  0.00    +0.000 C 
ATOM      2  C   UNL     1       4.466   6.192  17.714  0.00  0.00    +0.000 C 
ATOM      3  C   UNL     1       4.846   4.717  17.395  0.00  0.00    +0.000 C 
ATOM      4  C   UNL     1       6.125   4.288  18.140  0.00  0.00    +0.000 C 
ATOM      5  C   UNL     1       7.364   5.006  17.591  0.00  0.00    +0.000 C 
ATOM      6  N   UNL     1       7.525   4.811  16.148  0.00  0.00    +0.000 NA
ATOM      7  C   UNL     1       6.343   5.260  15.413  0.00  0.00    +0.000 C 
ATOM      8  C   UNL     1       5.077   4.537  15.878  0.00  0.00    +0.000 C 
ATOM      9  C   UNL     1       3.618   3.968  17.858  0.00  0.00    +0.000 A 
ATOM     10  C   UNL     1       3.383   2.599  17.784  0.00  0.00    +0.000 A 
ATOM     11  C   UNL     1       2.180   2.087  18.282  0.00  0.00    +0.000 A 
ATOM     12  C   UNL     1       1.225   2.943  18.841  0.00  0.00    +0.000 A 
ATOM     13  C   UNL     1       1.464   4.316  18.921  0.00  0.00    +0.000 A 
ATOM     14  C   UNL     1       2.664   4.817  18.430  0.00  0.00    +0.000 A 
ATOM     15  H   UNL     1       7.673   3.818  15.964  0.00  0.00    +0.000 HD
ENDROOT
BRANCH   1  16
ATOM     16  C   UNL     1       2.211   7.313  18.034  0.00  0.00    +0.000 C 
BRANCH  16  18
ATOM     17  O   UNL     1       1.793   9.516  18.927  0.00  0.00    +0.000 OA
ATOM     18  C   UNL     1       1.919   8.313  19.138  0.00  0.00    +0.000 C 
ATOM     19  N   UNL     1       1.817   7.767  20.398  0.00  0.00    +0.000 N 
ATOM     20  H   UNL     1       2.076   6.803  20.559  0.00  0.00    +0.000 HD
BRANCH  19  21
ATOM     21  C   UNL     1       1.560   8.630  21.526  0.00  0.00    +0.000 C 
BRANCH  21  22
ATOM     22  C   UNL     1       0.095   8.809  21.755  0.00  0.00    +0.000 C 
ATOM     23  C   UNL     1      -0.464   9.604  22.910  0.00  0.00    +0.000 C 
ATOM     24  C   UNL     1      -0.510  10.172  21.521  0.00  0.00    +0.000 C 
ENDBRANCH  21  22
ENDBRANCH  19  21
ENDBRANCH  16  18
ENDBRANCH   1  16
TORSDOF 4
ENDMDL
MODEL 3
REMARK VINA RESULT:      -8.0      2.004      2.262
REMARK  Name = 
REMARK  4 active torsions:
REMARK  status: ('A' for Active; 'I' for Inactive)
REMARK    1  A    between atoms: C_2  and  C_3
REMARK    2  A    between atoms: C_3  and  C_4
REMARK    3  A    between atoms: N_18  and  C_19
REMARK    4  A    between atoms: C_19  and  C_20
REMARK                            x       y       z     vdW  Elec       q    Type
REMARK                         _______ _______ _______ _____ _____    ______ ____
ROOT
ATOM      1  C   UNL     1       3.158   6.648  18.905  0.00  0.00    +0.000 C 
ATOM      2  C   UNL     1       4.382   6.278  18.038  0.00  0.00    +0.000 C 
ATOM      3  C   UNL     1       4.829   4.821  18.353  0.00  0.00    +0.000 C 
ATOM      4  C   UNL     1       6.193   4.790  19.067  0.00  0.00    +0.000 C 
ATOM      5  C   UNL     1       7.329   5.219  18.130  0.00  0.00    +0.000 C 
ATOM      6  N   UNL     1       7.375   4.413  16.908  0.00  0.00    +0.000 NA
ATOM      7  C   UNL     1       6.106   4.470  16.183  0.00  0.00    +0.000 C 
ATOM      8  C   UNL     1       4.936   3.998  17.050  0.00  0.00    +0.000 C 
ATOM      9  C   UNL     1       3.697   4.326  19.225  0.00  0.00    +0.000 A 
ATOM     10  C   UNL     1       3.548   3.060  19.779  0.00  0.00    +0.000 A 
ATOM     11  C   UNL     1       2.430   2.794  20.577  0.00  0.00    +0.000 A 
ATOM     12  C   UNL     1       1.473   3.787  20.807  0.00  0.00    +0.000 A 
ATOM     13  C   UNL     1       1.627   5.061  20.257  0.00  0.00    +0.000 A 
ATOM     14  C   UNL     1       2.744   5.320  19.469  0.00  0.00    +0.000 A 
ATOM     15  H   UNL     1       7.571   3.444  17.159  0.00  0.00    +0.000 HD
ENDROOT
BRANCH   1  16
ATOM     16  C   UNL     1       2.094   7.378  18.080  0.00  0.00    +0.000 C 
BRANCH  16  18
ATOM     17  O   UNL     1       1.708   9.759  18.184  0.00  0.00    +0.000 OA
ATOM     18  C   UNL     1       1.702   8.676  18.764  0.00  0.00    +0.000 C 
ATOM     19  N   UNL     1       1.351   8.546  20.089  0.00  0.00    +0.000 N 
ATOM     20  H   UNL     1       1.504   7.672  20.574  0.00  0.00    +0.000 HD
BRANCH  19  21
ATOM     21  C   UNL     1       0.980   9.719  20.842  0.00  0.00    +0.000 C 
BRANCH  21  22
ATOM     22  C   UNL     1      -0.131   9.427  21.797  0.00  0.00    +0.000 C 
ATOM     23  C   UNL     1       0.036   9.499  23.296  0.00  0.00    +0.000 C 
ATOM     24  C   UNL     1      -0.731  10.571  22.577  0.00  0.00    +0.000 C 
ENDBRANCH  21  22
ENDBRANCH  19  21
ENDBRANCH  16  18
ENDBRANCH   1  16
TORSDOF 4
ENDMDL
MODEL 4
REMARK VINA RESULT:      -7.9      1.024      1.471
REMARK  Name = 
REMARK  4 active torsions:
REMARK  status: ('A' for Active; 'I' for Inactive)
REMARK    1  A    between atoms: C_2  and  C_3
REMARK    2  A    between atoms: C_3  and  C_4
REMARK    3  A    between atoms: N_18  and  C_19
REMARK    4  A    between atoms: C_19  and  C_20
REMARK                            x       y       z     vdW  Elec       q    Type
REMARK                         _______ _______ _______ _____ _____    ______ ____
ROOT
ATOM      1  C   UNL     1       3.343   6.367  18.245  0.00  0.00    +0.000 C 
ATOM      2  C   UNL     1       4.696   6.222  17.515  0.00  0.00    +0.000 C 
ATOM      3  C   UNL     1       5.001   4.716  17.268  0.00  0.00    +0.000 C 
ATOM      4  C   UNL     1       6.192   4.234  18.118  0.00  0.00    +0.000 C 
ATOM      5  C   UNL     1       7.512   4.854  17.642  0.00  0.00    +0.000 C 
ATOM      6  N   UNL     1       7.763   4.599  16.222  0.00  0.00    +0.000 NA
ATOM      7  C   UNL     1       6.669   5.097  15.388  0.00  0.00    +0.000 C 
ATOM      8  C   UNL     1       5.328   4.471  15.778  0.00  0.00    +0.000 C 
ATOM      9  C   UNL     1       3.696   4.062  17.660  0.00  0.00    +0.000 A 
ATOM     10  C   UNL     1       3.378   2.709  17.609  0.00  0.00    +0.000 A 
ATOM     11  C   UNL     1       2.112   2.291  18.031  0.00  0.00    +0.000 A 
ATOM     12  C   UNL     1       1.177   3.223  18.492  0.00  0.00    +0.000 A 
ATOM     13  C   UNL     1       1.498   4.580  18.550  0.00  0.00    +0.000 A 
ATOM     14  C   UNL     1       2.761   4.989  18.134  0.00  0.00    +0.000 A 
ATOM     15  H   UNL     1       7.859   3.594  16.078  0.00  0.00    +0.000 HD
ENDROOT
BRANCH   1  16
ATOM     16  C   UNL     1       2.501   7.493  17.634  0.00  0.00    +0.000 C 
BRANCH  16  18
ATOM     17  O   UNL     1       1.887   8.032  19.906  0.00  0.00    +0.000 OA
ATOM     18  C   UNL     1       1.945   8.384  18.730  0.00  0.00    +0.000 C 
ATOM     19  N   UNL     1       1.501   9.615  18.303  0.00  0.00    +0.000 N 
ATOM     20  H   UNL     1       1.421   9.813  17.314  0.00  0.00    +0.000 HD
BRANCH  19  21
ATOM     21  C   UNL     1       0.936  10.536  19.258  0.00  0.00    +0.000 C 
BRANCH  21  22
ATOM     22  C   UNL     1       1.097  11.952  18.814  0.00  0.00    +0.000 C 
ATOM     23  C   UNL     1       1.984  12.942  19.531  0.00  0.00    +0.000 C 
ATOM     24  C   UNL     1       2.416  12.372  18.211  0.00  0.00    +0.000 C 
ENDBRANCH  21  22
ENDBRANCH  19  21
ENDBRANCH  16  18
ENDBRANCH   1  16
TORSDOF 4
ENDMDL
MODEL 5
REMARK VINA RESULT:      -7.9      1.064      1.083
REMARK  Name = 
REMARK  4 active torsions:
REMARK  status: ('A' for Active; 'I' for Inactive)
REMARK    1  A    between atoms: C_2  and  C_3
REMARK    2  A    between atoms: C_3  and  C_4
REMARK    3  A    between atoms: N_18  and  C_19
REMARK    4  A    between atoms: C_19  and  C_20
REMARK                            x       y       z     vdW  Elec       q    Type
REMARK                         _______ _______ _______ _____ _____    ______ ____
ROOT
ATOM      1  C   UNL     1       3.277   6.730  18.713  0.00  0.00    +0.000 C 
ATOM      2  C   UNL     1       4.492   6.315  17.855  0.00  0.00    +0.000 C 
ATOM      3  C   UNL     1       4.909   4.857  18.204  0.00  0.00    +0.000 C 
ATOM      4  C   UNL     1       6.273   4.816  18.919  0.00  0.00    +0.000 C 
ATOM      5  C   UNL     1       7.417   5.199  17.972  0.00  0.00    +0.000 C 
ATOM      6  N   UNL     1       7.445   4.363  16.770  0.00  0.00    +0.000 NA
ATOM      7  C   UNL     1       6.177   4.427  16.043  0.00  0.00    +0.000 C 
ATOM      8  C   UNL     1       4.999   4.001  16.922  0.00  0.00    +0.000 C 
ATOM      9  C   UNL     1       3.769   4.407  19.089  0.00  0.00    +0.000 A 
ATOM     10  C   UNL     1       3.594   3.157  19.674  0.00  0.00    +0.000 A 
ATOM     11  C   UNL     1       2.471   2.933  20.478  0.00  0.00    +0.000 A 
ATOM     12  C   UNL     1       1.535   3.952  20.684  0.00  0.00    +0.000 A 
ATOM     13  C   UNL     1       1.715   5.208  20.103  0.00  0.00    +0.000 A 
ATOM     14  C   UNL     1       2.836   5.426  19.310  0.00  0.00    +0.000 A 
ATOM     15  H   UNL     1       7.622   3.396  17.043  0.00  0.00    +0.000 HD
ENDROOT
BRANCH   1  16
ATOM     16  C   UNL     1       2.227   7.462  17.871  0.00  0.00    +0.000 C 
BRANCH  16  18
ATOM     17  O   UNL     1       1.664   8.682  19.877  0.00  0.00    +0.000 OA
ATOM     18  C   UNL     1       1.659   8.636  18.649  0.00  0.00    +0.000 C 
ATOM     19  N   UNL     1       1.128   9.640  17.871  0.00  0.00    +0.000 N 
ATOM     20  H   UNL     1       1.001   9.503  16.877  0.00  0.00    +0.000 HD
BRANCH  19  21
ATOM     21  C   UNL     1       0.543  10.796  18.507  0.00  0.00    +0.000 C 
BRANCH  21  22
ATOM     22  C   UNL     1      -0.942  10.672  18.606  0.00  0.00    +0.000 C 
ATOM     23  C   UNL     1      -1.892  11.537  17.812  0.00  0.00    +0.000 C 
ATOM     24  C   UNL     1      -1.696  10.098  17.431  0.00  0.00    +0.000 C 
ENDBRANCH  21  22
ENDBRANCH  19  21
ENDBRANCH  16  18
ENDBRANCH   1  16
TORSDOF 4
ENDMDL
MODEL 6
REMARK VINA RESULT:      -7.8      1.470      1.535
REMARK  Name = 
REMARK  4 active torsions:
REMARK  status: ('A' for Active; 'I' for Inactive)
REMARK    1  A    between atoms: C_2  and  C_3
REMARK    2  A    between atoms: C_3  and  C_4
REMARK    3  A    between atoms: N_18  and  C_19
REMARK    4  A    between atoms: C_19  and  C_20
REMARK                            x       y       z     vdW  Elec       q    Type
REMARK                         _______ _______ _______ _____ _____    ______ ____
ROOT
ATOM      1  C   UNL     1       3.257   6.804  18.681  0.00  0.00    +0.000 C 
ATOM      2  C   UNL     1       4.498   6.364  17.875  0.00  0.00    +0.000 C 
ATOM      3  C   UNL     1       4.972   4.963  18.362  0.00  0.00    +0.000 C 
ATOM      4  C   UNL     1       6.328   5.047  19.087  0.00  0.00    +0.000 C 
ATOM      5  C   UNL     1       7.466   5.389  18.117  0.00  0.00    +0.000 C 
ATOM      6  N   UNL     1       7.543   4.447  16.999  0.00  0.00    +0.000 NA
ATOM      7  C   UNL     1       6.282   4.390  16.260  0.00  0.00    +0.000 C 
ATOM      8  C   UNL     1       5.112   3.997  17.165  0.00  0.00    +0.000 C 
ATOM      9  C   UNL     1       3.841   4.549  19.275  0.00  0.00    +0.000 A 
ATOM     10  C   UNL     1       3.712   3.353  19.973  0.00  0.00    +0.000 A 
ATOM     11  C   UNL     1       2.590   3.157  20.785  0.00  0.00    +0.000 A 
ATOM     12  C   UNL     1       1.610   4.149  20.889  0.00  0.00    +0.000 A 
ATOM     13  C   UNL     1       1.744   5.353  20.195  0.00  0.00    +0.000 A 
ATOM     14  C   UNL     1       2.864   5.543  19.393  0.00  0.00    +0.000 A 
ATOM     15  H   UNL     1       7.757   3.518  17.363  0.00  0.00    +0.000 HD
ENDROOT
BRANCH   1  16
ATOM     16  C   UNL     1       2.187   7.410  17.766  0.00  0.00    +0.000 C 
BRANCH  16  18
ATOM     17  O   UNL     1       2.066   9.810  17.538  0.00  0.00    +0.000 OA
ATOM     18  C   UNL     1       1.843   8.816  18.224  0.00  0.00    +0.000 C 
ATOM     19  N   UNL     1       1.271   8.891  19.474  0.00  0.00    +0.000 N 
ATOM     20  H   UNL     1       1.243   8.076  20.072  0.00  0.00    +0.000 HD
BRANCH  19  21
ATOM     21  C   UNL     1       0.921  10.181  20.017  0.00  0.00    +0.000 C 
BRANCH  21  22
ATOM     22  C   UNL     1      -0.555  10.405  19.986  0.00  0.00    +0.000 C 
ATOM     23  C   UNL     1      -1.178  11.780  20.018  0.00  0.00    +0.000 C 
ATOM     24  C   UNL     1      -1.168  10.994  18.739  0.00  0.00    +0.000 C 
ENDBRANCH  21  22
ENDBRANCH  19  21
ENDBRANCH  16  18
ENDBRANCH   1  16
TORSDOF 4
ENDMDL
MODEL 7
REMARK VINA RESULT:      -7.8      3.108      6.602
REMARK  Name = 
REMARK  4 active torsions:
REMARK  status: ('A' for Active; 'I' for Inactive)
REMARK    1  A    between atoms: C_2  and  C_3
REMARK    2  A    between atoms: C_3  and  C_4
REMARK    3  A    between atoms: N_18  and  C_19
REMARK    4  A    between atoms: C_19  and  C_20
REMARK                            x       y       z     vdW  Elec       q    Type
REMARK                         _______ _______ _______ _____ _____    ______ ____
ROOT
ATOM      1  C   UNL     1       4.897   6.186  17.016  0.00  0.00    +0.000 C 
ATOM      2  C   UNL     1       4.554   4.705  17.290  0.00  0.00    +0.000 C 
ATOM      3  C   UNL     1       3.371   4.618  18.298  0.00  0.00    +0.000 C 
ATOM      4  C   UNL     1       3.825   4.047  19.655  0.00  0.00    +0.000 C 
ATOM      5  C   UNL     1       4.193   2.562  19.548  0.00  0.00    +0.000 C 
ATOM      6  N   UNL     1       3.099   1.759  18.997  0.00  0.00    +0.000 NA
ATOM      7  C   UNL     1       2.685   2.248  17.682  0.00  0.00    +0.000 C 
ATOM      8  C   UNL     1       2.251   3.715  17.735  0.00  0.00    +0.000 C 
ATOM      9  C   UNL     1       2.925   6.059  18.385  0.00  0.00    +0.000 A 
ATOM     10  C   UNL     1       1.867   6.575  19.126  0.00  0.00    +0.000 A 
ATOM     11  C   UNL     1       1.617   7.950  19.089  0.00  0.00    +0.000 A 
ATOM     12  C   UNL     1       2.417   8.794  18.313  0.00  0.00    +0.000 A 
ATOM     13  C   UNL     1       3.484   8.278  17.575  0.00  0.00    +0.000 A 
ATOM     14  C   UNL     1       3.731   6.910  17.621  0.00  0.00    +0.000 A 
ATOM     15  H   UNL     1       2.303   1.804  19.634  0.00  0.00    +0.000 HD
ENDROOT
BRANCH   1  16
ATOM     16  C   UNL     1       5.128   6.434  15.521  0.00  0.00    +0.000 C 
BRANCH  16  18
ATOM     17  O   UNL     1       7.289   5.399  15.222  0.00  0.00    +0.000 OA
ATOM     18  C   UNL     1       6.088   5.399  14.962  0.00  0.00    +0.000 C 
ATOM     19  N   UNL     1       5.510   4.465  14.132  0.00  0.00    +0.000 N 
ATOM     20  H   UNL     1       4.555   4.582  13.818  0.00  0.00    +0.000 HD
BRANCH  19  21
ATOM     21  C   UNL     1       6.333   3.445  13.530  0.00  0.00    +0.000 C 
BRANCH  21  22
ATOM     22  C   UNL     1       6.055   3.311  12.068  0.00  0.00    +0.000 C 
ATOM     23  C   UNL     1       5.583   2.023  11.437  0.00  0.00    +0.000 C 
ATOM     24  C   UNL     1       4.622   3.162  11.618  0.00  0.00    +0.000 C 
ENDBRANCH  21  22
ENDBRANCH  19  21
ENDBRANCH  16  18
ENDBRANCH   1  16
TORSDOF 4
ENDMDL
MODEL 8
REMARK VINA RESULT:      -7.7      1.994      3.740
REMARK  Name = 
REMARK  4 active torsions:
REMARK  status: ('A' for Active; 'I' for Inactive)
REMARK    1  A    between atoms: C_2  and  C_3
REMARK    2  A    between atoms: C_3  and  C_4
REMARK    3  A    between atoms: N_18  and  C_19
REMARK    4  A    between atoms: C_19  and  C_20
REMARK                            x       y       z     vdW  Elec       q    Type
REMARK                         _______ _______ _______ _____ _____    ______ ____
ROOT
ATOM      1  C   UNL     1       2.445   6.494  18.120  0.00  0.00    +0.000 C 
ATOM      2  C   UNL     1       2.024   5.218  18.881  0.00  0.00    +0.000 C 
ATOM      3  C   UNL     1       2.919   4.023  18.439  0.00  0.00    +0.000 C 
ATOM      4  C   UNL     1       2.115   2.980  17.640  0.00  0.00    +0.000 C 
ATOM      5  C   UNL     1       1.107   2.242  18.530  0.00  0.00    +0.000 C 
ATOM      6  N   UNL     1       1.746   1.615  19.688  0.00  0.00    +0.000 NA
ATOM      7  C   UNL     1       2.472   2.595  20.495  0.00  0.00    +0.000 C 
ATOM      8  C   UNL     1       3.536   3.329  19.673  0.00  0.00    +0.000 C 
ATOM      9  C   UNL     1       3.977   4.712  17.609  0.00  0.00    +0.000 A 
ATOM     10  C   UNL     1       5.072   4.130  16.980  0.00  0.00    +0.000 A 
ATOM     11  C   UNL     1       5.940   4.937  16.238  0.00  0.00    +0.000 A 
ATOM     12  C   UNL     1       5.713   6.314  16.137  0.00  0.00    +0.000 A 
ATOM     13  C   UNL     1       4.610   6.897  16.763  0.00  0.00    +0.000 A 
ATOM     14  C   UNL     1       3.747   6.088  17.494  0.00  0.00    +0.000 A 
ATOM     15  H   UNL     1       2.400   0.904  19.360  0.00  0.00    +0.000 HD
ENDROOT
BRANCH   1  16
ATOM     16  C   UNL     1       2.511   7.704  19.059  0.00  0.00    +0.000 C 
BRANCH  16  18
ATOM     17  O   UNL     1       2.009   9.258  17.281  0.00  0.00    +0.000 OA
ATOM     18  C   UNL     1       1.798   8.889  18.434  0.00  0.00    +0.000 C 
ATOM     19  N   UNL     1       0.904   9.527  19.264  0.00  0.00    +0.000 N 
ATOM     20  H   UNL     1       0.867   9.296  20.248  0.00  0.00    +0.000 HD
BRANCH  19  21
ATOM     21  C   UNL     1       0.184  10.679  18.778  0.00  0.00    +0.000 C 
BRANCH  21  22
ATOM     22  C   UNL     1      -1.265  10.375  18.582  0.00  0.00    +0.000 C 
ATOM     23  C   UNL     1      -2.188  11.260  17.779  0.00  0.00    +0.000 C 
ATOM     24  C   UNL     1      -1.733   9.947  17.212  0.00  0.00    +0.000 C 
ENDBRANCH  21  22
ENDBRANCH  19  21
ENDBRANCH  16  18
ENDBRANCH   1  16
TORSDOF 4
ENDMDL
MODEL 9
REMARK VINA RESULT:      -7.7      1.051      1.197
REMARK  Name = 
REMARK  4 active torsions:
REMARK  status: ('A' for Active; 'I' for Inactive)
REMARK    1  A    between atoms: C_2  and  C_3
REMARK    2  A    between atoms: C_3  and  C_4
REMARK    3  A    between atoms: N_18  and  C_19
REMARK    4  A    between atoms: C_19  and  C_20
REMARK                            x       y       z     vdW  Elec       q    Type
REMARK                         _______ _______ _______ _____ _____    ______ ____
ROOT
ATOM      1  C   UNL     1       3.273   6.398  18.217  0.00  0.00    +0.000 C 
ATOM      2  C   UNL     1       4.628   6.193  17.504  0.00  0.00    +0.000 C 
ATOM      3  C   UNL     1       5.038   4.693  17.575  0.00  0.00    +0.000 C 
ATOM      4  C   UNL     1       6.267   4.486  18.481  0.00  0.00    +0.000 C 
ATOM      5  C   UNL     1       7.535   5.078  17.854  0.00  0.00    +0.000 C 
ATOM      6  N   UNL     1       7.792   4.543  16.515  0.00  0.00    +0.000 NA
ATOM      7  C   UNL     1       6.659   4.776  15.619  0.00  0.00    +0.000 C 
ATOM      8  C   UNL     1       5.369   4.158  16.165  0.00  0.00    +0.000 C 
ATOM      9  C   UNL     1       3.786   4.051  18.128  0.00  0.00    +0.000 A 
ATOM     10  C   UNL     1       3.565   2.700  18.373  0.00  0.00    +0.000 A 
ATOM     11  C   UNL     1       2.335   2.297  18.903  0.00  0.00    +0.000 A 
ATOM     12  C   UNL     1       1.339   3.240  19.177  0.00  0.00    +0.000 A 
ATOM     13  C   UNL     1       1.564   4.597  18.938  0.00  0.00    +0.000 A 
ATOM     14  C   UNL     1       2.791   4.992  18.416  0.00  0.00    +0.000 A 
ATOM     15  H   UNL     1       7.959   3.539  16.586  0.00  0.00    +0.000 HD
ENDROOT
BRANCH   1  16
ATOM     16  C   UNL     1       2.348   7.307  17.400  0.00  0.00    +0.000 C 
BRANCH  16  18
ATOM     17  O   UNL     1       2.257   9.701  17.696  0.00  0.00    +0.000 OA
ATOM     18  C   UNL     1       2.059   8.584  18.168  0.00  0.00    +0.000 C 
ATOM     19  N   UNL     1       1.566   8.393  19.439  0.00  0.00    +0.000 N 
ATOM     20  H   UNL     1       1.560   7.469  19.851  0.00  0.00    +0.000 HD
BRANCH  19  21
ATOM     21  C   UNL     1       1.274   9.539  20.266  0.00  0.00    +0.000 C 
BRANCH  21  22
ATOM     22  C   UNL     1      -0.198   9.757  20.396  0.00  0.00    +0.000 C 
ATOM     23  C   UNL     1      -0.794  11.051  20.898  0.00  0.00    +0.000 C 
ATOM     24  C   UNL     1      -0.872  10.709  19.438  0.00  0.00    +0.000 C 
ENDBRANCH  21  22
ENDBRANCH  19  21
ENDBRANCH  16  18
ENDBRANCH   1  16
TORSDOF 4
ENDMDL
