MODEL 1
REMARK VINA RESULT:      -8.2      0.000      0.000
REMARK  Name = 
REMARK  7 active torsions:
REMARK  status: ('A' for Active; 'I' for Inactive)
REMARK    1  A    between atoms: C_1  and  C_2
REMARK    2  A    between atoms: C_2  and  C_3
REMARK    3  A    between atoms: C_3  and  O_4
REMARK    4  A    between atoms: O_4  and  C_5
REMARK    5  A    between atoms: C_8  and  C_9
REMARK    6  A    between atoms: C_16  and  C_17
REMARK    7  A    between atoms: C_24  and  C_25
REMARK                            x       y       z     vdW  Elec       q    Type
REMARK                         _______ _______ _______ _____ _____    ______ ____
ROOT
ATOM      1  C   UNL     1       3.049   6.875  18.229  0.00  0.00    +0.000 C 
ATOM      2  O   UNL     1       2.878   6.383  19.344  0.00  0.00    +0.000 OA
ATOM      3  N   UNL     1       2.487   8.055  17.794  0.00  0.00    +0.000 N 
ATOM      4  C   UNL     1       1.716   8.840  18.616  0.00  0.00    +0.000 A 
ATOM      5  N   UNL     1       0.912   9.794  18.060  0.00  0.00    +0.000 NA
ATOM      6  C   UNL     1       0.242  10.273  19.089  0.00  0.00    +0.000 A 
ATOM      7  N   UNL     1      -0.778  11.191  19.123  0.00  0.00    +0.000 NA
ATOM      8  C   UNL     1      -1.276  11.475  20.295  0.00  0.00    +0.000 A 
ATOM      9  C   UNL     1      -0.811  10.871  21.591  0.00  0.00    +0.000 A 
ATOM     10  C   UNL     1       0.187   9.975  21.513  0.00  0.00    +0.000 A 
ATOM     11  C   UNL     1       0.755   9.290  22.717  0.00  0.00    +0.000 C 
ATOM     12  N   UNL     1       0.708   9.663  20.257  0.00  0.00    +0.000 N 
ATOM     13  N   UNL     1       1.662   8.772  19.942  0.00  0.00    +0.000 NA
ATOM     14  H   UNL     1       2.470   8.324  16.824  0.00  0.00    +0.000 HD
ENDROOT
BRANCH   1  18
ATOM     15  C   UNL     1       5.438   4.363  15.648  0.00  0.00    +0.000 A 
ATOM     16  C   UNL     1       4.570   3.843  16.604  0.00  0.00    +0.000 A 
ATOM     17  C   UNL     1       3.809   4.693  17.401  0.00  0.00    +0.000 A 
ATOM     18  C   UNL     1       3.890   6.087  17.273  0.00  0.00    +0.000 A 
ATOM     19  C   UNL     1       4.758   6.617  16.311  0.00  0.00    +0.000 A 
ATOM     20  C   UNL     1       5.525   5.752  15.503  0.00  0.00    +0.000 A 
BRANCH  15  21
ATOM     21  O   UNL     1       6.237   3.601  14.825  0.00  0.00    +0.000 OA
BRANCH  21  22
ATOM     22  C   UNL     1       6.399   4.133  13.506  0.00  0.00    +0.000 C 
BRANCH  22  24
ATOM     23  C   UNL     1       4.697   3.463  11.804  0.00  0.00    +0.000 C 
ATOM     24  C   UNL     1       6.037   3.108  12.437  0.00  0.00    +0.000 C 
ENDBRANCH  22  24
ENDBRANCH  21  22
ENDBRANCH  15  21
ENDBRANCH   1  18
BRANCH   8  25
ATOM     25  C   UNL     1      -2.424  12.428  20.405  0.00  0.00    +0.000 A 
ATOM     26  C   UNL     1      -3.579  12.185  19.651  0.00  0.00    +0.000 A 
ATOM     27  C   UNL     1      -4.692  13.021  19.780  0.00  0.00    +0.000 A 
ATOM     28  C   UNL     1      -4.656  14.104  20.655  0.00  0.00    +0.000 A 
ATOM     29  C   UNL     1      -3.503  14.367  21.392  0.00  0.00    +0.000 A 
ATOM     30  C   UNL     1      -2.386  13.538  21.261  0.00  0.00    +0.000 A 
ENDBRANCH   8  25
TORSDOF 5
ENDMDL
MODEL 2
REMARK VINA RESULT:      -8.2      1.878      2.986
REMARK  Name = 
REMARK  7 active torsions:
REMARK  status: ('A' for Active; 'I' for Inactive)
REMARK    1  A    between atoms: C_1  and  C_2
REMARK    2  A    between atoms: C_2  and  C_3
REMARK    3  A    between atoms: C_3  and  O_4
REMARK    4  A    between atoms: O_4  and  C_5
REMARK    5  A    between atoms: C_8  and  C_9
REMARK    6  A    between atoms: C_16  and  C_17
REMARK    7  A    between atoms: C_24  and  C_25
REMARK                            x       y       z     vdW  Elec       q    Type
REMARK                         _______ _______ _______ _____ _____    ______ ____
ROOT
ATOM      1  C   UNL     1       2.375   8.149  18.196  0.00  0.00    +0.000 C 
ATOM      2  O   UNL     1       2.180   8.994  17.324  0.00  0.00    +0.000 OA
ATOM      3  N   UNL     1       1.811   8.170  19.453  0.00  0.00    +0.000 N 
ATOM      4  C   UNL     1       0.904   9.130  19.828  0.00  0.00    +0.000 A 
ATOM      5  N   UNL     1       0.643   9.316  21.155  0.00  0.00    +0.000 NA
ATOM      6  C   UNL     1      -0.160  10.361  21.171  0.00  0.00    +0.000 A 
ATOM      7  N   UNL     1      -0.674  11.058  22.236  0.00  0.00    +0.000 NA
ATOM      8  C   UNL     1      -1.442  12.076  21.957  0.00  0.00    +0.000 A 
ATOM      9  C   UNL     1      -1.797  12.525  20.567  0.00  0.00    +0.000 A 
ATOM     10  C   UNL     1      -1.271  11.816  19.554  0.00  0.00    +0.000 A 
ATOM     11  C   UNL     1      -1.533  12.143  18.116  0.00  0.00    +0.000 C 
ATOM     12  N   UNL     1      -0.438  10.737  19.854  0.00  0.00    +0.000 N 
ATOM     13  N   UNL     1       0.226   9.931  19.011  0.00  0.00    +0.000 NA
ATOM     14  H   UNL     1       2.145   7.595  20.209  0.00  0.00    +0.000 HD
ENDROOT
BRANCH   1  18
ATOM     15  C   UNL     1       5.289   5.177  17.030  0.00  0.00    +0.000 A 
ATOM     16  C   UNL     1       5.424   6.525  16.708  0.00  0.00    +0.000 A 
ATOM     17  C   UNL     1       4.467   7.447  17.121  0.00  0.00    +0.000 A 
ATOM     18  C   UNL     1       3.344   7.056  17.864  0.00  0.00    +0.000 A 
ATOM     19  C   UNL     1       3.203   5.703  18.195  0.00  0.00    +0.000 A 
ATOM     20  C   UNL     1       4.177   4.772  17.777  0.00  0.00    +0.000 A 
BRANCH  15  21
ATOM     21  O   UNL     1       6.178   4.194  16.656  0.00  0.00    +0.000 OA
BRANCH  21  22
ATOM     22  C   UNL     1       5.847   3.539  15.426  0.00  0.00    +0.000 C 
BRANCH  22  24
ATOM     23  C   UNL     1       5.976   3.667  12.935  0.00  0.00    +0.000 C 
ATOM     24  C   UNL     1       6.585   4.155  14.244  0.00  0.00    +0.000 C 
ENDBRANCH  22  24
ENDBRANCH  21  22
ENDBRANCH  15  21
ENDBRANCH   1  18
BRANCH   8  25
ATOM     25  C   UNL     1      -1.996  12.915  23.065  0.00  0.00    +0.000 A 
ATOM     26  C   UNL     1      -1.239  13.992  23.541  0.00  0.00    +0.000 A 
ATOM     27  C   UNL     1      -1.756  14.834  24.530  0.00  0.00    +0.000 A 
ATOM     28  C   UNL     1      -3.027  14.600  25.053  0.00  0.00    +0.000 A 
ATOM     29  C   UNL     1      -3.778  13.517  24.602  0.00  0.00    +0.000 A 
ATOM     30  C   UNL     1      -3.262  12.670  23.618  0.00  0.00    +0.000 A 
ENDBRANCH   8  25
TORSDOF 5
ENDMDL
MODEL 3
REMARK VINA RESULT:      -8.2      0.832      1.227
REMARK  Name = 
REMARK  7 active torsions:
REMARK  status: ('A' for Active; 'I' for Inactive)
REMARK    1  A    between atoms: C_1  and  C_2
REMARK    2  A    between atoms: C_2  and  C_3
REMARK    3  A    between atoms: C_3  and  O_4
REMARK    4  A    between atoms: O_4  and  C_5
REMARK    5  A    between atoms: C_8  and  C_9
REMARK    6  A    between atoms: C_16  and  C_17
REMARK    7  A    between atoms: C_24  and  C_25
REMARK                            x       y       z     vdW  Elec       q    Type
REMARK                         _______ _______ _______ _____ _____    ______ ____
ROOT
ATOM      1  C   UNL     1       2.618   7.054  18.813  0.00  0.00    +0.000 C 
ATOM      2  O   UNL     1       2.290   6.531  19.877  0.00  0.00    +0.000 OA
ATOM      3  N   UNL     1       2.214   8.302  18.391  0.00  0.00    +0.000 N 
ATOM      4  C   UNL     1       1.438   9.120  19.177  0.00  0.00    +0.000 A 
ATOM      5  N   UNL     1       0.787  10.172  18.600  0.00  0.00    +0.000 NA
ATOM      6  C   UNL     1       0.062  10.666  19.584  0.00  0.00    +0.000 A 
ATOM      7  N   UNL     1      -0.867  11.677  19.569  0.00  0.00    +0.000 NA
ATOM      8  C   UNL     1      -1.454  11.953  20.702  0.00  0.00    +0.000 A 
ATOM      9  C   UNL     1      -1.180  11.248  22.001  0.00  0.00    +0.000 A 
ATOM     10  C   UNL     1      -0.266  10.264  21.971  0.00  0.00    +0.000 A 
ATOM     11  C   UNL     1       0.111   9.472  23.184  0.00  0.00    +0.000 C 
ATOM     12  N   UNL     1       0.349   9.960  20.755  0.00  0.00    +0.000 N 
ATOM     13  N   UNL     1       1.244   8.997  20.486  0.00  0.00    +0.000 NA
ATOM     14  H   UNL     1       2.320   8.616  17.441  0.00  0.00    +0.000 HD
ENDROOT
BRANCH   1  18
ATOM     15  C   UNL     1       5.004   4.441  16.331  0.00  0.00    +0.000 A 
ATOM     16  C   UNL     1       3.962   3.973  17.126  0.00  0.00    +0.000 A 
ATOM     17  C   UNL     1       3.211   4.857  17.895  0.00  0.00    +0.000 A 
ATOM     18  C   UNL     1       3.476   6.233  17.901  0.00  0.00    +0.000 A 
ATOM     19  C   UNL     1       4.520   6.713  17.101  0.00  0.00    +0.000 A 
ATOM     20  C   UNL     1       5.277   5.815  16.320  0.00  0.00    +0.000 A 
BRANCH  15  21
ATOM     21  O   UNL     1       5.806   3.642  15.548  0.00  0.00    +0.000 OA
BRANCH  21  22
ATOM     22  C   UNL     1       6.336   4.296  14.389  0.00  0.00    +0.000 C 
BRANCH  22  24
ATOM     23  C   UNL     1       6.868   3.670  12.030  0.00  0.00    +0.000 C 
ATOM     24  C   UNL     1       5.785   3.694  13.102  0.00  0.00    +0.000 C 
ENDBRANCH  22  24
ENDBRANCH  21  22
ENDBRANCH  15  21
ENDBRANCH   1  18
BRANCH   8  25
ATOM     25  C   UNL     1      -2.514  13.007  20.752  0.00  0.00    +0.000 A 
ATOM     26  C   UNL     1      -2.146  14.321  21.067  0.00  0.00    +0.000 A 
ATOM     27  C   UNL     1      -3.102  15.341  21.059  0.00  0.00    +0.000 A 
ATOM     28  C   UNL     1      -4.429  15.053  20.745  0.00  0.00    +0.000 A 
ATOM     29  C   UNL     1      -4.809  13.745  20.454  0.00  0.00    +0.000 A 
ATOM     30  C   UNL     1      -3.857  12.722  20.467  0.00  0.00    +0.000 A 
ENDBRANCH   8  25
TORSDOF 5
ENDMDL
MODEL 4
REMARK VINA RESULT:      -8.1      0.833      1.252
REMARK  Name = 
REMARK  7 active torsions:
REMARK  status: ('A' for Active; 'I' for Inactive)
REMARK    1  A    between atoms: C_1  and  C_2
REMARK    2  A    between atoms: C_2  and  C_3
REMARK    3  A    between atoms: C_3  and  O_4
REMARK    4  A    between atoms: O_4  and  C_5
REMARK    5  A    between atoms: C_8  and  C_9
REMARK    6  A    between atoms: C_16  and  C_17
REMARK    7  A    between atoms: C_24  and  C_25
REMARK                            x       y       z     vdW  Elec       q    Type
REMARK                         _______ _______ _______ _____ _____    ______ ____
ROOT
ATOM      1  C   UNL     1       2.541   6.761  19.041  0.00  0.00    +0.000 C 
ATOM      2  O   UNL     1       2.190   6.298  20.125  0.00  0.00    +0.000 OA
ATOM      3  N   UNL     1       2.183   8.002  18.562  0.00  0.00    +0.000 N 
ATOM      4  C   UNL     1       1.432   8.881  19.306  0.00  0.00    +0.000 A 
ATOM      5  N   UNL     1       0.820   9.928  18.679  0.00  0.00    +0.000 NA
ATOM      6  C   UNL     1       0.109  10.490  19.636  0.00  0.00    +0.000 A 
ATOM      7  N   UNL     1      -0.784  11.531  19.570  0.00  0.00    +0.000 NA
ATOM      8  C   UNL     1      -1.366  11.877  20.686  0.00  0.00    +0.000 A 
ATOM      9  C   UNL     1      -1.123  11.222  22.017  0.00  0.00    +0.000 A 
ATOM     10  C   UNL     1      -0.244  10.206  22.036  0.00  0.00    +0.000 A 
ATOM     11  C   UNL     1       0.099   9.456  23.285  0.00  0.00    +0.000 C 
ATOM     12  N   UNL     1       0.366   9.828  20.839  0.00  0.00    +0.000 N 
ATOM     13  N   UNL     1       1.228   8.823  20.618  0.00  0.00    +0.000 NA
ATOM     14  H   UNL     1       2.304   8.270  17.600  0.00  0.00    +0.000 HD
ENDROOT
BRANCH   1  18
ATOM     15  C   UNL     1       5.057   4.440  16.403  0.00  0.00    +0.000 A 
ATOM     16  C   UNL     1       5.275   5.793  16.647  0.00  0.00    +0.000 A 
ATOM     17  C   UNL     1       4.447   6.494  17.519  0.00  0.00    +0.000 A 
ATOM     18  C   UNL     1       3.374   5.871  18.172  0.00  0.00    +0.000 A 
ATOM     19  C   UNL     1       3.150   4.510  17.935  0.00  0.00    +0.000 A 
ATOM     20  C   UNL     1       3.994   3.802  17.053  0.00  0.00    +0.000 A 
BRANCH  15  21
ATOM     21  O   UNL     1       5.815   3.670  15.550  0.00  0.00    +0.000 OA
BRANCH  21  22
ATOM     22  C   UNL     1       6.222   4.343  14.354  0.00  0.00    +0.000 C 
BRANCH  22  24
ATOM     23  C   UNL     1       6.091   3.185  12.144  0.00  0.00    +0.000 C 
ATOM     24  C   UNL     1       5.318   3.997  13.177  0.00  0.00    +0.000 C 
ENDBRANCH  22  24
ENDBRANCH  21  22
ENDBRANCH  15  21
ENDBRANCH   1  18
BRANCH   8  25
ATOM     25  C   UNL     1      -2.390  12.969  20.683  0.00  0.00    +0.000 A 
ATOM     26  C   UNL     1      -3.712  12.654  20.347  0.00  0.00    +0.000 A 
ATOM     27  C   UNL     1      -4.704  13.638  20.398  0.00  0.00    +0.000 A 
ATOM     28  C   UNL     1      -4.380  14.939  20.777  0.00  0.00    +0.000 A 
ATOM     29  C   UNL     1      -3.063  15.266  21.090  0.00  0.00    +0.000 A 
ATOM     30  C   UNL     1      -2.067  14.288  21.034  0.00  0.00    +0.000 A 
ENDBRANCH   8  25
TORSDOF 5
ENDMDL
MODEL 5
REMARK VINA RESULT:      -8.0      2.344      3.820
REMARK  Name = 
REMARK  7 active torsions:
REMARK  status: ('A' for Active; 'I' for Inactive)
REMARK    1  A    between atoms: C_1  and  C_2
REMARK    2  A    between atoms: C_2  and  C_3
REMARK    3  A    between atoms: C_3  and  O_4
REMARK    4  A    between atoms: O_4  and  C_5
REMARK    5  A    between atoms: C_8  and  C_9
REMARK    6  A    between atoms: C_16  and  C_17
REMARK    7  A    between atoms: C_24  and  C_25
REMARK                            x       y       z     vdW  Elec       q    Type
REMARK                         _______ _______ _______ _____ _____    ______ ____
ROOT
ATOM      1  C   UNL     1       1.846   8.266  18.802  0.00  0.00    +0.000 C 
ATOM      2  O   UNL     1       1.366   8.877  17.848  0.00  0.00    +0.000 OA
ATOM      3  N   UNL     1       1.598   8.554  20.126  0.00  0.00    +0.000 N 
ATOM      4  C   UNL     1       0.716   9.537  20.504  0.00  0.00    +0.000 A 
ATOM      5  N   UNL     1       0.761  10.014  21.784  0.00  0.00    +0.000 NA
ATOM      6  C   UNL     1      -0.114  10.999  21.778  0.00  0.00    +0.000 A 
ATOM      7  N   UNL     1      -0.426  11.902  22.764  0.00  0.00    +0.000 NA
ATOM      8  C   UNL     1      -1.334  12.795  22.479  0.00  0.00    +0.000 A 
ATOM      9  C   UNL     1      -2.052  12.894  21.161  0.00  0.00    +0.000 A 
ATOM     10  C   UNL     1      -1.716  11.993  20.224  0.00  0.00    +0.000 A 
ATOM     11  C   UNL     1      -2.342  11.967  18.864  0.00  0.00    +0.000 C 
ATOM     12  N   UNL     1      -0.733  11.049  20.526  0.00  0.00    +0.000 N 
ATOM     13  N   UNL     1      -0.212  10.097  19.735  0.00  0.00    +0.000 NA
ATOM     14  H   UNL     1       2.157   8.185  20.877  0.00  0.00    +0.000 HD
ENDROOT
BRANCH   1  18
ATOM     15  C   UNL     1       4.678   5.231  17.598  0.00  0.00    +0.000 A 
ATOM     16  C   UNL     1       4.604   6.475  16.978  0.00  0.00    +0.000 A 
ATOM     17  C   UNL     1       3.686   7.426  17.413  0.00  0.00    +0.000 A 
ATOM     18  C   UNL     1       2.810   7.168  18.476  0.00  0.00    +0.000 A 
ATOM     19  C   UNL     1       2.880   5.921  19.108  0.00  0.00    +0.000 A 
ATOM     20  C   UNL     1       3.814   4.961  18.666  0.00  0.00    +0.000 A 
BRANCH  15  21
ATOM     21  O   UNL     1       5.544   4.226  17.230  0.00  0.00    +0.000 OA
BRANCH  21  22
ATOM     22  C   UNL     1       6.856   4.679  16.881  0.00  0.00    +0.000 C 
BRANCH  22  24
ATOM     23  C   UNL     1       7.803   6.095  18.709  0.00  0.00    +0.000 C 
ATOM     24  C   UNL     1       7.784   4.702  18.090  0.00  0.00    +0.000 C 
ENDBRANCH  22  24
ENDBRANCH  21  22
ENDBRANCH  15  21
ENDBRANCH   1  18
BRANCH   8  25
ATOM     25  C   UNL     1      -1.689  13.844  23.485  0.00  0.00    +0.000 A 
ATOM     26  C   UNL     1      -2.922  13.759  24.143  0.00  0.00    +0.000 A 
ATOM     27  C   UNL     1      -3.256  14.686  25.135  0.00  0.00    +0.000 A 
ATOM     28  C   UNL     1      -2.364  15.704  25.469  0.00  0.00    +0.000 A 
ATOM     29  C   UNL     1      -1.145  15.809  24.804  0.00  0.00    +0.000 A 
ATOM     30  C   UNL     1      -0.811  14.889  23.808  0.00  0.00    +0.000 A 
ENDBRANCH   8  25
TORSDOF 5
ENDMDL
MODEL 6
REMARK VINA RESULT:      -7.9      3.049     11.081
REMARK  Name = 
REMARK  7 active torsions:
REMARK  status: ('A' for Active; 'I' for Inactive)
REMARK    1  A    between atoms: C_1  and  C_2
REMARK    2  A    between atoms: C_2  and  C_3
REMARK    3  A    between atoms: C_3  and  O_4
REMARK    4  A    between atoms: O_4  and  C_5
REMARK    5  A    between atoms: C_8  and  C_9
REMARK    6  A    between atoms: C_16  and  C_17
REMARK    7  A    between atoms: C_24  and  C_25
REMARK                            x       y       z     vdW  Elec       q    Type
REMARK                         _______ _______ _______ _____ _____    ______ ____
ROOT
ATOM      1  C   UNL     1       0.284   9.914  21.719  0.00  0.00    +0.000 C 
ATOM      2  O   UNL     1       0.526   9.094  22.604  0.00  0.00    +0.000 OA
ATOM      3  N   UNL     1       0.677   9.792  20.405  0.00  0.00    +0.000 N 
ATOM      4  C   UNL     1       1.338   8.681  19.942  0.00  0.00    +0.000 A 
ATOM      5  N   UNL     1       2.001   8.749  18.750  0.00  0.00    +0.000 NA
ATOM      6  C   UNL     1       2.605   7.581  18.663  0.00  0.00    +0.000 A 
ATOM      7  N   UNL     1       3.489   7.118  17.720  0.00  0.00    +0.000 NA
ATOM      8  C   UNL     1       3.950   5.909  17.890  0.00  0.00    +0.000 A 
ATOM      9  C   UNL     1       3.578   5.004  19.032  0.00  0.00    +0.000 A 
ATOM     10  C   UNL     1       2.712   5.497  19.933  0.00  0.00    +0.000 A 
ATOM     11  C   UNL     1       2.249   4.716  21.123  0.00  0.00    +0.000 C 
ATOM     12  N   UNL     1       2.232   6.796  19.757  0.00  0.00    +0.000 N 
ATOM     13  N   UNL     1       1.407   7.500  20.549  0.00  0.00    +0.000 NA
ATOM     14  H   UNL     1       0.652  10.562  19.756  0.00  0.00    +0.000 HD
ENDROOT
BRANCH   1  18
ATOM     15  C   UNL     1      -1.595  13.649  22.816  0.00  0.00    +0.000 A 
ATOM     16  C   UNL     1      -0.555  13.576  21.892  0.00  0.00    +0.000 A 
ATOM     17  C   UNL     1       0.006  12.347  21.559  0.00  0.00    +0.000 A 
ATOM     18  C   UNL     1      -0.447  11.152  22.137  0.00  0.00    +0.000 A 
ATOM     19  C   UNL     1      -1.494  11.217  23.064  0.00  0.00    +0.000 A 
ATOM     20  C   UNL     1      -2.063  12.464  23.396  0.00  0.00    +0.000 A 
BRANCH  15  21
ATOM     21  O   UNL     1      -2.202  14.818  23.214  0.00  0.00    +0.000 OA
BRANCH  21  22
ATOM     22  C   UNL     1      -3.104  14.667  24.315  0.00  0.00    +0.000 C 
BRANCH  22  24
ATOM     23  C   UNL     1      -1.514  15.571  26.016  0.00  0.00    +0.000 C 
ATOM     24  C   UNL     1      -2.885  15.741  25.375  0.00  0.00    +0.000 C 
ENDBRANCH  22  24
ENDBRANCH  21  22
ENDBRANCH  15  21
ENDBRANCH   1  18
BRANCH   8  25
ATOM     25  C   UNL     1       4.957   5.355  16.932  0.00  0.00    +0.000 A 
ATOM     26  C   UNL     1       4.732   4.093  16.370  0.00  0.00    +0.000 A 
ATOM     27  C   UNL     1       5.621   3.576  15.423  0.00  0.00    +0.000 A 
ATOM     28  C   UNL     1       6.740   4.312  15.039  0.00  0.00    +0.000 A 
ATOM     29  C   UNL     1       6.985   5.558  15.611  0.00  0.00    +0.000 A 
ATOM     30  C   UNL     1       6.102   6.076  16.562  0.00  0.00    +0.000 A 
ENDBRANCH   8  25
TORSDOF 5
ENDMDL
MODEL 7
REMARK VINA RESULT:      -7.8      0.947      1.458
REMARK  Name = 
REMARK  7 active torsions:
REMARK  status: ('A' for Active; 'I' for Inactive)
REMARK    1  A    between atoms: C_1  and  C_2
REMARK    2  A    between atoms: C_2  and  C_3
REMARK    3  A    between atoms: C_3  and  O_4
REMARK    4  A    between atoms: O_4  and  C_5
REMARK    5  A    between atoms: C_8  and  C_9
REMARK    6  A    between atoms: C_16  and  C_17
REMARK    7  A    between atoms: C_24  and  C_25
REMARK                            x       y       z     vdW  Elec       q    Type
REMARK                         _______ _______ _______ _____ _____    ______ ____
ROOT
ATOM      1  C   UNL     1       2.850   6.627  18.261  0.00  0.00    +0.000 C 
ATOM      2  O   UNL     1       2.128   6.030  19.058  0.00  0.00    +0.000 OA
ATOM      3  N   UNL     1       2.855   7.992  18.073  0.00  0.00    +0.000 N 
ATOM      4  C   UNL     1       2.078   8.834  18.830  0.00  0.00    +0.000 A 
ATOM      5  N   UNL     1       1.855  10.108  18.391  0.00  0.00    +0.000 NA
ATOM      6  C   UNL     1       1.000  10.594  19.269  0.00  0.00    +0.000 A 
ATOM      7  N   UNL     1       0.349  11.802  19.284  0.00  0.00    +0.000 NA
ATOM      8  C   UNL     1      -0.466  12.019  20.280  0.00  0.00    +0.000 A 
ATOM      9  C   UNL     1      -0.731  11.046  21.395  0.00  0.00    +0.000 A 
ATOM     10  C   UNL     1      -0.075   9.875  21.341  0.00  0.00    +0.000 A 
ATOM     11  C   UNL     1      -0.237   8.808  22.378  0.00  0.00    +0.000 C 
ATOM     12  N   UNL     1       0.784   9.640  20.266  0.00  0.00    +0.000 N 
ATOM     13  N   UNL     1       1.495   8.536  19.987  0.00  0.00    +0.000 NA
ATOM     14  H   UNL     1       3.294   8.431  17.280  0.00  0.00    +0.000 HD
ENDROOT
BRANCH   1  18
ATOM     15  C   UNL     1       5.471   4.434  15.615  0.00  0.00    +0.000 A 
ATOM     16  C   UNL     1       5.459   5.825  15.673  0.00  0.00    +0.000 A 
ATOM     17  C   UNL     1       4.608   6.485  16.554  0.00  0.00    +0.000 A 
ATOM     18  C   UNL     1       3.740   5.783  17.402  0.00  0.00    +0.000 A 
ATOM     19  C   UNL     1       3.749   4.384  17.353  0.00  0.00    +0.000 A 
ATOM     20  C   UNL     1       4.615   3.718  16.461  0.00  0.00    +0.000 A 
BRANCH  15  21
ATOM     21  O   UNL     1       6.268   3.696  14.769  0.00  0.00    +0.000 OA
BRANCH  21  22
ATOM     22  C   UNL     1       6.475   4.295  13.485  0.00  0.00    +0.000 C 
BRANCH  22  24
ATOM     23  C   UNL     1       4.742   3.411  11.918  0.00  0.00    +0.000 C 
ATOM     24  C   UNL     1       6.199   3.311  12.354  0.00  0.00    +0.000 C 
ENDBRANCH  22  24
ENDBRANCH  21  22
ENDBRANCH  15  21
ENDBRANCH   1  18
BRANCH   8  25
ATOM     25  C   UNL     1      -1.250  13.292  20.336  0.00  0.00    +0.000 A 
ATOM     26  C   UNL     1      -2.545  13.265  20.868  0.00  0.00    +0.000 A 
ATOM     27  C   UNL     1      -3.279  14.448  20.995  0.00  0.00    +0.000 A 
ATOM     28  C   UNL     1      -2.727  15.661  20.585  0.00  0.00    +0.000 A 
ATOM     29  C   UNL     1      -1.448  15.693  20.033  0.00  0.00    +0.000 A 
ATOM     30  C   UNL     1      -0.715  14.512  19.899  0.00  0.00    +0.000 A 
ENDBRANCH   8  25
TORSDOF 5
ENDMDL
MODEL 8
REMARK VINA RESULT:      -7.7      2.097      3.286
REMARK  Name = 
REMARK  7 active torsions:
REMARK  status: ('A' for Active; 'I' for Inactive)
REMARK    1  A    between atoms: C_1  and  C_2
REMARK    2  A    between atoms: C_2  and  C_3
REMARK    3  A    between atoms: C_3  and  O_4
REMARK    4  A    between atoms: O_4  and  C_5
REMARK    5  A    between atoms: C_8  and  C_9
REMARK    6  A    between atoms: C_16  and  C_17
REMARK    7  A    between atoms: C_24  and  C_25
REMARK                            x       y       z     vdW  Elec       q    Type
REMARK                         _______ _______ _______ _____ _____    ______ ____
ROOT
ATOM      1  C   UNL     1       1.883   8.326  18.511  0.00  0.00    +0.000 C 
ATOM      2  O   UNL     1       1.418   8.990  17.587  0.00  0.00    +0.000 OA
ATOM      3  N   UNL     1       1.612   8.535  19.846  0.00  0.00    +0.000 N 
ATOM      4  C   UNL     1       0.720   9.492  20.266  0.00  0.00    +0.000 A 
ATOM      5  N   UNL     1       0.742   9.893  21.571  0.00  0.00    +0.000 NA
ATOM      6  C   UNL     1      -0.137  10.875  21.609  0.00  0.00    +0.000 A 
ATOM      7  N   UNL     1      -0.469  11.718  22.640  0.00  0.00    +0.000 NA
ATOM      8  C   UNL     1      -1.376  12.623  22.392  0.00  0.00    +0.000 A 
ATOM      9  C   UNL     1      -2.072  12.796  21.070  0.00  0.00    +0.000 A 
ATOM     10  C   UNL     1      -1.716  11.952  20.088  0.00  0.00    +0.000 A 
ATOM     11  C   UNL     1      -2.320  12.003  18.719  0.00  0.00    +0.000 C 
ATOM     12  N   UNL     1      -0.735  10.995  20.351  0.00  0.00    +0.000 N 
ATOM     13  N   UNL     1      -0.197  10.093  19.515  0.00  0.00    +0.000 NA
ATOM     14  H   UNL     1       2.160   8.124  20.584  0.00  0.00    +0.000 HD
ENDROOT
BRANCH   1  18
ATOM     15  C   UNL     1       4.549   5.042  17.624  0.00  0.00    +0.000 A 
ATOM     16  C   UNL     1       3.306   4.856  18.222  0.00  0.00    +0.000 A 
ATOM     17  C   UNL     1       2.476   5.945  18.472  0.00  0.00    +0.000 A 
ATOM     18  C   UNL     1       2.858   7.252  18.139  0.00  0.00    +0.000 A 
ATOM     19  C   UNL     1       4.105   7.446  17.533  0.00  0.00    +0.000 A 
ATOM     20  C   UNL     1       4.943   6.340  17.278  0.00  0.00    +0.000 A 
BRANCH  15  21
ATOM     21  O   UNL     1       5.441   4.029  17.349  0.00  0.00    +0.000 OA
BRANCH  21  22
ATOM     22  C   UNL     1       6.493   4.398  16.451  0.00  0.00    +0.000 C 
BRANCH  22  24
ATOM     23  C   UNL     1       6.496   4.811  13.987  0.00  0.00    +0.000 C 
ATOM     24  C   UNL     1       6.310   3.763  15.078  0.00  0.00    +0.000 C 
ENDBRANCH  22  24
ENDBRANCH  21  22
ENDBRANCH  15  21
ENDBRANCH   1  18
BRANCH   8  25
ATOM     25  C   UNL     1      -1.752  13.610  23.452  0.00  0.00    +0.000 A 
ATOM     26  C   UNL     1      -0.851  14.633  23.772  0.00  0.00    +0.000 A 
ATOM     27  C   UNL     1      -1.199  15.609  24.711  0.00  0.00    +0.000 A 
ATOM     28  C   UNL     1      -2.442  15.563  25.339  0.00  0.00    +0.000 A 
ATOM     29  C   UNL     1      -3.335  14.535  25.043  0.00  0.00    +0.000 A 
ATOM     30  C   UNL     1      -2.988  13.555  24.110  0.00  0.00    +0.000 A 
ENDBRANCH   8  25
TORSDOF 5
ENDMDL
MODEL 9
REMARK VINA RESULT:      -7.7      2.898     10.883
REMARK  Name = 
REMARK  7 active torsions:
REMARK  status: ('A' for Active; 'I' for Inactive)
REMARK    1  A    between atoms: C_1  and  C_2
REMARK    2  A    between atoms: C_2  and  C_3
REMARK    3  A    between atoms: C_3  and  O_4
REMARK    4  A    between atoms: O_4  and  C_5
REMARK    5  A    between atoms: C_8  and  C_9
REMARK    6  A    between atoms: C_16  and  C_17
REMARK    7  A    between atoms: C_24  and  C_25
REMARK                            x       y       z     vdW  Elec       q    Type
REMARK                         _______ _______ _______ _____ _____    ______ ____
ROOT
ATOM      1  C   UNL     1       0.287  10.025  21.758  0.00  0.00    +0.000 C 
ATOM      2  O   UNL     1       0.537   9.206  22.641  0.00  0.00    +0.000 OA
ATOM      3  N   UNL     1       0.662   9.899  20.438  0.00  0.00    +0.000 N 
ATOM      4  C   UNL     1       1.310   8.783  19.969  0.00  0.00    +0.000 A 
ATOM      5  N   UNL     1       1.956   8.846  18.767  0.00  0.00    +0.000 NA
ATOM      6  C   UNL     1       2.552   7.674  18.674  0.00  0.00    +0.000 A 
ATOM      7  N   UNL     1       3.421   7.205  17.721  0.00  0.00    +0.000 NA
ATOM      8  C   UNL     1       3.878   5.993  17.886  0.00  0.00    +0.000 A 
ATOM      9  C   UNL     1       3.516   5.092  19.035  0.00  0.00    +0.000 A 
ATOM     10  C   UNL     1       2.665   5.592  19.946  0.00  0.00    +0.000 A 
ATOM     11  C   UNL     1       2.215   4.815  21.144  0.00  0.00    +0.000 C 
ATOM     12  N   UNL     1       2.190   6.893  19.775  0.00  0.00    +0.000 N 
ATOM     13  N   UNL     1       1.381   7.603  20.577  0.00  0.00    +0.000 NA
ATOM     14  H   UNL     1       0.632  10.668  19.789  0.00  0.00    +0.000 HD
ENDROOT
BRANCH   1  18
ATOM     15  C   UNL     1      -2.012  13.440  23.074  0.00  0.00    +0.000 A 
ATOM     16  C   UNL     1      -2.300  12.141  23.483  0.00  0.00    +0.000 A 
ATOM     17  C   UNL     1      -1.520  11.075  23.045  0.00  0.00    +0.000 A 
ATOM     18  C   UNL     1      -0.430  11.268  22.184  0.00  0.00    +0.000 A 
ATOM     19  C   UNL     1      -0.131  12.573  21.772  0.00  0.00    +0.000 A 
ATOM     20  C   UNL     1      -0.923  13.651  22.220  0.00  0.00    +0.000 A 
BRANCH  15  21
ATOM     21  O   UNL     1      -2.733  14.552  23.446  0.00  0.00    +0.000 OA
BRANCH  21  22
ATOM     22  C   UNL     1      -4.119  14.297  23.698  0.00  0.00    +0.000 C 
BRANCH  22  24
ATOM     23  C   UNL     1      -5.724  13.189  22.138  0.00  0.00    +0.000 C 
ATOM     24  C   UNL     1      -4.963  14.474  22.441  0.00  0.00    +0.000 C 
ENDBRANCH  22  24
ENDBRANCH  21  22
ENDBRANCH  15  21
ENDBRANCH   1  18
BRANCH   8  25
ATOM     25  C   UNL     1       4.869   5.432  16.915  0.00  0.00    +0.000 A 
ATOM     26  C   UNL     1       6.008   6.184  16.602  0.00  0.00    +0.000 A 
ATOM     27  C   UNL     1       6.984   5.661  15.749  0.00  0.00    +0.000 A 
ATOM     28  C   UNL     1       6.824   4.389  15.200  0.00  0.00    +0.000 A 
ATOM     29  C   UNL     1       5.683   3.644  15.488  0.00  0.00    +0.000 A 
ATOM     30  C   UNL     1       4.702   4.166  16.335  0.00  0.00    +0.000 A 
ENDBRANCH   8  25
TORSDOF 5
ENDMDL
