MODEL 1
REMARK VINA RESULT:      -7.8      0.000      0.000
REMARK  Name = 
REMARK  12 active torsions:
REMARK  status: ('A' for Active; 'I' for Inactive)
REMARK    1  A    between atoms: C_1  and  O_2
REMARK    2  A    between atoms: O_2  and  C_3
REMARK    3  A    between atoms: C_6  and  C_7
REMARK    4  A    between atoms: C_8  and  SE_9
REMARK    5  A    between atoms: SE_9  and  C_12
REMARK    6  A    between atoms: C_14  and  O_15
REMARK    7  A    between atoms: O_15  and  C_16
REMARK    8  A    between atoms: C_17  and  O_18
REMARK    9  A    between atoms: O_18  and  C_19
REMARK   10  A    between atoms: C_20  and  O_21
REMARK   11  A    between atoms: O_21  and  C_22
REMARK   12  A    between atoms: C_25  and  O_26
REMARK                            x       y       z     vdW  Elec       q    Type
REMARK                         _______ _______ _______ _____ _____    ______ ____
ROOT
ATOM      1 SE   UNL     1       7.256   5.918  17.574  0.00  0.00    +0.000 Se
ATOM      2  O   UNL     1       7.463   5.844  15.943  0.00  0.00    +0.000 OA
ATOM      3  O   UNL     1       8.217   4.655  18.012  0.00  0.00    +0.000 OA
ENDROOT
BRANCH   1   4
ATOM      4  C   UNL     1       5.469   5.467  18.053  0.00  0.00    +0.000 A 
ATOM      5  C   UNL     1       5.225   4.186  18.523  0.00  0.00    +0.000 A 
ATOM      6  C   UNL     1       3.925   3.775  18.859  0.00  0.00    +0.000 A 
ATOM      7  C   UNL     1       2.850   4.698  18.711  0.00  0.00    +0.000 A 
ATOM      8  C   UNL     1       3.109   5.997  18.222  0.00  0.00    +0.000 A 
ATOM      9  C   UNL     1       4.426   6.371  17.895  0.00  0.00    +0.000 A 
BRANCH   6  10
ATOM     10  O   UNL     1       3.696   2.513  19.311  0.00  0.00    +0.000 OA
ATOM     11  C   UNL     1       3.460   1.401  18.526  0.00  0.00    +0.000 C 
ENDBRANCH   6  10
BRANCH   7  12
ATOM     12  O   UNL     1       1.555   4.397  19.011  0.00  0.00    +0.000 OA
ATOM     13  C   UNL     1       0.995   4.239  20.261  0.00  0.00    +0.000 C 
ENDBRANCH   7  12
BRANCH   8  14
ATOM     14  O   UNL     1       2.067   6.860  18.075  0.00  0.00    +0.000 OA
ATOM     15  C   UNL     1       2.143   8.237  18.169  0.00  0.00    +0.000 C 
ENDBRANCH   8  14
ENDBRANCH   1   4
BRANCH   1  17
ATOM     16  C   UNL     1       8.006   8.667  17.661  0.00  0.00    +0.000 C 
ATOM     17  C   UNL     1       8.074   7.479  18.290  0.00  0.00    +0.000 C 
BRANCH  16  21
ATOM     18  C   UNL     1       9.687  12.288  19.327  0.00  0.00    +0.000 A 
ATOM     19  C   UNL     1       9.839  11.052  19.976  0.00  0.00    +0.000 A 
ATOM     20  C   UNL     1       9.289   9.882  19.436  0.00  0.00    +0.000 A 
ATOM     21  C   UNL     1       8.569   9.925  18.230  0.00  0.00    +0.000 A 
ATOM     22  C   UNL     1       8.420  11.161  17.582  0.00  0.00    +0.000 A 
ATOM     23  C   UNL     1       8.967  12.331  18.109  0.00  0.00    +0.000 A 
BRANCH  18  25
ATOM     24  C   UNL     1      11.547  13.826  19.752  0.00  0.00    +0.000 C 
ATOM     25  O   UNL     1      10.250  13.383  19.909  0.00  0.00    +0.000 OA
ENDBRANCH  18  25
BRANCH  23  26
ATOM     26  O   UNL     1       8.791  13.487  17.435  0.00  0.00    +0.000 OA
ATOM     27  H   UNL     1       9.368  13.756  16.705  0.00  0.00    +0.000 HD
ENDBRANCH  23  26
ENDBRANCH  16  21
ENDBRANCH   1  17
TORSDOF 8
ENDMDL
MODEL 2
REMARK VINA RESULT:      -7.6      0.683      2.574
REMARK  Name = 
REMARK  12 active torsions:
REMARK  status: ('A' for Active; 'I' for Inactive)
REMARK    1  A    between atoms: C_1  and  O_2
REMARK    2  A    between atoms: O_2  and  C_3
REMARK    3  A    between atoms: C_6  and  C_7
REMARK    4  A    between atoms: C_8  and  SE_9
REMARK    5  A    between atoms: SE_9  and  C_12
REMARK    6  A    between atoms: C_14  and  O_15
REMARK    7  A    between atoms: O_15  and  C_16
REMARK    8  A    between atoms: C_17  and  O_18
REMARK    9  A    between atoms: O_18  and  C_19
REMARK   10  A    between atoms: C_20  and  O_21
REMARK   11  A    between atoms: O_21  and  C_22
REMARK   12  A    between atoms: C_25  and  O_26
REMARK                            x       y       z     vdW  Elec       q    Type
REMARK                         _______ _______ _______ _____ _____    ______ ____
ROOT
ATOM      1 SE   UNL     1       7.109   5.796  17.290  0.00  0.00    +0.000 Se
ATOM      2  O   UNL     1       7.346   5.805  15.662  0.00  0.00    +0.000 OA
ATOM      3  O   UNL     1       8.067   4.516  17.683  0.00  0.00    +0.000 OA
ENDROOT
BRANCH   1   4
ATOM      4  C   UNL     1       5.314   5.313  17.711  0.00  0.00    +0.000 A 
ATOM      5  C   UNL     1       4.457   6.311  18.147  0.00  0.00    +0.000 A 
ATOM      6  C   UNL     1       3.132   6.018  18.509  0.00  0.00    +0.000 A 
ATOM      7  C   UNL     1       2.676   4.671  18.422  0.00  0.00    +0.000 A 
ATOM      8  C   UNL     1       3.561   3.661  17.986  0.00  0.00    +0.000 A 
ATOM      9  C   UNL     1       4.882   3.995  17.633  0.00  0.00    +0.000 A 
BRANCH   6  10
ATOM     10  O   UNL     1       2.303   7.003  18.943  0.00  0.00    +0.000 OA
ATOM     11  C   UNL     1       2.129   8.238  18.349  0.00  0.00    +0.000 C 
ENDBRANCH   6  10
BRANCH   7  12
ATOM     12  O   UNL     1       1.410   4.285  18.749  0.00  0.00    +0.000 OA
ATOM     13  C   UNL     1       0.940   3.896  19.986  0.00  0.00    +0.000 C 
ENDBRANCH   7  12
BRANCH   8  14
ATOM     14  O   UNL     1       3.109   2.379  17.923  0.00  0.00    +0.000 OA
ATOM     15  C   UNL     1       3.667   1.297  18.577  0.00  0.00    +0.000 C 
ENDBRANCH   8  14
ENDBRANCH   1   4
BRANCH   1  17
ATOM     16  C   UNL     1       7.963   8.508  17.469  0.00  0.00    +0.000 C 
ATOM     17  C   UNL     1       7.904   7.321  18.100  0.00  0.00    +0.000 C 
BRANCH  16  21
ATOM     18  C   UNL     1       9.598  12.059  19.321  0.00  0.00    +0.000 A 
ATOM     19  C   UNL     1       9.734  10.799  19.924  0.00  0.00    +0.000 A 
ATOM     20  C   UNL     1       9.199   9.651  19.324  0.00  0.00    +0.000 A 
ATOM     21  C   UNL     1       8.510   9.743  18.103  0.00  0.00    +0.000 A 
ATOM     22  C   UNL     1       8.378  11.004  17.501  0.00  0.00    +0.000 A 
ATOM     23  C   UNL     1       8.909  12.151  18.088  0.00  0.00    +0.000 A 
BRANCH  18  25
ATOM     24  C   UNL     1       9.616  13.802  21.045  0.00  0.00    +0.000 C 
ATOM     25  O   UNL     1      10.145  13.131  19.961  0.00  0.00    +0.000 OA
ENDBRANCH  18  25
BRANCH  23  26
ATOM     26  O   UNL     1       8.750  13.334  17.456  0.00  0.00    +0.000 OA
ATOM     27  H   UNL     1       8.116  13.457  16.736  0.00  0.00    +0.000 HD
ENDBRANCH  23  26
ENDBRANCH  16  21
ENDBRANCH   1  17
TORSDOF 8
ENDMDL
MODEL 3
REMARK VINA RESULT:      -7.5      0.693      1.400
REMARK  Name = 
REMARK  12 active torsions:
REMARK  status: ('A' for Active; 'I' for Inactive)
REMARK    1  A    between atoms: C_1  and  O_2
REMARK    2  A    between atoms: O_2  and  C_3
REMARK    3  A    between atoms: C_6  and  C_7
REMARK    4  A    between atoms: C_8  and  SE_9
REMARK    5  A    between atoms: SE_9  and  C_12
REMARK    6  A    between atoms: C_14  and  O_15
REMARK    7  A    between atoms: O_15  and  C_16
REMARK    8  A    between atoms: C_17  and  O_18
REMARK    9  A    between atoms: O_18  and  C_19
REMARK   10  A    between atoms: C_20  and  O_21
REMARK   11  A    between atoms: O_21  and  C_22
REMARK   12  A    between atoms: C_25  and  O_26
REMARK                            x       y       z     vdW  Elec       q    Type
REMARK                         _______ _______ _______ _____ _____    ______ ____
ROOT
ATOM      1 SE   UNL     1       7.286   5.920  17.620  0.00  0.00    +0.000 Se
ATOM      2  O   UNL     1       7.497   5.805  15.992  0.00  0.00    +0.000 OA
ATOM      3  O   UNL     1       8.247   4.670  18.094  0.00  0.00    +0.000 OA
ENDROOT
BRANCH   1   4
ATOM      4  C   UNL     1       5.497   5.477  18.105  0.00  0.00    +0.000 A 
ATOM      5  C   UNL     1       5.257   4.214  18.622  0.00  0.00    +0.000 A 
ATOM      6  C   UNL     1       3.957   3.810  18.965  0.00  0.00    +0.000 A 
ATOM      7  C   UNL     1       2.879   4.721  18.775  0.00  0.00    +0.000 A 
ATOM      8  C   UNL     1       3.134   6.002  18.240  0.00  0.00    +0.000 A 
ATOM      9  C   UNL     1       4.451   6.370  17.906  0.00  0.00    +0.000 A 
BRANCH   6  10
ATOM     10  O   UNL     1       3.731   2.565  19.463  0.00  0.00    +0.000 OA
ATOM     11  C   UNL     1       4.480   1.933  20.437  0.00  0.00    +0.000 C 
ENDBRANCH   6  10
BRANCH   7  12
ATOM     12  O   UNL     1       1.583   4.425  19.078  0.00  0.00    +0.000 OA
ATOM     13  C   UNL     1       1.021   4.289  20.330  0.00  0.00    +0.000 C 
ENDBRANCH   7  12
BRANCH   8  14
ATOM     14  O   UNL     1       2.089   6.853  18.053  0.00  0.00    +0.000 OA
ATOM     15  C   UNL     1       2.166   8.233  18.051  0.00  0.00    +0.000 C 
ENDBRANCH   8  14
ENDBRANCH   1   4
BRANCH   1  17
ATOM     16  C   UNL     1       7.970   8.686  17.678  0.00  0.00    +0.000 C 
ATOM     17  C   UNL     1       8.099   7.499  18.298  0.00  0.00    +0.000 C 
BRANCH  16  21
ATOM     18  C   UNL     1       9.543  12.401  19.237  0.00  0.00    +0.000 A 
ATOM     19  C   UNL     1       8.857  12.361  18.013  0.00  0.00    +0.000 A 
ATOM     20  C   UNL     1       8.353  11.155  17.508  0.00  0.00    +0.000 A 
ATOM     21  C   UNL     1       8.529   9.957  18.221  0.00  0.00    +0.000 A 
ATOM     22  C   UNL     1       9.213  10.000  19.446  0.00  0.00    +0.000 A 
ATOM     23  C   UNL     1       9.715  11.196  19.958  0.00  0.00    +0.000 A 
BRANCH  18  25
ATOM     24  C   UNL     1      11.138  14.262  19.229  0.00  0.00    +0.000 C 
ATOM     25  O   UNL     1      10.004  13.609  19.667  0.00  0.00    +0.000 OA
ENDBRANCH  18  25
BRANCH  23  26
ATOM     26  O   UNL     1      10.361  11.170  21.144  0.00  0.00    +0.000 OA
ATOM     27  H   UNL     1      10.326  11.906  21.771  0.00  0.00    +0.000 HD
ENDBRANCH  23  26
ENDBRANCH  16  21
ENDBRANCH   1  17
TORSDOF 8
ENDMDL
MODEL 4
REMARK VINA RESULT:      -7.5      0.784      2.922
REMARK  Name = 
REMARK  12 active torsions:
REMARK  status: ('A' for Active; 'I' for Inactive)
REMARK    1  A    between atoms: C_1  and  O_2
REMARK    2  A    between atoms: O_2  and  C_3
REMARK    3  A    between atoms: C_6  and  C_7
REMARK    4  A    between atoms: C_8  and  SE_9
REMARK    5  A    between atoms: SE_9  and  C_12
REMARK    6  A    between atoms: C_14  and  O_15
REMARK    7  A    between atoms: O_15  and  C_16
REMARK    8  A    between atoms: C_17  and  O_18
REMARK    9  A    between atoms: O_18  and  C_19
REMARK   10  A    between atoms: C_20  and  O_21
REMARK   11  A    between atoms: O_21  and  C_22
REMARK   12  A    between atoms: C_25  and  O_26
REMARK                            x       y       z     vdW  Elec       q    Type
REMARK                         _______ _______ _______ _____ _____    ______ ____
ROOT
ATOM      1 SE   UNL     1       7.099   6.315  17.273  0.00  0.00    +0.000 Se
ATOM      2  O   UNL     1       7.449   5.852  15.733  0.00  0.00    +0.000 OA
ATOM      3  O   UNL     1       8.220   5.413  18.074  0.00  0.00    +0.000 OA
ENDROOT
BRANCH   1   4
ATOM      4  C   UNL     1       5.380   5.684  17.798  0.00  0.00    +0.000 A 
ATOM      5  C   UNL     1       4.318   6.574  17.751  0.00  0.00    +0.000 A 
ATOM      6  C   UNL     1       3.032   6.185  18.159  0.00  0.00    +0.000 A 
ATOM      7  C   UNL     1       2.829   4.854  18.625  0.00  0.00    +0.000 A 
ATOM      8  C   UNL     1       3.920   3.960  18.677  0.00  0.00    +0.000 A 
ATOM      9  C   UNL     1       5.195   4.387  18.261  0.00  0.00    +0.000 A 
BRANCH   6  10
ATOM     10  O   UNL     1       2.000   7.068  18.117  0.00  0.00    +0.000 OA
ATOM     11  C   UNL     1       2.109   8.438  17.977  0.00  0.00    +0.000 C 
ENDBRANCH   6  10
BRANCH   7  12
ATOM     12  O   UNL     1       1.621   4.381  19.041  0.00  0.00    +0.000 OA
ATOM     13  C   UNL     1       1.129   4.341  20.329  0.00  0.00    +0.000 C 
ENDBRANCH   7  12
BRANCH   8  14
ATOM     14  O   UNL     1       3.709   2.697  19.138  0.00  0.00    +0.000 OA
ATOM     15  C   UNL     1       3.494   1.580  18.353  0.00  0.00    +0.000 C 
ENDBRANCH   8  14
ENDBRANCH   1   4
BRANCH   1  17
ATOM     16  C   UNL     1       8.448   8.494  18.521  0.00  0.00    +0.000 C 
ATOM     17  C   UNL     1       7.580   8.133  17.559  0.00  0.00    +0.000 C 
BRANCH  16  21
ATOM     18  C   UNL     1       9.726  12.588  19.083  0.00  0.00    +0.000 A 
ATOM     19  C   UNL     1       9.105  12.179  17.893  0.00  0.00    +0.000 A 
ATOM     20  C   UNL     1       8.696  10.851  17.712  0.00  0.00    +0.000 A 
ATOM     21  C   UNL     1       8.906   9.899  18.724  0.00  0.00    +0.000 A 
ATOM     22  C   UNL     1       9.525  10.311  19.914  0.00  0.00    +0.000 A 
ATOM     23  C   UNL     1       9.932  11.631  20.105  0.00  0.00    +0.000 A 
BRANCH  18  25
ATOM     24  C   UNL     1       9.307  14.943  19.619  0.00  0.00    +0.000 C 
ATOM     25  O   UNL     1      10.095  13.895  19.189  0.00  0.00    +0.000 OA
ENDBRANCH  18  25
BRANCH  23  26
ATOM     26  O   UNL     1      10.519  11.963  21.274  0.00  0.00    +0.000 OA
ATOM     27  H   UNL     1      10.047  12.428  21.980  0.00  0.00    +0.000 HD
ENDBRANCH  23  26
ENDBRANCH  16  21
ENDBRANCH   1  17
TORSDOF 8
ENDMDL
MODEL 5
REMARK VINA RESULT:      -7.4      3.678      7.157
REMARK  Name = 
REMARK  12 active torsions:
REMARK  status: ('A' for Active; 'I' for Inactive)
REMARK    1  A    between atoms: C_1  and  O_2
REMARK    2  A    between atoms: O_2  and  C_3
REMARK    3  A    between atoms: C_6  and  C_7
REMARK    4  A    between atoms: C_8  and  SE_9
REMARK    5  A    between atoms: SE_9  and  C_12
REMARK    6  A    between atoms: C_14  and  O_15
REMARK    7  A    between atoms: O_15  and  C_16
REMARK    8  A    between atoms: C_17  and  O_18
REMARK    9  A    between atoms: O_18  and  C_19
REMARK   10  A    between atoms: C_20  and  O_21
REMARK   11  A    between atoms: O_21  and  C_22
REMARK   12  A    between atoms: C_25  and  O_26
REMARK                            x       y       z     vdW  Elec       q    Type
REMARK                         _______ _______ _______ _____ _____    ______ ____
ROOT
ATOM      1 SE   UNL     1       3.388   4.171  17.863  0.00  0.00    +0.000 Se
ATOM      2  O   UNL     1       3.766   2.928  18.873  0.00  0.00    +0.000 OA
ATOM      3  O   UNL     1       2.250   3.417  16.942  0.00  0.00    +0.000 OA
ENDROOT
BRANCH   1   4
ATOM      4  C   UNL     1       4.856   4.590  16.723  0.00  0.00    +0.000 A 
ATOM      5  C   UNL     1       4.995   3.866  15.549  0.00  0.00    +0.000 A 
ATOM      6  C   UNL     1       6.075   4.098  14.682  0.00  0.00    +0.000 A 
ATOM      7  C   UNL     1       7.034   5.095  15.025  0.00  0.00    +0.000 A 
ATOM      8  C   UNL     1       6.886   5.820  16.228  0.00  0.00    +0.000 A 
ATOM      9  C   UNL     1       5.791   5.557  17.072  0.00  0.00    +0.000 A 
BRANCH   6  10
ATOM     10  O   UNL     1       6.207   3.376  13.538  0.00  0.00    +0.000 OA
ATOM     11  C   UNL     1       5.347   3.404  12.457  0.00  0.00    +0.000 C 
ENDBRANCH   6  10
BRANCH   7  12
ATOM     12  O   UNL     1       8.114   5.396  14.251  0.00  0.00    +0.000 OA
ATOM     13  C   UNL     1       8.128   5.696  12.905  0.00  0.00    +0.000 C 
ENDBRANCH   7  12
BRANCH   8  14
ATOM     14  O   UNL     1       7.819   6.758  16.544  0.00  0.00    +0.000 OA
ATOM     15  C   UNL     1       7.662   7.766  17.477  0.00  0.00    +0.000 C 
ENDBRANCH   8  14
ENDBRANCH   1   4
BRANCH   1  17
ATOM     16  C   UNL     1       2.691   6.853  18.526  0.00  0.00    +0.000 C 
ATOM     17  C   UNL     1       2.480   5.553  18.801  0.00  0.00    +0.000 C 
BRANCH  16  21
ATOM     18  C   UNL     1       0.550  10.057  20.493  0.00  0.00    +0.000 A 
ATOM     19  C   UNL     1       0.934   8.903  21.195  0.00  0.00    +0.000 A 
ATOM     20  C   UNL     1       1.623   7.865  20.554  0.00  0.00    +0.000 A 
ATOM     21  C   UNL     1       1.941   7.960  19.188  0.00  0.00    +0.000 A 
ATOM     22  C   UNL     1       1.558   9.115  18.490  0.00  0.00    +0.000 A 
ATOM     23  C   UNL     1       0.875  10.155  19.119  0.00  0.00    +0.000 A 
BRANCH  18  25
ATOM     24  C   UNL     1      -0.676  10.909  22.437  0.00  0.00    +0.000 C 
ATOM     25  O   UNL     1      -0.116  11.026  21.181  0.00  0.00    +0.000 OA
ENDBRANCH  18  25
BRANCH  23  26
ATOM     26  O   UNL     1       0.538  11.241  18.391  0.00  0.00    +0.000 OA
ATOM     27  H   UNL     1       1.141  11.987  18.260  0.00  0.00    +0.000 HD
ENDBRANCH  23  26
ENDBRANCH  16  21
ENDBRANCH   1  17
TORSDOF 8
ENDMDL
MODEL 6
REMARK VINA RESULT:      -7.2      0.990      2.664
REMARK  Name = 
REMARK  12 active torsions:
REMARK  status: ('A' for Active; 'I' for Inactive)
REMARK    1  A    between atoms: C_1  and  O_2
REMARK    2  A    between atoms: O_2  and  C_3
REMARK    3  A    between atoms: C_6  and  C_7
REMARK    4  A    between atoms: C_8  and  SE_9
REMARK    5  A    between atoms: SE_9  and  C_12
REMARK    6  A    between atoms: C_14  and  O_15
REMARK    7  A    between atoms: O_15  and  C_16
REMARK    8  A    between atoms: C_17  and  O_18
REMARK    9  A    between atoms: O_18  and  C_19
REMARK   10  A    between atoms: C_20  and  O_21
REMARK   11  A    between atoms: O_21  and  C_22
REMARK   12  A    between atoms: C_25  and  O_26
REMARK                            x       y       z     vdW  Elec       q    Type
REMARK                         _______ _______ _______ _____ _____    ______ ____
ROOT
ATOM      1 SE   UNL     1       6.320   6.513  17.080  0.00  0.00    +0.000 Se
ATOM      2  O   UNL     1       5.919   6.482  15.484  0.00  0.00    +0.000 OA
ATOM      3  O   UNL     1       7.671   5.573  17.024  0.00  0.00    +0.000 OA
ENDROOT
BRANCH   1   4
ATOM      4  C   UNL     1       5.024   5.585  18.123  0.00  0.00    +0.000 A 
ATOM      5  C   UNL     1       4.009   6.325  18.708  0.00  0.00    +0.000 A 
ATOM      6  C   UNL     1       3.042   5.709  19.520  0.00  0.00    +0.000 A 
ATOM      7  C   UNL     1       3.118   4.303  19.737  0.00  0.00    +0.000 A 
ATOM      8  C   UNL     1       4.162   3.561  19.142  0.00  0.00    +0.000 A 
ATOM      9  C   UNL     1       5.113   4.215  18.336  0.00  0.00    +0.000 A 
BRANCH   6  10
ATOM     10  O   UNL     1       2.056   6.446  20.097  0.00  0.00    +0.000 OA
ATOM     11  C   UNL     1       1.919   7.819  20.020  0.00  0.00    +0.000 C 
ENDBRANCH   6  10
BRANCH   7  12
ATOM     12  O   UNL     1       2.228   3.613  20.505  0.00  0.00    +0.000 OA
ATOM     13  C   UNL     1       0.973   3.169  20.148  0.00  0.00    +0.000 C 
ENDBRANCH   7  12
BRANCH   8  14
ATOM     14  O   UNL     1       4.224   2.221  19.372  0.00  0.00    +0.000 OA
ATOM     15  C   UNL     1       3.740   1.238  18.529  0.00  0.00    +0.000 C 
ENDBRANCH   8  14
ENDBRANCH   1   4
BRANCH   1  17
ATOM     16  C   UNL     1       8.153   8.473  18.038  0.00  0.00    +0.000 C 
ATOM     17  C   UNL     1       6.902   8.248  17.598  0.00  0.00    +0.000 C 
BRANCH  16  21
ATOM     18  C   UNL     1       9.691  12.389  19.045  0.00  0.00    +0.000 A 
ATOM     19  C   UNL     1       9.960  11.274  19.854  0.00  0.00    +0.000 A 
ATOM     20  C   UNL     1       9.457  10.008  19.528  0.00  0.00    +0.000 A 
ATOM     21  C   UNL     1       8.666   9.832  18.380  0.00  0.00    +0.000 A 
ATOM     22  C   UNL     1       8.400  10.948  17.571  0.00  0.00    +0.000 A 
ATOM     23  C   UNL     1       8.899  12.211  17.886  0.00  0.00    +0.000 A 
BRANCH  18  25
ATOM     24  C   UNL     1      11.549  13.941  19.430  0.00  0.00    +0.000 C 
ATOM     25  O   UNL     1      10.215  13.589  19.423  0.00  0.00    +0.000 OA
ENDBRANCH  18  25
BRANCH  23  26
ATOM     26  O   UNL     1       8.609  13.243  17.065  0.00  0.00    +0.000 OA
ATOM     27  H   UNL     1       8.814  14.161  17.292  0.00  0.00    +0.000 HD
ENDBRANCH  23  26
ENDBRANCH  16  21
ENDBRANCH   1  17
TORSDOF 8
ENDMDL
MODEL 7
REMARK VINA RESULT:      -7.2      3.752      7.285
REMARK  Name = 
REMARK  12 active torsions:
REMARK  status: ('A' for Active; 'I' for Inactive)
REMARK    1  A    between atoms: C_1  and  O_2
REMARK    2  A    between atoms: O_2  and  C_3
REMARK    3  A    between atoms: C_6  and  C_7
REMARK    4  A    between atoms: C_8  and  SE_9
REMARK    5  A    between atoms: SE_9  and  C_12
REMARK    6  A    between atoms: C_14  and  O_15
REMARK    7  A    between atoms: O_15  and  C_16
REMARK    8  A    between atoms: C_17  and  O_18
REMARK    9  A    between atoms: O_18  and  C_19
REMARK   10  A    between atoms: C_20  and  O_21
REMARK   11  A    between atoms: O_21  and  C_22
REMARK   12  A    between atoms: C_25  and  O_26
REMARK                            x       y       z     vdW  Elec       q    Type
REMARK                         _______ _______ _______ _____ _____    ______ ____
ROOT
ATOM      1 SE   UNL     1       3.330   4.115  17.778  0.00  0.00    +0.000 Se
ATOM      2  O   UNL     1       3.619   2.853  18.792  0.00  0.00    +0.000 OA
ATOM      3  O   UNL     1       2.159   3.432  16.844  0.00  0.00    +0.000 OA
ENDROOT
BRANCH   1   4
ATOM      4  C   UNL     1       4.834   4.443  16.655  0.00  0.00    +0.000 A 
ATOM      5  C   UNL     1       5.695   5.472  17.005  0.00  0.00    +0.000 A 
ATOM      6  C   UNL     1       6.802   5.791  16.202  0.00  0.00    +0.000 A 
ATOM      7  C   UNL     1       7.032   5.039  15.015  0.00  0.00    +0.000 A 
ATOM      8  C   UNL     1       6.143   3.999  14.664  0.00  0.00    +0.000 A 
ATOM      9  C   UNL     1       5.044   3.710  15.494  0.00  0.00    +0.000 A 
BRANCH   6  10
ATOM     10  O   UNL     1       7.634   6.808  16.550  0.00  0.00    +0.000 OA
ATOM     11  C   UNL     1       7.734   7.383  17.802  0.00  0.00    +0.000 C 
ENDBRANCH   6  10
BRANCH   7  12
ATOM     12  O   UNL     1       8.078   5.269  14.171  0.00  0.00    +0.000 OA
ATOM     13  C   UNL     1       8.029   5.761  12.884  0.00  0.00    +0.000 C 
ENDBRANCH   7  12
BRANCH   8  14
ATOM     14  O   UNL     1       6.374   3.301  13.519  0.00  0.00    +0.000 OA
ATOM     15  C   UNL     1       5.583   3.331  12.386  0.00  0.00    +0.000 C 
ENDBRANCH   8  14
ENDBRANCH   1   4
BRANCH   1  17
ATOM     16  C   UNL     1       2.710   6.835  18.363  0.00  0.00    +0.000 C 
ATOM     17  C   UNL     1       2.496   5.551  18.705  0.00  0.00    +0.000 C 
BRANCH  16  21
ATOM     18  C   UNL     1       0.727  10.150  20.310  0.00  0.00    +0.000 A 
ATOM     19  C   UNL     1       1.023   8.970  21.010  0.00  0.00    +0.000 A 
ATOM     20  C   UNL     1       1.662   7.896  20.375  0.00  0.00    +0.000 A 
ATOM     21  C   UNL     1       2.015   7.981  19.018  0.00  0.00    +0.000 A 
ATOM     22  C   UNL     1       1.720   9.163  18.321  0.00  0.00    +0.000 A 
ATOM     23  C   UNL     1       1.088  10.238  18.944  0.00  0.00    +0.000 A 
BRANCH  18  25
ATOM     24  C   UNL     1      -0.622  11.032  22.157  0.00  0.00    +0.000 C 
ATOM     25  O   UNL     1       0.107  11.154  20.991  0.00  0.00    +0.000 OA
ENDBRANCH  18  25
BRANCH  23  26
ATOM     26  O   UNL     1       0.835  11.348  18.218  0.00  0.00    +0.000 OA
ATOM     27  H   UNL     1       1.411  12.126  18.240  0.00  0.00    +0.000 HD
ENDBRANCH  23  26
ENDBRANCH  16  21
ENDBRANCH   1  17
TORSDOF 8
ENDMDL
MODEL 8
REMARK VINA RESULT:      -7.2      3.747      7.418
REMARK  Name = 
REMARK  12 active torsions:
REMARK  status: ('A' for Active; 'I' for Inactive)
REMARK    1  A    between atoms: C_1  and  O_2
REMARK    2  A    between atoms: O_2  and  C_3
REMARK    3  A    between atoms: C_6  and  C_7
REMARK    4  A    between atoms: C_8  and  SE_9
REMARK    5  A    between atoms: SE_9  and  C_12
REMARK    6  A    between atoms: C_14  and  O_15
REMARK    7  A    between atoms: O_15  and  C_16
REMARK    8  A    between atoms: C_17  and  O_18
REMARK    9  A    between atoms: O_18  and  C_19
REMARK   10  A    between atoms: C_20  and  O_21
REMARK   11  A    between atoms: O_21  and  C_22
REMARK   12  A    between atoms: C_25  and  O_26
REMARK                            x       y       z     vdW  Elec       q    Type
REMARK                         _______ _______ _______ _____ _____    ______ ____
ROOT
ATOM      1 SE   UNL     1       3.407   4.106  17.716  0.00  0.00    +0.000 Se
ATOM      2  O   UNL     1       3.739   2.900  18.786  0.00  0.00    +0.000 OA
ATOM      3  O   UNL     1       2.261   3.341  16.814  0.00  0.00    +0.000 OA
ENDROOT
BRANCH   1   4
ATOM      4  C   UNL     1       4.901   4.434  16.579  0.00  0.00    +0.000 A 
ATOM      5  C   UNL     1       5.780   5.444  16.936  0.00  0.00    +0.000 A 
ATOM      6  C   UNL     1       6.881   5.764  16.124  0.00  0.00    +0.000 A 
ATOM      7  C   UNL     1       7.084   5.031  14.920  0.00  0.00    +0.000 A 
ATOM      8  C   UNL     1       6.177   4.010  14.562  0.00  0.00    +0.000 A 
ATOM      9  C   UNL     1       5.085   3.721  15.401  0.00  0.00    +0.000 A 
BRANCH   6  10
ATOM     10  O   UNL     1       7.732   6.762  16.479  0.00  0.00    +0.000 OA
ATOM     11  C   UNL     1       7.643   7.537  17.619  0.00  0.00    +0.000 C 
ENDBRANCH   6  10
BRANCH   7  12
ATOM     12  O   UNL     1       8.121   5.263  14.066  0.00  0.00    +0.000 OA
ATOM     13  C   UNL     1       8.064   5.791  12.793  0.00  0.00    +0.000 C 
ENDBRANCH   7  12
BRANCH   8  14
ATOM     14  O   UNL     1       6.382   3.330  13.401  0.00  0.00    +0.000 OA
ATOM     15  C   UNL     1       5.524   3.314  12.317  0.00  0.00    +0.000 C 
ENDBRANCH   8  14
ENDBRANCH   1   4
BRANCH   1  17
ATOM     16  C   UNL     1       2.759   6.832  18.235  0.00  0.00    +0.000 C 
ATOM     17  C   UNL     1       2.524   5.552  18.578  0.00  0.00    +0.000 C 
BRANCH  16  21
ATOM     18  C   UNL     1       0.609  10.180  19.933  0.00  0.00    +0.000 A 
ATOM     19  C   UNL     1       0.932  10.143  18.567  0.00  0.00    +0.000 A 
ATOM     20  C   UNL     1       1.633   9.059  18.021  0.00  0.00    +0.000 A 
ATOM     21  C   UNL     1       2.030   7.986  18.837  0.00  0.00    +0.000 A 
ATOM     22  C   UNL     1       1.704   8.024  20.201  0.00  0.00    +0.000 A 
ATOM     23  C   UNL     1       1.004   9.096  20.753  0.00  0.00    +0.000 A 
BRANCH  18  25
ATOM     24  C   UNL     1      -0.256  12.465  19.738  0.00  0.00    +0.000 C 
ATOM     25  O   UNL     1      -0.074  11.264  20.394  0.00  0.00    +0.000 OA
ENDBRANCH  18  25
BRANCH  23  26
ATOM     26  O   UNL     1       0.718   9.071  22.073  0.00  0.00    +0.000 OA
ATOM     27  H   UNL     1       0.593   8.245  22.562  0.00  0.00    +0.000 HD
ENDBRANCH  23  26
ENDBRANCH  16  21
ENDBRANCH   1  17
TORSDOF 8
ENDMDL
MODEL 9
REMARK VINA RESULT:      -7.0      0.986      2.712
REMARK  Name = 
REMARK  12 active torsions:
REMARK  status: ('A' for Active; 'I' for Inactive)
REMARK    1  A    between atoms: C_1  and  O_2
REMARK    2  A    between atoms: O_2  and  C_3
REMARK    3  A    between atoms: C_6  and  C_7
REMARK    4  A    between atoms: C_8  and  SE_9
REMARK    5  A    between atoms: SE_9  and  C_12
REMARK    6  A    between atoms: C_14  and  O_15
REMARK    7  A    between atoms: O_15  and  C_16
REMARK    8  A    between atoms: C_17  and  O_18
REMARK    9  A    between atoms: O_18  and  C_19
REMARK   10  A    between atoms: C_20  and  O_21
REMARK   11  A    between atoms: O_21  and  C_22
REMARK   12  A    between atoms: C_25  and  O_26
REMARK                            x       y       z     vdW  Elec       q    Type
REMARK                         _______ _______ _______ _____ _____    ______ ____
ROOT
ATOM      1 SE   UNL     1       7.197   6.626  17.571  0.00  0.00    +0.000 Se
ATOM      2  O   UNL     1       7.603   5.983  16.112  0.00  0.00    +0.000 OA
ATOM      3  O   UNL     1       8.314   5.861  18.509  0.00  0.00    +0.000 OA
ENDROOT
BRANCH   1   4
ATOM      4  C   UNL     1       5.478   6.020  18.125  0.00  0.00    +0.000 A 
ATOM      5  C   UNL     1       4.372   6.763  17.743  0.00  0.00    +0.000 A 
ATOM      6  C   UNL     1       3.079   6.393  18.148  0.00  0.00    +0.000 A 
ATOM      7  C   UNL     1       2.916   5.236  18.962  0.00  0.00    +0.000 A 
ATOM      8  C   UNL     1       4.051   4.492  19.353  0.00  0.00    +0.000 A 
ATOM      9  C   UNL     1       5.331   4.895  18.927  0.00  0.00    +0.000 A 
BRANCH   6  10
ATOM     10  O   UNL     1       2.002   7.134  17.775  0.00  0.00    +0.000 OA
ATOM     11  C   UNL     1       1.856   8.497  17.947  0.00  0.00    +0.000 C 
ENDBRANCH   6  10
BRANCH   7  12
ATOM     12  O   UNL     1       1.705   4.794  19.405  0.00  0.00    +0.000 OA
ATOM     13  C   UNL     1       1.010   3.679  18.986  0.00  0.00    +0.000 C 
ENDBRANCH   7  12
BRANCH   8  14
ATOM     14  O   UNL     1       3.875   3.397  20.141  0.00  0.00    +0.000 OA
ATOM     15  C   UNL     1       4.362   2.130  19.879  0.00  0.00    +0.000 C 
ENDBRANCH   8  14
ENDBRANCH   1   4
BRANCH   1  17
ATOM     16  C   UNL     1       8.581   8.954  18.459  0.00  0.00    +0.000 C 
ATOM     17  C   UNL     1       7.627   8.477  17.638  0.00  0.00    +0.000 C 
BRANCH  16  21
ATOM     18  C   UNL     1       9.841  13.091  18.525  0.00  0.00    +0.000 A 
ATOM     19  C   UNL     1      10.527  12.112  19.261  0.00  0.00    +0.000 A 
ATOM     20  C   UNL     1      10.114  10.773  19.241  0.00  0.00    +0.000 A 
ATOM     21  C   UNL     1       8.996  10.386  18.482  0.00  0.00    +0.000 A 
ATOM     22  C   UNL     1       8.313  11.366  17.746  0.00  0.00    +0.000 A 
ATOM     23  C   UNL     1       8.719  12.700  17.757  0.00  0.00    +0.000 A 
BRANCH  18  25
ATOM     24  C   UNL     1       9.927  15.337  19.505  0.00  0.00    +0.000 C 
ATOM     25  O   UNL     1      10.300  14.372  18.591  0.00  0.00    +0.000 OA
ENDBRANCH  18  25
BRANCH  23  26
ATOM     26  O   UNL     1       8.021  13.594  17.024  0.00  0.00    +0.000 OA
ATOM     27  H   UNL     1       8.367  13.979  16.206  0.00  0.00    +0.000 HD
ENDBRANCH  23  26
ENDBRANCH  16  21
ENDBRANCH   1  17
TORSDOF 8
ENDMDL
