MODEL 1
REMARK VINA RESULT:      -7.8      0.000      0.000
REMARK  Name = 
REMARK  8 active torsions:
REMARK  status: ('A' for Active; 'I' for Inactive)
REMARK    1  A    between atoms: C_1  and  O_2
REMARK    2  A    between atoms: O_2  and  C_3
REMARK    3  A    between atoms: C_3  and  C_4
REMARK    4  A    between atoms: C_4  and  N_5
REMARK    5  A    between atoms: C_8  and  C_9
REMARK    6  A    between atoms: C_13  and  C_14
REMARK    7  A    between atoms: C_14  and  O_16
REMARK    8  A    between atoms: C_17  and  C_18
REMARK                            x       y       z     vdW  Elec       q    Type
REMARK                         _______ _______ _______ _____ _____    ______ ____
ROOT
ATOM      1  N   UNL     1       6.676   5.214  16.772  0.00  0.00    +0.000 N 
ATOM      2  C   UNL     1       5.351   5.041  17.213  0.00  0.00    +0.000 A 
ATOM      3  C   UNL     1       4.682   6.143  17.745  0.00  0.00    +0.000 A 
ATOM      4  C   UNL     1       3.312   6.110  18.076  0.00  0.00    +0.000 A 
ATOM      5  C   UNL     1       2.719   4.821  17.988  0.00  0.00    +0.000 A 
ATOM      6  C   UNL     1       1.429   4.245  18.203  0.00  0.00    +0.000 A 
ATOM      7  C   UNL     1       1.541   2.869  18.076  0.00  0.00    +0.000 A 
ATOM      8  N   UNL     1       2.831   2.605  17.706  0.00  0.00    +0.000 N 
ATOM      9  C   UNL     1       3.532   3.772  17.592  0.00  0.00    +0.000 A 
ATOM     10  N   UNL     1       4.799   3.823  17.173  0.00  0.00    +0.000 NA
ATOM     11  H   UNL     1       6.815   6.146  16.386  0.00  0.00    +0.000 HD
ATOM     12  H   UNL     1       3.233   1.695  17.537  0.00  0.00    +0.000 HD
ENDROOT
BRANCH   4  13
ATOM     13  C   UNL     1       2.534   7.304  18.528  0.00  0.00    +0.000 A 
ATOM     14  C   UNL     1       2.299   8.341  17.596  0.00  0.00    +0.000 A 
ATOM     15  C   UNL     1       1.635   9.513  17.928  0.00  0.00    +0.000 A 
ATOM     16  C   UNL     1       1.100   9.662  19.194  0.00  0.00    +0.000 A 
ATOM     17  C   UNL     1       1.264   8.655  20.166  0.00  0.00    +0.000 A 
ATOM     18  C   UNL     1       2.016   7.481  19.853  0.00  0.00    +0.000 A 
ATOM     19  C   UNL     1       2.269   6.432  20.915  0.00  0.00    +0.000 C 
BRANCH  17  20
ATOM     20  C   UNL     1       0.570   8.826  21.484  0.00  0.00    +0.000 C 
ATOM     21  O   UNL     1      -0.533   8.372  21.731  0.00  0.00    +0.000 OA
BRANCH  20  22
ATOM     22  O   UNL     1       1.256   9.549  22.399  0.00  0.00    +0.000 OA
ATOM     23  H   UNL     1       2.211   9.655  22.250  0.00  0.00    +0.000 HD
ENDBRANCH  20  22
ENDBRANCH  17  20
ENDBRANCH   4  13
BRANCH   1  24
ATOM     24  C   UNL     1       7.083   4.230  15.754  0.00  0.00    +0.000 C 
BRANCH  24  25
ATOM     25  C   UNL     1       6.756   4.744  14.343  0.00  0.00    +0.000 C 
BRANCH  25  27
ATOM     26  C   UNL     1       6.576   3.655  12.252  0.00  0.00    +0.000 C 
ATOM     27  O   UNL     1       6.116   3.694  13.598  0.00  0.00    +0.000 OA
ENDBRANCH  25  27
ENDBRANCH  24  25
ENDBRANCH   1  24
TORSDOF 6
ENDMDL
MODEL 2
REMARK VINA RESULT:      -7.7      2.821      4.211
REMARK  Name = 
REMARK  8 active torsions:
REMARK  status: ('A' for Active; 'I' for Inactive)
REMARK    1  A    between atoms: C_1  and  O_2
REMARK    2  A    between atoms: O_2  and  C_3
REMARK    3  A    between atoms: C_3  and  C_4
REMARK    4  A    between atoms: C_4  and  N_5
REMARK    5  A    between atoms: C_8  and  C_9
REMARK    6  A    between atoms: C_13  and  C_14
REMARK    7  A    between atoms: C_14  and  O_16
REMARK    8  A    between atoms: C_17  and  C_18
REMARK                            x       y       z     vdW  Elec       q    Type
REMARK                         _______ _______ _______ _____ _____    ______ ____
ROOT
ATOM      1  N   UNL     1       5.233   4.447  14.207  0.00  0.00    +0.000 N 
ATOM      2  C   UNL     1       5.519   4.776  15.545  0.00  0.00    +0.000 A 
ATOM      3  C   UNL     1       4.452   4.935  16.429  0.00  0.00    +0.000 A 
ATOM      4  C   UNL     1       4.638   5.117  17.816  0.00  0.00    +0.000 A 
ATOM      5  C   UNL     1       5.993   5.301  18.206  0.00  0.00    +0.000 A 
ATOM      6  C   UNL     1       6.712   5.518  19.421  0.00  0.00    +0.000 A 
ATOM      7  C   UNL     1       8.040   5.761  19.103  0.00  0.00    +0.000 A 
ATOM      8  N   UNL     1       8.161   5.608  17.749  0.00  0.00    +0.000 N 
ATOM      9  C   UNL     1       6.952   5.273  17.207  0.00  0.00    +0.000 A 
ATOM     10  N   UNL     1       6.788   4.991  15.912  0.00  0.00    +0.000 NA
ATOM     11  H   UNL     1       4.409   3.853  14.144  0.00  0.00    +0.000 HD
ATOM     12  H   UNL     1       9.003   5.722  17.205  0.00  0.00    +0.000 HD
ENDROOT
BRANCH   4  13
ATOM     13  C   UNL     1       3.521   5.165  18.808  0.00  0.00    +0.000 A 
ATOM     14  C   UNL     1       3.011   6.431  19.179  0.00  0.00    +0.000 A 
ATOM     15  C   UNL     1       2.013   6.589  20.129  0.00  0.00    +0.000 A 
ATOM     16  C   UNL     1       1.418   5.474  20.690  0.00  0.00    +0.000 A 
ATOM     17  C   UNL     1       1.851   4.179  20.343  0.00  0.00    +0.000 A 
ATOM     18  C   UNL     1       2.933   4.013  19.425  0.00  0.00    +0.000 A 
ATOM     19  C   UNL     1       3.460   2.629  19.109  0.00  0.00    +0.000 C 
BRANCH  17  20
ATOM     20  C   UNL     1       1.098   3.009  20.902  0.00  0.00    +0.000 C 
ATOM     21  O   UNL     1       1.341   2.504  21.984  0.00  0.00    +0.000 OA
BRANCH  20  22
ATOM     22  O   UNL     1       0.118   2.527  20.104  0.00  0.00    +0.000 OA
ATOM     23  H   UNL     1      -0.215   3.120  19.409  0.00  0.00    +0.000 HD
ENDBRANCH  20  22
ENDBRANCH  17  20
ENDBRANCH   4  13
BRANCH   1  24
ATOM     24  C   UNL     1       6.346   3.764  13.526  0.00  0.00    +0.000 C 
BRANCH  24  25
ATOM     25  C   UNL     1       5.863   3.114  12.219  0.00  0.00    +0.000 C 
BRANCH  25  27
ATOM     26  C   UNL     1       3.808   3.006  11.056  0.00  0.00    +0.000 C 
ATOM     27  O   UNL     1       4.741   3.856  11.712  0.00  0.00    +0.000 OA
ENDBRANCH  25  27
ENDBRANCH  24  25
ENDBRANCH   1  24
TORSDOF 6
ENDMDL
MODEL 3
REMARK VINA RESULT:      -7.4      3.588      5.633
REMARK  Name = 
REMARK  8 active torsions:
REMARK  status: ('A' for Active; 'I' for Inactive)
REMARK    1  A    between atoms: C_1  and  O_2
REMARK    2  A    between atoms: O_2  and  C_3
REMARK    3  A    between atoms: C_3  and  C_4
REMARK    4  A    between atoms: C_4  and  N_5
REMARK    5  A    between atoms: C_8  and  C_9
REMARK    6  A    between atoms: C_13  and  C_14
REMARK    7  A    between atoms: C_14  and  O_16
REMARK    8  A    between atoms: C_17  and  C_18
REMARK                            x       y       z     vdW  Elec       q    Type
REMARK                         _______ _______ _______ _____ _____    ______ ____
ROOT
ATOM      1  N   UNL     1       7.860   7.484  18.536  0.00  0.00    +0.000 N 
ATOM      2  C   UNL     1       7.247   6.513  17.722  0.00  0.00    +0.000 A 
ATOM      3  C   UNL     1       6.340   5.633  18.313  0.00  0.00    +0.000 A 
ATOM      4  C   UNL     1       5.566   4.726  17.559  0.00  0.00    +0.000 A 
ATOM      5  C   UNL     1       5.913   4.662  16.183  0.00  0.00    +0.000 A 
ATOM      6  C   UNL     1       5.477   3.947  15.026  0.00  0.00    +0.000 A 
ATOM      7  C   UNL     1       6.339   4.242  13.981  0.00  0.00    +0.000 A 
ATOM      8  N   UNL     1       7.223   5.177  14.445  0.00  0.00    +0.000 N 
ATOM      9  C   UNL     1       6.941   5.481  15.747  0.00  0.00    +0.000 A 
ATOM     10  N   UNL     1       7.598   6.418  16.434  0.00  0.00    +0.000 NA
ATOM     11  H   UNL     1       7.228   7.799  19.269  0.00  0.00    +0.000 HD
ATOM     12  H   UNL     1       7.982   5.595  13.927  0.00  0.00    +0.000 HD
ENDROOT
BRANCH   4  13
ATOM     13  C   UNL     1       4.496   3.859  18.142  0.00  0.00    +0.000 A 
ATOM     14  C   UNL     1       4.417   2.515  17.709  0.00  0.00    +0.000 A 
ATOM     15  C   UNL     1       3.431   1.642  18.147  0.00  0.00    +0.000 A 
ATOM     16  C   UNL     1       2.528   2.056  19.108  0.00  0.00    +0.000 A 
ATOM     17  C   UNL     1       2.567   3.371  19.612  0.00  0.00    +0.000 A 
ATOM     18  C   UNL     1       3.530   4.297  19.105  0.00  0.00    +0.000 A 
ATOM     19  C   UNL     1       3.527   5.735  19.579  0.00  0.00    +0.000 C 
BRANCH  17  20
ATOM     20  C   UNL     1       1.632   3.728  20.728  0.00  0.00    +0.000 C 
ATOM     21  O   UNL     1       0.582   4.323  20.565  0.00  0.00    +0.000 OA
BRANCH  20  22
ATOM     22  O   UNL     1       2.046   3.354  21.960  0.00  0.00    +0.000 OA
ATOM     23  H   UNL     1       1.437   2.804  22.481  0.00  0.00    +0.000 HD
ENDBRANCH  20  22
ENDBRANCH  17  20
ENDBRANCH   4  13
BRANCH   1  24
ATOM     24  C   UNL     1       8.318   8.666  17.785  0.00  0.00    +0.000 C 
BRANCH  24  25
ATOM     25  C   UNL     1       8.883   9.729  18.742  0.00  0.00    +0.000 C 
BRANCH  25  27
ATOM     26  C   UNL     1       9.272  12.051  18.525  0.00  0.00    +0.000 C 
ATOM     27  O   UNL     1       9.519  10.763  17.973  0.00  0.00    +0.000 OA
ENDBRANCH  25  27
ENDBRANCH  24  25
ENDBRANCH   1  24
TORSDOF 6
ENDMDL
MODEL 4
REMARK VINA RESULT:      -7.4      2.865      4.739
REMARK  Name = 
REMARK  8 active torsions:
REMARK  status: ('A' for Active; 'I' for Inactive)
REMARK    1  A    between atoms: C_1  and  O_2
REMARK    2  A    between atoms: O_2  and  C_3
REMARK    3  A    between atoms: C_3  and  C_4
REMARK    4  A    between atoms: C_4  and  N_5
REMARK    5  A    between atoms: C_8  and  C_9
REMARK    6  A    between atoms: C_13  and  C_14
REMARK    7  A    between atoms: C_14  and  O_16
REMARK    8  A    between atoms: C_17  and  C_18
REMARK                            x       y       z     vdW  Elec       q    Type
REMARK                         _______ _______ _______ _____ _____    ______ ____
ROOT
ATOM      1  N   UNL     1       5.712   3.879  13.570  0.00  0.00    +0.000 N 
ATOM      2  C   UNL     1       5.892   4.450  14.844  0.00  0.00    +0.000 A 
ATOM      3  C   UNL     1       5.055   4.033  15.879  0.00  0.00    +0.000 A 
ATOM      4  C   UNL     1       5.250   4.432  17.217  0.00  0.00    +0.000 A 
ATOM      5  C   UNL     1       6.252   5.424  17.393  0.00  0.00    +0.000 A 
ATOM      6  C   UNL     1       6.826   6.151  18.481  0.00  0.00    +0.000 A 
ATOM      7  C   UNL     1       7.692   7.101  17.960  0.00  0.00    +0.000 A 
ATOM      8  N   UNL     1       7.726   6.911  16.606  0.00  0.00    +0.000 N 
ATOM      9  C   UNL     1       6.912   5.870  16.260  0.00  0.00    +0.000 A 
ATOM     10  N   UNL     1       6.806   5.413  15.010  0.00  0.00    +0.000 NA
ATOM     11  H   UNL     1       5.413   2.909  13.642  0.00  0.00    +0.000 HD
ATOM     12  H   UNL     1       8.260   7.447  15.938  0.00  0.00    +0.000 HD
ENDROOT
BRANCH   4  13
ATOM     13  C   UNL     1       4.452   3.908  18.368  0.00  0.00    +0.000 A 
ATOM     14  C   UNL     1       4.998   2.851  19.134  0.00  0.00    +0.000 A 
ATOM     15  C   UNL     1       4.318   2.259  20.187  0.00  0.00    +0.000 A 
ATOM     16  C   UNL     1       3.089   2.758  20.577  0.00  0.00    +0.000 A 
ATOM     17  C   UNL     1       2.498   3.832  19.883  0.00  0.00    +0.000 A 
ATOM     18  C   UNL     1       3.158   4.393  18.747  0.00  0.00    +0.000 A 
ATOM     19  C   UNL     1       2.493   5.491  17.944  0.00  0.00    +0.000 C 
BRANCH  17  20
ATOM     20  C   UNL     1       1.217   4.398  20.418  0.00  0.00    +0.000 C 
ATOM     21  O   UNL     1       1.132   5.487  20.958  0.00  0.00    +0.000 OA
BRANCH  20  22
ATOM     22  O   UNL     1       0.137   3.597  20.276  0.00  0.00    +0.000 OA
ATOM     23  H   UNL     1      -0.559   3.672  20.951  0.00  0.00    +0.000 HD
ENDBRANCH  20  22
ENDBRANCH  17  20
ENDBRANCH   4  13
BRANCH   1  24
ATOM     24  C   UNL     1       6.926   3.927  12.736  0.00  0.00    +0.000 C 
BRANCH  24  25
ATOM     25  C   UNL     1       6.706   3.164  11.419  0.00  0.00    +0.000 C 
BRANCH  25  27
ATOM     26  C   UNL     1       6.175   0.879  11.128  0.00  0.00    +0.000 C 
ATOM     27  O   UNL     1       5.728   2.133  11.631  0.00  0.00    +0.000 OA
ENDBRANCH  25  27
ENDBRANCH  24  25
ENDBRANCH   1  24
TORSDOF 6
ENDMDL
MODEL 5
REMARK VINA RESULT:      -7.4      3.675      5.732
REMARK  Name = 
REMARK  8 active torsions:
REMARK  status: ('A' for Active; 'I' for Inactive)
REMARK    1  A    between atoms: C_1  and  O_2
REMARK    2  A    between atoms: O_2  and  C_3
REMARK    3  A    between atoms: C_3  and  C_4
REMARK    4  A    between atoms: C_4  and  N_5
REMARK    5  A    between atoms: C_8  and  C_9
REMARK    6  A    between atoms: C_13  and  C_14
REMARK    7  A    between atoms: C_14  and  O_16
REMARK    8  A    between atoms: C_17  and  C_18
REMARK                            x       y       z     vdW  Elec       q    Type
REMARK                         _______ _______ _______ _____ _____    ______ ____
ROOT
ATOM      1  N   UNL     1       8.062   7.550  18.688  0.00  0.00    +0.000 N 
ATOM      2  C   UNL     1       7.341   6.581  17.967  0.00  0.00    +0.000 A 
ATOM      3  C   UNL     1       6.542   5.687  18.679  0.00  0.00    +0.000 A 
ATOM      4  C   UNL     1       5.669   4.779  18.043  0.00  0.00    +0.000 A 
ATOM      5  C   UNL     1       5.803   4.731  16.628  0.00  0.00    +0.000 A 
ATOM      6  C   UNL     1       5.202   4.023  15.543  0.00  0.00    +0.000 A 
ATOM      7  C   UNL     1       5.893   4.337  14.383  0.00  0.00    +0.000 A 
ATOM      8  N   UNL     1       6.829   5.276  14.717  0.00  0.00    +0.000 N 
ATOM      9  C   UNL     1       6.746   5.565  16.050  0.00  0.00    +0.000 A 
ATOM     10  N   UNL     1       7.492   6.502  16.640  0.00  0.00    +0.000 NA
ATOM     11  H   UNL     1       7.547   7.852  19.513  0.00  0.00    +0.000 HD
ATOM     12  H   UNL     1       7.497   5.706  14.094  0.00  0.00    +0.000 HD
ENDROOT
BRANCH   4  13
ATOM     13  C   UNL     1       4.708   3.896  18.772  0.00  0.00    +0.000 A 
ATOM     14  C   UNL     1       5.234   2.874  19.596  0.00  0.00    +0.000 A 
ATOM     15  C   UNL     1       4.431   1.968  20.273  0.00  0.00    +0.000 A 
ATOM     16  C   UNL     1       3.055   2.100  20.222  0.00  0.00    +0.000 A 
ATOM     17  C   UNL     1       2.460   3.117  19.449  0.00  0.00    +0.000 A 
ATOM     18  C   UNL     1       3.282   4.002  18.686  0.00  0.00    +0.000 A 
ATOM     19  C   UNL     1       2.650   5.044  17.787  0.00  0.00    +0.000 C 
BRANCH  17  20
ATOM     20  C   UNL     1       0.971   3.276  19.518  0.00  0.00    +0.000 C 
ATOM     21  O   UNL     1       0.191   2.650  18.822  0.00  0.00    +0.000 OA
BRANCH  20  22
ATOM     22  O   UNL     1       0.537   4.195  20.411  0.00  0.00    +0.000 OA
ATOM     23  H   UNL     1       1.217   4.695  20.894  0.00  0.00    +0.000 HD
ENDBRANCH  20  22
ENDBRANCH  17  20
ENDBRANCH   4  13
BRANCH   1  24
ATOM     24  C   UNL     1       8.392   8.743  17.889  0.00  0.00    +0.000 C 
BRANCH  24  25
ATOM     25  C   UNL     1       8.914   9.872  18.793  0.00  0.00    +0.000 C 
BRANCH  25  27
ATOM     26  C   UNL     1       9.003  12.055  17.890  0.00  0.00    +0.000 C 
ATOM     27  O   UNL     1       9.668  10.801  17.997  0.00  0.00    +0.000 OA
ENDBRANCH  25  27
ENDBRANCH  24  25
ENDBRANCH   1  24
TORSDOF 6
ENDMDL
MODEL 6
REMARK VINA RESULT:      -7.3      1.601      2.333
REMARK  Name = 
REMARK  8 active torsions:
REMARK  status: ('A' for Active; 'I' for Inactive)
REMARK    1  A    between atoms: C_1  and  O_2
REMARK    2  A    between atoms: O_2  and  C_3
REMARK    3  A    between atoms: C_3  and  C_4
REMARK    4  A    between atoms: C_4  and  N_5
REMARK    5  A    between atoms: C_8  and  C_9
REMARK    6  A    between atoms: C_13  and  C_14
REMARK    7  A    between atoms: C_14  and  O_16
REMARK    8  A    between atoms: C_17  and  C_18
REMARK                            x       y       z     vdW  Elec       q    Type
REMARK                         _______ _______ _______ _____ _____    ______ ____
ROOT
ATOM      1  N   UNL     1       6.735   5.261  18.339  0.00  0.00    +0.000 N 
ATOM      2  C   UNL     1       5.365   5.016  18.552  0.00  0.00    +0.000 A 
ATOM      3  C   UNL     1       4.585   6.044  19.083  0.00  0.00    +0.000 A 
ATOM      4  C   UNL     1       3.183   5.949  19.194  0.00  0.00    +0.000 A 
ATOM      5  C   UNL     1       2.656   4.665  18.889  0.00  0.00    +0.000 A 
ATOM      6  C   UNL     1       1.370   4.044  18.844  0.00  0.00    +0.000 A 
ATOM      7  C   UNL     1       1.548   2.691  18.600  0.00  0.00    +0.000 A 
ATOM      8  N   UNL     1       2.888   2.493  18.408  0.00  0.00    +0.000 N 
ATOM      9  C   UNL     1       3.556   3.679  18.519  0.00  0.00    +0.000 A 
ATOM     10  N   UNL     1       4.869   3.798  18.307  0.00  0.00    +0.000 NA
ATOM     11  H   UNL     1       6.897   6.230  18.074  0.00  0.00    +0.000 HD
ATOM     12  H   UNL     1       3.343   1.613  18.214  0.00  0.00    +0.000 HD
ENDROOT
BRANCH   4  13
ATOM     13  C   UNL     1       2.304   7.074  19.638  0.00  0.00    +0.000 A 
ATOM     14  C   UNL     1       1.722   6.999  20.925  0.00  0.00    +0.000 A 
ATOM     15  C   UNL     1       0.851   7.962  21.413  0.00  0.00    +0.000 A 
ATOM     16  C   UNL     1       0.589   9.092  20.661  0.00  0.00    +0.000 A 
ATOM     17  C   UNL     1       1.161   9.253  19.383  0.00  0.00    +0.000 A 
ATOM     18  C   UNL     1       1.994   8.226  18.844  0.00  0.00    +0.000 A 
ATOM     19  C   UNL     1       2.545   8.351  17.439  0.00  0.00    +0.000 C 
BRANCH  17  20
ATOM     20  C   UNL     1       0.926  10.546  18.662  0.00  0.00    +0.000 C 
ATOM     21  O   UNL     1       1.609  11.543  18.821  0.00  0.00    +0.000 OA
BRANCH  20  22
ATOM     22  O   UNL     1      -0.130  10.544  17.817  0.00  0.00    +0.000 OA
ATOM     23  H   UNL     1       0.039  10.260  16.903  0.00  0.00    +0.000 HD
ENDBRANCH  20  22
ENDBRANCH  17  20
ENDBRANCH   4  13
BRANCH   1  24
ATOM     24  C   UNL     1       7.325   4.395  17.304  0.00  0.00    +0.000 C 
BRANCH  24  25
ATOM     25  C   UNL     1       6.936   4.888  15.901  0.00  0.00    +0.000 C 
BRANCH  25  27
ATOM     26  C   UNL     1       6.300   4.064  13.778  0.00  0.00    +0.000 C 
ATOM     27  O   UNL     1       6.320   3.809  15.178  0.00  0.00    +0.000 OA
ENDBRANCH  25  27
ENDBRANCH  24  25
ENDBRANCH   1  24
TORSDOF 6
ENDMDL
MODEL 7
REMARK VINA RESULT:      -7.3      2.853      4.327
REMARK  Name = 
REMARK  8 active torsions:
REMARK  status: ('A' for Active; 'I' for Inactive)
REMARK    1  A    between atoms: C_1  and  O_2
REMARK    2  A    between atoms: O_2  and  C_3
REMARK    3  A    between atoms: C_3  and  C_4
REMARK    4  A    between atoms: C_4  and  N_5
REMARK    5  A    between atoms: C_8  and  C_9
REMARK    6  A    between atoms: C_13  and  C_14
REMARK    7  A    between atoms: C_14  and  O_16
REMARK    8  A    between atoms: C_17  and  C_18
REMARK                            x       y       z     vdW  Elec       q    Type
REMARK                         _______ _______ _______ _____ _____    ______ ____
ROOT
ATOM      1  N   UNL     1       5.191   3.956  13.941  0.00  0.00    +0.000 N 
ATOM      2  C   UNL     1       5.466   4.677  15.118  0.00  0.00    +0.000 A 
ATOM      3  C   UNL     1       4.474   4.749  16.096  0.00  0.00    +0.000 A 
ATOM      4  C   UNL     1       4.703   5.319  17.366  0.00  0.00    +0.000 A 
ATOM      5  C   UNL     1       5.961   5.966  17.500  0.00  0.00    +0.000 A 
ATOM      6  C   UNL     1       6.671   6.675  18.516  0.00  0.00    +0.000 A 
ATOM      7  C   UNL     1       7.831   7.191  17.958  0.00  0.00    +0.000 A 
ATOM      8  N   UNL     1       7.887   6.743  16.667  0.00  0.00    +0.000 N 
ATOM      9  C   UNL     1       6.801   5.958  16.398  0.00  0.00    +0.000 A 
ATOM     10  N   UNL     1       6.631   5.324  15.235  0.00  0.00    +0.000 NA
ATOM     11  H   UNL     1       4.588   3.159  14.133  0.00  0.00    +0.000 HD
ATOM     12  H   UNL     1       8.608   6.947  15.992  0.00  0.00    +0.000 HD
ENDROOT
BRANCH   4  13
ATOM     13  C   UNL     1       3.706   5.300  18.480  0.00  0.00    +0.000 A 
ATOM     14  C   UNL     1       3.014   6.497  18.777  0.00  0.00    +0.000 A 
ATOM     15  C   UNL     1       2.109   6.601  19.823  0.00  0.00    +0.000 A 
ATOM     16  C   UNL     1       1.792   5.481  20.569  0.00  0.00    +0.000 A 
ATOM     17  C   UNL     1       2.416   4.245  20.308  0.00  0.00    +0.000 A 
ATOM     18  C   UNL     1       3.407   4.152  19.284  0.00  0.00    +0.000 A 
ATOM     19  C   UNL     1       4.144   2.849  19.051  0.00  0.00    +0.000 C 
BRANCH  17  20
ATOM     20  C   UNL     1       1.953   3.044  21.077  0.00  0.00    +0.000 C 
ATOM     21  O   UNL     1       1.149   2.235  20.648  0.00  0.00    +0.000 OA
BRANCH  20  22
ATOM     22  O   UNL     1       2.483   2.922  22.315  0.00  0.00    +0.000 OA
ATOM     23  H   UNL     1       2.681   2.021  22.622  0.00  0.00    +0.000 HD
ENDBRANCH  20  22
ENDBRANCH  17  20
ENDBRANCH   4  13
BRANCH   1  24
ATOM     24  C   UNL     1       6.404   3.463  13.265  0.00  0.00    +0.000 C 
BRANCH  24  25
ATOM     25  C   UNL     1       6.149   3.286  11.759  0.00  0.00    +0.000 C 
BRANCH  25  27
ATOM     26  C   UNL     1       6.277   1.014  11.118  0.00  0.00    +0.000 C 
ATOM     27  O   UNL     1       5.420   2.065  11.547  0.00  0.00    +0.000 OA
ENDBRANCH  25  27
ENDBRANCH  24  25
ENDBRANCH   1  24
TORSDOF 6
ENDMDL
MODEL 8
REMARK VINA RESULT:      -7.2      2.594      7.473
REMARK  Name = 
REMARK  8 active torsions:
REMARK  status: ('A' for Active; 'I' for Inactive)
REMARK    1  A    between atoms: C_1  and  O_2
REMARK    2  A    between atoms: O_2  and  C_3
REMARK    3  A    between atoms: C_3  and  C_4
REMARK    4  A    between atoms: C_4  and  N_5
REMARK    5  A    between atoms: C_8  and  C_9
REMARK    6  A    between atoms: C_13  and  C_14
REMARK    7  A    between atoms: C_14  and  O_16
REMARK    8  A    between atoms: C_17  and  C_18
REMARK                            x       y       z     vdW  Elec       q    Type
REMARK                         _______ _______ _______ _____ _____    ______ ____
ROOT
ATOM      1  N   UNL     1       1.403   8.181  20.200  0.00  0.00    +0.000 N 
ATOM      2  C   UNL     1       1.961   6.892  20.124  0.00  0.00    +0.000 A 
ATOM      3  C   UNL     1       3.125   6.719  19.375  0.00  0.00    +0.000 A 
ATOM      4  C   UNL     1       3.841   5.504  19.359  0.00  0.00    +0.000 A 
ATOM      5  C   UNL     1       3.187   4.429  20.020  0.00  0.00    +0.000 A 
ATOM      6  C   UNL     1       3.448   3.051  20.289  0.00  0.00    +0.000 A 
ATOM      7  C   UNL     1       2.320   2.501  20.877  0.00  0.00    +0.000 A 
ATOM      8  N   UNL     1       1.424   3.519  21.052  0.00  0.00    +0.000 N 
ATOM      9  C   UNL     1       1.955   4.692  20.597  0.00  0.00    +0.000 A 
ATOM     10  N   UNL     1       1.330   5.867  20.709  0.00  0.00    +0.000 NA
ATOM     11  H   UNL     1       2.127   8.896  20.188  0.00  0.00    +0.000 HD
ATOM     12  H   UNL     1       0.500   3.444  21.453  0.00  0.00    +0.000 HD
ENDROOT
BRANCH   4  13
ATOM     13  C   UNL     1       5.156   5.320  18.672  0.00  0.00    +0.000 A 
ATOM     14  C   UNL     1       6.335   5.412  19.448  0.00  0.00    +0.000 A 
ATOM     15  C   UNL     1       7.605   5.310  18.901  0.00  0.00    +0.000 A 
ATOM     16  C   UNL     1       7.750   5.024  17.556  0.00  0.00    +0.000 A 
ATOM     17  C   UNL     1       6.620   4.884  16.726  0.00  0.00    +0.000 A 
ATOM     18  C   UNL     1       5.312   5.068  17.270  0.00  0.00    +0.000 A 
ATOM     19  C   UNL     1       4.095   5.003  16.370  0.00  0.00    +0.000 C 
BRANCH  17  20
ATOM     20  C   UNL     1       6.837   4.470  15.302  0.00  0.00    +0.000 C 
ATOM     21  O   UNL     1       6.360   3.462  14.811  0.00  0.00    +0.000 OA
BRANCH  20  22
ATOM     22  O   UNL     1       7.630   5.296  14.582  0.00  0.00    +0.000 OA
ATOM     23  H   UNL     1       8.385   5.696  15.047  0.00  0.00    +0.000 HD
ENDBRANCH  20  22
ENDBRANCH  17  20
ENDBRANCH   4  13
BRANCH   1  24
ATOM     24  C   UNL     1       0.573   8.386  21.400  0.00  0.00    +0.000 C 
BRANCH  24  25
ATOM     25  C   UNL     1       1.280   9.325  22.392  0.00  0.00    +0.000 C 
BRANCH  25  27
ATOM     26  C   UNL     1      -0.794  10.199  23.117  0.00  0.00    +0.000 C 
ATOM     27  O   UNL     1       0.482  10.508  22.567  0.00  0.00    +0.000 OA
ENDBRANCH  25  27
ENDBRANCH  24  25
ENDBRANCH   1  24
TORSDOF 6
ENDMDL
MODEL 9
REMARK VINA RESULT:      -7.1      2.874      4.747
REMARK  Name = 
REMARK  8 active torsions:
REMARK  status: ('A' for Active; 'I' for Inactive)
REMARK    1  A    between atoms: C_1  and  O_2
REMARK    2  A    between atoms: O_2  and  C_3
REMARK    3  A    between atoms: C_3  and  C_4
REMARK    4  A    between atoms: C_4  and  N_5
REMARK    5  A    between atoms: C_8  and  C_9
REMARK    6  A    between atoms: C_13  and  C_14
REMARK    7  A    between atoms: C_14  and  O_16
REMARK    8  A    between atoms: C_17  and  C_18
REMARK                            x       y       z     vdW  Elec       q    Type
REMARK                         _______ _______ _______ _____ _____    ______ ____
ROOT
ATOM      1  N   UNL     1       5.637   3.861  12.943  0.00  0.00    +0.000 N 
ATOM      2  C   UNL     1       5.780   4.320  14.265  0.00  0.00    +0.000 A 
ATOM      3  C   UNL     1       4.863   3.882  15.220  0.00  0.00    +0.000 A 
ATOM      4  C   UNL     1       5.008   4.165  16.594  0.00  0.00    +0.000 A 
ATOM      5  C   UNL     1       6.058   5.074  16.898  0.00  0.00    +0.000 A 
ATOM      6  C   UNL     1       6.614   5.677  18.067  0.00  0.00    +0.000 A 
ATOM      7  C   UNL     1       7.563   6.606  17.668  0.00  0.00    +0.000 A 
ATOM      8  N   UNL     1       7.660   6.518  16.306  0.00  0.00    +0.000 N 
ATOM      9  C   UNL     1       6.805   5.560  15.838  0.00  0.00    +0.000 A 
ATOM     10  N   UNL     1       6.740   5.208  14.552  0.00  0.00    +0.000 NA
ATOM     11  H   UNL     1       5.276   2.909  12.923  0.00  0.00    +0.000 HD
ATOM     12  H   UNL     1       8.262   7.067  15.710  0.00  0.00    +0.000 HD
ENDROOT
BRANCH   4  13
ATOM     13  C   UNL     1       4.117   3.608  17.659  0.00  0.00    +0.000 A 
ATOM     14  C   UNL     1       4.124   2.210  17.871  0.00  0.00    +0.000 A 
ATOM     15  C   UNL     1       3.298   1.587  18.795  0.00  0.00    +0.000 A 
ATOM     16  C   UNL     1       2.486   2.351  19.612  0.00  0.00    +0.000 A 
ATOM     17  C   UNL     1       2.452   3.754  19.482  0.00  0.00    +0.000 A 
ATOM     18  C   UNL     1       3.241   4.392  18.477  0.00  0.00    +0.000 A 
ATOM     19  C   UNL     1       3.149   5.890  18.273  0.00  0.00    +0.000 C 
BRANCH  17  20
ATOM     20  C   UNL     1       1.634   4.534  20.466  0.00  0.00    +0.000 C 
ATOM     21  O   UNL     1       0.420   4.623  20.417  0.00  0.00    +0.000 OA
BRANCH  20  22
ATOM     22  O   UNL     1       2.348   5.166  21.426  0.00  0.00    +0.000 OA
ATOM     23  H   UNL     1       3.208   5.537  21.163  0.00  0.00    +0.000 HD
ENDBRANCH  20  22
ENDBRANCH  17  20
ENDBRANCH   4  13
BRANCH   1  24
ATOM     24  C   UNL     1       6.895   3.893  12.177  0.00  0.00    +0.000 C 
BRANCH  24  25
ATOM     25  C   UNL     1       7.157   2.532  11.510  0.00  0.00    +0.000 C 
BRANCH  25  27
ATOM     26  C   UNL     1       6.129   0.439  11.121  0.00  0.00    +0.000 C 
ATOM     27  O   UNL     1       5.914   1.818  11.397  0.00  0.00    +0.000 OA
ENDBRANCH  25  27
ENDBRANCH  24  25
ENDBRANCH   1  24
TORSDOF 6
ENDMDL
