MODEL 1
REMARK VINA RESULT:      -8.3      0.000      0.000
REMARK  Name = 
REMARK  6 active torsions:
REMARK  status: ('A' for Active; 'I' for Inactive)
REMARK    1  A    between atoms: C_2  and  C_3
REMARK    2  A    between atoms: C_3  and  N_4
REMARK    3  A    between atoms: C_9  and  C_10
REMARK    4  A    between atoms: C_15  and  C_16
REMARK    5  A    between atoms: C_18  and  O_19
REMARK    6  A    between atoms: O_19  and  C_20
REMARK                            x       y       z     vdW  Elec       q    Type
REMARK                         _______ _______ _______ _____ _____    ______ ____
ROOT
ATOM      1  N   UNL     1       3.048   4.103  20.233  0.00  0.00    +0.000 N 
ATOM      2  C   UNL     1       4.312   3.826  19.695  0.00  0.00    +0.000 C 
ATOM      3  O   UNL     1       4.832   2.710  19.735  0.00  0.00    +0.000 OA
ATOM      4  N   UNL     1       4.902   4.876  18.988  0.00  0.00    +0.000 N 
ATOM      5  C   UNL     1       5.958   4.604  18.068  0.00  0.00    +0.000 C 
ATOM      6  C   UNL     1       5.101   4.516  16.825  0.00  0.00    +0.000 C 
ATOM      7  C   UNL     1       5.877   4.395  15.542  0.00  0.00    +0.000 C 
ATOM      8  N   UNL     1       4.172   5.720  16.987  0.00  0.00    +0.000 NA
ATOM      9  C   UNL     1       4.038   5.704  18.291  0.00  0.00    +0.000 C 
ATOM     10  C   UNL     1       3.033   6.229  19.143  0.00  0.00    +0.000 A 
ATOM     11  N   UNL     1       2.438   7.434  19.419  0.00  0.00    +0.000 N 
ATOM     12  C   UNL     1       1.655   7.227  20.553  0.00  0.00    +0.000 A 
ATOM     13  N   UNL     1       1.589   5.948  20.874  0.00  0.00    +0.000 NA
ATOM     14  C   UNL     1       2.547   5.375  20.097  0.00  0.00    +0.000 A 
ATOM     15  H   UNL     1       2.665   8.334  19.008  0.00  0.00    +0.000 HD
ENDROOT
BRANCH  12  16
ATOM     16  C   UNL     1       1.106   8.235  21.409  0.00  0.00    +0.000 A 
ATOM     17  C   UNL     1      -0.235   8.539  21.577  0.00  0.00    +0.000 A 
ATOM     18  C   UNL     1      -0.256   9.508  22.586  0.00  0.00    +0.000 A 
ATOM     19  N   UNL     1       0.970   9.811  23.016  0.00  0.00    +0.000 NA
ATOM     20  O   UNL     1       1.827   9.006  22.277  0.00  0.00    +0.000 OA
BRANCH  18  21
ATOM     21  O   UNL     1      -1.272  10.159  23.195  0.00  0.00    +0.000 OA
ATOM     22  C   UNL     1      -1.274  11.566  22.994  0.00  0.00    +0.000 C 
ENDBRANCH  18  21
ENDBRANCH  12  16
BRANCH   1  23
ATOM     23  C   UNL     1       2.262   3.033  20.801  0.00  0.00    +0.000 C 
BRANCH  23  25
ATOM     24  C   UNL     1       0.777   2.688  18.828  0.00  0.00    +0.000 C 
ATOM     25  C   UNL     1       1.667   2.210  19.709  0.00  0.00    +0.000 C 
ENDBRANCH  23  25
ENDBRANCH   1  23
TORSDOF 4
ENDMDL
MODEL 2
REMARK VINA RESULT:      -8.0      1.167      1.204
REMARK  Name = 
REMARK  6 active torsions:
REMARK  status: ('A' for Active; 'I' for Inactive)
REMARK    1  A    between atoms: C_2  and  C_3
REMARK    2  A    between atoms: C_3  and  N_4
REMARK    3  A    between atoms: C_9  and  C_10
REMARK    4  A    between atoms: C_15  and  C_16
REMARK    5  A    between atoms: C_18  and  O_19
REMARK    6  A    between atoms: O_19  and  C_20
REMARK                            x       y       z     vdW  Elec       q    Type
REMARK                         _______ _______ _______ _____ _____    ______ ____
ROOT
ATOM      1  N   UNL     1       3.652   4.631  19.657  0.00  0.00    +0.000 N 
ATOM      2  C   UNL     1       4.964   4.436  19.204  0.00  0.00    +0.000 C 
ATOM      3  O   UNL     1       5.581   3.381  19.359  0.00  0.00    +0.000 OA
ATOM      4  N   UNL     1       5.494   5.480  18.444  0.00  0.00    +0.000 N 
ATOM      5  C   UNL     1       6.620   5.242  17.600  0.00  0.00    +0.000 C 
ATOM      6  C   UNL     1       5.845   4.978  16.329  0.00  0.00    +0.000 C 
ATOM      7  C   UNL     1       6.699   4.834  15.098  0.00  0.00    +0.000 C 
ATOM      8  N   UNL     1       4.802   6.096  16.349  0.00  0.00    +0.000 NA
ATOM      9  C   UNL     1       4.598   6.167  17.641  0.00  0.00    +0.000 C 
ATOM     10  C   UNL     1       3.504   6.658  18.399  0.00  0.00    +0.000 A 
ATOM     11  N   UNL     1       2.787   7.817  18.547  0.00  0.00    +0.000 N 
ATOM     12  C   UNL     1       1.964   7.623  19.655  0.00  0.00    +0.000 A 
ATOM     13  N   UNL     1       1.998   6.372  20.075  0.00  0.00    +0.000 NA
ATOM     14  C   UNL     1       3.046   5.836  19.394  0.00  0.00    +0.000 A 
ATOM     15  H   UNL     1       2.952   8.701  18.076  0.00  0.00    +0.000 HD
ENDROOT
BRANCH  12  16
ATOM     16  C   UNL     1       1.279   8.636  20.399  0.00  0.00    +0.000 A 
ATOM     17  C   UNL     1       1.026   8.636  21.761  0.00  0.00    +0.000 A 
ATOM     18  C   UNL     1       0.433   9.879  22.013  0.00  0.00    +0.000 A 
ATOM     19  N   UNL     1       0.304  10.606  20.903  0.00  0.00    +0.000 NA
ATOM     20  O   UNL     1       0.839   9.825  19.887  0.00  0.00    +0.000 OA
BRANCH  18  21
ATOM     21  O   UNL     1      -0.000  10.460  23.154  0.00  0.00    +0.000 OA
ATOM     22  C   UNL     1      -1.228  11.165  23.024  0.00  0.00    +0.000 C 
ENDBRANCH  18  21
ENDBRANCH  12  16
BRANCH   1  23
ATOM     23  C   UNL     1       2.937   3.538  20.271  0.00  0.00    +0.000 C 
BRANCH  23  25
ATOM     24  C   UNL     1       0.789   2.699  19.323  0.00  0.00    +0.000 C 
ATOM     25  C   UNL     1       2.120   2.830  19.243  0.00  0.00    +0.000 C 
ENDBRANCH  23  25
ENDBRANCH   1  23
TORSDOF 4
ENDMDL
MODEL 3
REMARK VINA RESULT:      -7.6      2.205      2.365
REMARK  Name = 
REMARK  6 active torsions:
REMARK  status: ('A' for Active; 'I' for Inactive)
REMARK    1  A    between atoms: C_2  and  C_3
REMARK    2  A    between atoms: C_3  and  N_4
REMARK    3  A    between atoms: C_9  and  C_10
REMARK    4  A    between atoms: C_15  and  C_16
REMARK    5  A    between atoms: C_18  and  O_19
REMARK    6  A    between atoms: O_19  and  C_20
REMARK                            x       y       z     vdW  Elec       q    Type
REMARK                         _______ _______ _______ _____ _____    ______ ____
ROOT
ATOM      1  N   UNL     1       3.968   5.222  19.258  0.00  0.00    +0.000 N 
ATOM      2  C   UNL     1       5.294   4.999  18.864  0.00  0.00    +0.000 C 
ATOM      3  O   UNL     1       5.945   4.012  19.211  0.00  0.00    +0.000 OA
ATOM      4  N   UNL     1       5.802   5.912  17.937  0.00  0.00    +0.000 N 
ATOM      5  C   UNL     1       6.952   5.570  17.164  0.00  0.00    +0.000 C 
ATOM      6  C   UNL     1       6.211   5.057  15.950  0.00  0.00    +0.000 C 
ATOM      7  C   UNL     1       7.093   4.730  14.775  0.00  0.00    +0.000 C 
ATOM      8  N   UNL     1       5.130   6.121  15.757  0.00  0.00    +0.000 NA
ATOM      9  C   UNL     1       4.899   6.411  17.014  0.00  0.00    +0.000 C 
ATOM     10  C   UNL     1       3.774   6.987  17.658  0.00  0.00    +0.000 A 
ATOM     11  N   UNL     1       3.015   8.127  17.590  0.00  0.00    +0.000 N 
ATOM     12  C   UNL     1       2.178   8.101  18.704  0.00  0.00    +0.000 A 
ATOM     13  N   UNL     1       2.247   6.945  19.340  0.00  0.00    +0.000 NA
ATOM     14  C   UNL     1       3.326   6.337  18.778  0.00  0.00    +0.000 A 
ATOM     15  H   UNL     1       3.159   8.919  16.972  0.00  0.00    +0.000 HD
ENDROOT
BRANCH  12  16
ATOM     16  C   UNL     1       1.444   9.203  19.248  0.00  0.00    +0.000 A 
ATOM     17  C   UNL     1       0.992  10.318  18.561  0.00  0.00    +0.000 A 
ATOM     18  C   UNL     1       0.247  11.038  19.503  0.00  0.00    +0.000 A 
ATOM     19  N   UNL     1       0.236  10.441  20.695  0.00  0.00    +0.000 NA
ATOM     20  O   UNL     1       0.987   9.284  20.534  0.00  0.00    +0.000 OA
BRANCH  18  21
ATOM     21  O   UNL     1      -0.457  12.188  19.411  0.00  0.00    +0.000 OA
ATOM     22  C   UNL     1      -1.281  12.281  18.256  0.00  0.00    +0.000 C 
ENDBRANCH  18  21
ENDBRANCH  12  16
BRANCH   1  23
ATOM     23  C   UNL     1       3.280   4.228  20.047  0.00  0.00    +0.000 C 
BRANCH  23  25
ATOM     24  C   UNL     1       1.079   3.106  19.709  0.00  0.00    +0.000 C 
ATOM     25  C   UNL     1       2.240   3.555  19.215  0.00  0.00    +0.000 C 
ENDBRANCH  23  25
ENDBRANCH   1  23
TORSDOF 4
ENDMDL
MODEL 4
REMARK VINA RESULT:      -7.5      1.624      1.993
REMARK  Name = 
REMARK  6 active torsions:
REMARK  status: ('A' for Active; 'I' for Inactive)
REMARK    1  A    between atoms: C_2  and  C_3
REMARK    2  A    between atoms: C_3  and  N_4
REMARK    3  A    between atoms: C_9  and  C_10
REMARK    4  A    between atoms: C_15  and  C_16
REMARK    5  A    between atoms: C_18  and  O_19
REMARK    6  A    between atoms: O_19  and  C_20
REMARK                            x       y       z     vdW  Elec       q    Type
REMARK                         _______ _______ _______ _____ _____    ______ ____
ROOT
ATOM      1  N   UNL     1       3.049   4.378  17.858  0.00  0.00    +0.000 N 
ATOM      2  C   UNL     1       4.338   3.919  17.556  0.00  0.00    +0.000 C 
ATOM      3  O   UNL     1       4.608   2.730  17.377  0.00  0.00    +0.000 OA
ATOM      4  N   UNL     1       5.291   4.918  17.340  0.00  0.00    +0.000 N 
ATOM      5  C   UNL     1       6.494   4.609  16.638  0.00  0.00    +0.000 C 
ATOM      6  C   UNL     1       6.025   5.042  15.268  0.00  0.00    +0.000 C 
ATOM      7  C   UNL     1       7.096   5.032  14.211  0.00  0.00    +0.000 C 
ATOM      8  N   UNL     1       5.330   6.371  15.569  0.00  0.00    +0.000 NA
ATOM      9  C   UNL     1       4.832   6.081  16.746  0.00  0.00    +0.000 C 
ATOM     10  C   UNL     1       3.743   6.631  17.471  0.00  0.00    +0.000 A 
ATOM     11  N   UNL     1       3.331   7.848  17.952  0.00  0.00    +0.000 N 
ATOM     12  C   UNL     1       2.234   7.587  18.772  0.00  0.00    +0.000 A 
ATOM     13  N   UNL     1       1.841   6.330  18.676  0.00  0.00    +0.000 NA
ATOM     14  C   UNL     1       2.856   5.731  17.997  0.00  0.00    +0.000 A 
ATOM     15  H   UNL     1       3.829   8.730  17.887  0.00  0.00    +0.000 HD
ENDROOT
BRANCH  12  16
ATOM     16  C   UNL     1       1.664   8.470  19.744  0.00  0.00    +0.000 A 
ATOM     17  C   UNL     1       1.471   8.207  21.090  0.00  0.00    +0.000 A 
ATOM     18  C   UNL     1       0.990   9.410  21.622  0.00  0.00    +0.000 A 
ATOM     19  N   UNL     1       0.869  10.356  20.691  0.00  0.00    +0.000 NA
ATOM     20  O   UNL     1       1.297   9.766  19.508  0.00  0.00    +0.000 OA
BRANCH  18  21
ATOM     21  O   UNL     1       0.654   9.772  22.880  0.00  0.00    +0.000 OA
ATOM     22  C   UNL     1      -0.659  10.301  23.008  0.00  0.00    +0.000 C 
ENDBRANCH  18  21
ENDBRANCH  12  16
BRANCH   1  23
ATOM     23  C   UNL     1       1.949   3.444  17.895  0.00  0.00    +0.000 C 
BRANCH  23  25
ATOM     24  C   UNL     1       0.806   3.137  20.090  0.00  0.00    +0.000 C 
ATOM     25  C   UNL     1       1.825   2.865  19.264  0.00  0.00    +0.000 C 
ENDBRANCH  23  25
ENDBRANCH   1  23
TORSDOF 4
ENDMDL
MODEL 5
REMARK VINA RESULT:      -7.3      1.208      1.227
REMARK  Name = 
REMARK  6 active torsions:
REMARK  status: ('A' for Active; 'I' for Inactive)
REMARK    1  A    between atoms: C_2  and  C_3
REMARK    2  A    between atoms: C_3  and  N_4
REMARK    3  A    between atoms: C_9  and  C_10
REMARK    4  A    between atoms: C_15  and  C_16
REMARK    5  A    between atoms: C_18  and  O_19
REMARK    6  A    between atoms: O_19  and  C_20
REMARK                            x       y       z     vdW  Elec       q    Type
REMARK                         _______ _______ _______ _____ _____    ______ ____
ROOT
ATOM      1  N   UNL     1       2.822   5.212  20.075  0.00  0.00    +0.000 N 
ATOM      2  C   UNL     1       4.102   4.924  19.581  0.00  0.00    +0.000 C 
ATOM      3  O   UNL     1       4.645   3.826  19.712  0.00  0.00    +0.000 OA
ATOM      4  N   UNL     1       4.683   5.931  18.808  0.00  0.00    +0.000 N 
ATOM      5  C   UNL     1       5.761   5.616  17.928  0.00  0.00    +0.000 C 
ATOM      6  C   UNL     1       4.930   5.418  16.681  0.00  0.00    +0.000 C 
ATOM      7  C   UNL     1       5.732   5.219  15.424  0.00  0.00    +0.000 C 
ATOM      8  N   UNL     1       3.972   6.609  16.738  0.00  0.00    +0.000 NA
ATOM      9  C   UNL     1       3.815   6.686  18.036  0.00  0.00    +0.000 C 
ATOM     10  C   UNL     1       2.784   7.251  18.830  0.00  0.00    +0.000 A 
ATOM     11  N   UNL     1       2.159   8.459  19.006  0.00  0.00    +0.000 N 
ATOM     12  C   UNL     1       1.359   8.319  20.139  0.00  0.00    +0.000 A 
ATOM     13  N   UNL     1       1.314   7.066  20.552  0.00  0.00    +0.000 NA
ATOM     14  C   UNL     1       2.298   6.459  19.836  0.00  0.00    +0.000 A 
ATOM     15  H   UNL     1       2.374   9.332  18.533  0.00  0.00    +0.000 HD
ENDROOT
BRANCH  12  16
ATOM     16  C   UNL     1       0.773   9.374  20.908  0.00  0.00    +0.000 A 
ATOM     17  C   UNL     1      -0.103   9.237  21.972  0.00  0.00    +0.000 A 
ATOM     18  C   UNL     1      -0.295  10.540  22.445  0.00  0.00    +0.000 A 
ATOM     19  N   UNL     1       0.388  11.438  21.734  0.00  0.00    +0.000 NA
ATOM     20  O   UNL     1       1.064  10.703  20.768  0.00  0.00    +0.000 OA
BRANCH  18  21
ATOM     21  O   UNL     1      -1.017  11.030  23.478  0.00  0.00    +0.000 OA
ATOM     22  C   UNL     1      -2.140  11.811  23.092  0.00  0.00    +0.000 C 
ENDBRANCH  18  21
ENDBRANCH  12  16
BRANCH   1  23
ATOM     23  C   UNL     1       2.049   4.170  20.707  0.00  0.00    +0.000 C 
BRANCH  23  25
ATOM     24  C   UNL     1       0.958   2.439  19.282  0.00  0.00    +0.000 C 
ATOM     25  C   UNL     1       0.994   3.686  19.770  0.00  0.00    +0.000 C 
ENDBRANCH  23  25
ENDBRANCH   1  23
TORSDOF 4
ENDMDL
MODEL 6
REMARK VINA RESULT:      -6.9      2.579      4.065
REMARK  Name = 
REMARK  6 active torsions:
REMARK  status: ('A' for Active; 'I' for Inactive)
REMARK    1  A    between atoms: C_2  and  C_3
REMARK    2  A    between atoms: C_3  and  N_4
REMARK    3  A    between atoms: C_9  and  C_10
REMARK    4  A    between atoms: C_15  and  C_16
REMARK    5  A    between atoms: C_18  and  O_19
REMARK    6  A    between atoms: O_19  and  C_20
REMARK                            x       y       z     vdW  Elec       q    Type
REMARK                         _______ _______ _______ _____ _____    ______ ____
ROOT
ATOM      1  N   UNL     1       4.057   5.982  17.255  0.00  0.00    +0.000 N 
ATOM      2  C   UNL     1       3.958   4.585  17.217  0.00  0.00    +0.000 C 
ATOM      3  O   UNL     1       4.577   3.886  16.414  0.00  0.00    +0.000 OA
ATOM      4  N   UNL     1       3.203   4.013  18.243  0.00  0.00    +0.000 N 
ATOM      5  C   UNL     1       3.363   2.630  18.555  0.00  0.00    +0.000 C 
ATOM      6  C   UNL     1       4.369   2.808  19.669  0.00  0.00    +0.000 C 
ATOM      7  C   UNL     1       4.701   1.544  20.416  0.00  0.00    +0.000 C 
ATOM      8  N   UNL     1       3.772   3.971  20.462  0.00  0.00    +0.000 NA
ATOM      9  C   UNL     1       3.255   4.653  19.470  0.00  0.00    +0.000 C 
ATOM     10  C   UNL     1       2.905   6.023  19.348  0.00  0.00    +0.000 A 
ATOM     11  N   UNL     1       2.108   6.945  19.976  0.00  0.00    +0.000 N 
ATOM     12  C   UNL     1       2.101   8.072  19.155  0.00  0.00    +0.000 A 
ATOM     13  N   UNL     1       2.979   7.965  18.174  0.00  0.00    +0.000 NA
ATOM     14  C   UNL     1       3.351   6.658  18.221  0.00  0.00    +0.000 A 
ATOM     15  H   UNL     1       1.494   6.783  20.769  0.00  0.00    +0.000 HD
ENDROOT
BRANCH  12  16
ATOM     16  C   UNL     1       1.175   9.162  19.206  0.00  0.00    +0.000 A 
ATOM     17  C   UNL     1       0.640   9.846  18.127  0.00  0.00    +0.000 A 
ATOM     18  C   UNL     1      -0.281  10.736  18.691  0.00  0.00    +0.000 A 
ATOM     19  N   UNL     1      -0.321  10.640  20.021  0.00  0.00    +0.000 NA
ATOM     20  O   UNL     1       0.593   9.646  20.345  0.00  0.00    +0.000 OA
BRANCH  18  21
ATOM     21  O   UNL     1      -1.126  11.635  18.139  0.00  0.00    +0.000 OA
ATOM     22  C   UNL     1      -2.168  11.061  17.362  0.00  0.00    +0.000 C 
ENDBRANCH  18  21
ENDBRANCH  12  16
BRANCH   1  23
ATOM     23  C   UNL     1       4.977   6.658  16.371  0.00  0.00    +0.000 C 
BRANCH  23  25
ATOM     24  C   UNL     1       7.281   6.272  17.241  0.00  0.00    +0.000 C 
ATOM     25  C   UNL     1       6.201   7.055  17.126  0.00  0.00    +0.000 C 
ENDBRANCH  23  25
ENDBRANCH   1  23
TORSDOF 4
ENDMDL
MODEL 7
REMARK VINA RESULT:      -6.7      2.362      3.918
REMARK  Name = 
REMARK  6 active torsions:
REMARK  status: ('A' for Active; 'I' for Inactive)
REMARK    1  A    between atoms: C_2  and  C_3
REMARK    2  A    between atoms: C_3  and  N_4
REMARK    3  A    between atoms: C_9  and  C_10
REMARK    4  A    between atoms: C_15  and  C_16
REMARK    5  A    between atoms: C_18  and  O_19
REMARK    6  A    between atoms: O_19  and  C_20
REMARK                            x       y       z     vdW  Elec       q    Type
REMARK                         _______ _______ _______ _____ _____    ______ ____
ROOT
ATOM      1  N   UNL     1       4.178   5.929  17.202  0.00  0.00    +0.000 N 
ATOM      2  C   UNL     1       4.081   4.532  17.147  0.00  0.00    +0.000 C 
ATOM      3  O   UNL     1       4.719   3.841  16.352  0.00  0.00    +0.000 OA
ATOM      4  N   UNL     1       3.300   3.949  18.148  0.00  0.00    +0.000 N 
ATOM      5  C   UNL     1       3.453   2.563  18.449  0.00  0.00    +0.000 C 
ATOM      6  C   UNL     1       4.432   2.729  19.589  0.00  0.00    +0.000 C 
ATOM      7  C   UNL     1       4.746   1.457  20.330  0.00  0.00    +0.000 C 
ATOM      8  N   UNL     1       3.815   3.884  20.379  0.00  0.00    +0.000 NA
ATOM      9  C   UNL     1       3.322   4.576  19.383  0.00  0.00    +0.000 C 
ATOM     10  C   UNL     1       2.975   5.947  19.267  0.00  0.00    +0.000 A 
ATOM     11  N   UNL     1       2.163   6.863  19.884  0.00  0.00    +0.000 N 
ATOM     12  C   UNL     1       2.177   7.998  19.076  0.00  0.00    +0.000 A 
ATOM     13  N   UNL     1       3.077   7.902  18.115  0.00  0.00    +0.000 NA
ATOM     14  C   UNL     1       3.449   6.595  18.157  0.00  0.00    +0.000 A 
ATOM     15  H   UNL     1       1.531   6.693  20.660  0.00  0.00    +0.000 HD
ENDROOT
BRANCH  12  16
ATOM     16  C   UNL     1       1.249   9.088  19.115  0.00  0.00    +0.000 A 
ATOM     17  C   UNL     1       0.800   9.754  20.244  0.00  0.00    +0.000 A 
ATOM     18  C   UNL     1       0.003  10.793  19.750  0.00  0.00    +0.000 A 
ATOM     19  N   UNL     1      -0.065  10.784  18.419  0.00  0.00    +0.000 NA
ATOM     20  O   UNL     1       0.723   9.712  18.018  0.00  0.00    +0.000 OA
BRANCH  18  21
ATOM     21  O   UNL     1      -0.674  11.786  20.369  0.00  0.00    +0.000 OA
ATOM     22  C   UNL     1      -1.906  12.132  19.749  0.00  0.00    +0.000 C 
ENDBRANCH  18  21
ENDBRANCH  12  16
BRANCH   1  23
ATOM     23  C   UNL     1       5.119   6.614  16.348  0.00  0.00    +0.000 C 
BRANCH  23  25
ATOM     24  C   UNL     1       7.298   6.245  17.502  0.00  0.00    +0.000 C 
ATOM     25  C   UNL     1       6.295   7.060  17.150  0.00  0.00    +0.000 C 
ENDBRANCH  23  25
ENDBRANCH   1  23
TORSDOF 4
ENDMDL
