MODEL 1
REMARK VINA RESULT:      -6.5      0.000      0.000
REMARK  Name = 
REMARK  7 active torsions:
REMARK  status: ('A' for Active; 'I' for Inactive)
REMARK    1  A    between atoms: C_1  and  O_2
REMARK    2  A    between atoms: O_2  and  C_3
REMARK    3  A    between atoms: C_3  and  C_5
REMARK    4  A    between atoms: C_11  and  C_12
REMARK    5  A    between atoms: C_12  and  C_13
REMARK    6  A    between atoms: C_27  and  C_28
REMARK    7  A    between atoms: C_32  and  C_33
REMARK                            x       y       z     vdW  Elec       q    Type
REMARK                         _______ _______ _______ _____ _____    ______ ____
ROOT
ATOM      1  C   UNL     1       8.597  13.898  21.625  0.00  0.00    +0.000 A 
ATOM      2  C   UNL     1       9.451  13.327  20.653  0.00  0.00    +0.000 A 
ATOM      3  N   UNL     1       9.039  13.569  19.405  0.00  0.00    +0.000 NA
ATOM      4  N   UNL     1       7.933  14.306  19.581  0.00  0.00    +0.000 N 
ATOM      5  C   UNL     1       7.578  14.487  20.887  0.00  0.00    +0.000 A 
ATOM      6  C   UNL     1       6.292  15.159  21.332  0.00  0.00    +0.000 C 
ATOM      7  C   UNL     1       5.262  15.605  20.168  0.00  0.00    +0.000 C 
ATOM      8  C   UNL     1       5.671  14.707  18.952  0.00  0.00    +0.000 C 
ATOM      9  C   UNL     1       4.633  14.858  17.893  0.00  0.00    +0.000 C 
ATOM     10  C   UNL     1       3.358  14.792  18.709  0.00  0.00    +0.000 C 
ATOM     11  C   UNL     1       2.517  13.541  18.816  0.00  0.00    +0.000 C 
ATOM     12  C   UNL     1       2.343  12.646  17.601  0.00  0.00    +0.000 C 
ATOM     13  C   UNL     1       1.947  11.284  18.161  0.00  0.00    +0.000 C 
ATOM     14  C   UNL     1       0.779  11.328  19.124  0.00  0.00    +0.000 C 
ATOM     15  C   UNL     1      -0.032  10.250  19.155  0.00  0.00    +0.000 C 
ATOM     16  C   UNL     1      -1.124  10.638  18.211  0.00  0.00    +0.000 C 
ATOM     17  O   UNL     1      -1.397   9.915  17.252  0.00  0.00    +0.000 OA
ATOM     18  C   UNL     1      -1.843  11.934  18.518  0.00  0.00    +0.000 C 
ATOM     19  C   UNL     1      -1.207  12.782  19.648  0.00  0.00    +0.000 C 
ATOM     20  C   UNL     1       0.345  12.622  19.860  0.00  0.00    +0.000 C 
ATOM     21  C   UNL     1       0.582  12.341  21.366  0.00  0.00    +0.000 C 
ATOM     22  C   UNL     1       1.114  13.939  19.360  0.00  0.00    +0.000 C 
ATOM     23  C   UNL     1       1.122  15.234  20.313  0.00  0.00    +0.000 C 
ATOM     24  C   UNL     1       2.461  16.097  20.447  0.00  0.00    +0.000 C 
ATOM     25  C   UNL     1       3.705  15.191  20.224  0.00  0.00    +0.000 C 
ATOM     26  C   UNL     1       3.617  14.163  21.381  0.00  0.00    +0.000 C 
ATOM     27  C   UNL     1       7.101  14.687  18.460  0.00  0.00    +0.000 C 
ENDROOT
BRANCH   7  28
ATOM     28  C   UNL     1       5.233  17.120  20.358  0.00  0.00    +0.000 C 
ATOM     29  C   UNL     1       5.230  17.763  21.700  0.00  0.00    +0.000 C 
ATOM     30  O   UNL     1       5.225  17.865  19.364  0.00  0.00    +0.000 OA
ENDBRANCH   7  28
BRANCH   1  31
ATOM     31  C   UNL     1       8.708  13.874  23.070  0.00  0.00    +0.000 C 
ATOM     32  O   UNL     1       8.850  14.882  23.753  0.00  0.00    +0.000 OA
BRANCH  31  34
ATOM     33  C   UNL     1       7.358  12.017  23.525  0.00  0.00    +0.000 C 
ATOM     34  O   UNL     1       8.658  12.610  23.579  0.00  0.00    +0.000 OA
ENDBRANCH  31  34
ENDBRANCH   1  31
TORSDOF 3
ENDMDL
MODEL 2
REMARK VINA RESULT:      -6.4      4.133      9.154
REMARK  Name = 
REMARK  7 active torsions:
REMARK  status: ('A' for Active; 'I' for Inactive)
REMARK    1  A    between atoms: C_1  and  O_2
REMARK    2  A    between atoms: O_2  and  C_3
REMARK    3  A    between atoms: C_3  and  C_5
REMARK    4  A    between atoms: C_11  and  C_12
REMARK    5  A    between atoms: C_12  and  C_13
REMARK    6  A    between atoms: C_27  and  C_28
REMARK    7  A    between atoms: C_32  and  C_33
REMARK                            x       y       z     vdW  Elec       q    Type
REMARK                         _______ _______ _______ _____ _____    ______ ____
ROOT
ATOM      1  C   UNL     1      -3.933  11.241  17.748  0.00  0.00    +0.000 A 
ATOM      2  C   UNL     1      -3.496  10.193  16.906  0.00  0.00    +0.000 A 
ATOM      3  N   UNL     1      -2.363   9.629  17.338  0.00  0.00    +0.000 NA
ATOM      4  N   UNL     1      -2.089  10.308  18.462  0.00  0.00    +0.000 N 
ATOM      5  C   UNL     1      -2.955  11.327  18.731  0.00  0.00    +0.000 A 
ATOM      6  C   UNL     1      -2.771  12.323  19.861  0.00  0.00    +0.000 C 
ATOM      7  C   UNL     1      -1.414  12.193  20.733  0.00  0.00    +0.000 C 
ATOM      8  C   UNL     1      -0.444  11.409  19.786  0.00  0.00    +0.000 C 
ATOM      9  C   UNL     1       0.919  11.440  20.390  0.00  0.00    +0.000 C 
ATOM     10  C   UNL     1       1.020  12.886  20.832  0.00  0.00    +0.000 C 
ATOM     11  C   UNL     1       1.764  13.935  20.041  0.00  0.00    +0.000 C 
ATOM     12  C   UNL     1       3.062  13.568  19.339  0.00  0.00    +0.000 C 
ATOM     13  C   UNL     1       3.237  14.618  18.247  0.00  0.00    +0.000 C 
ATOM     14  C   UNL     1       3.131  16.045  18.740  0.00  0.00    +0.000 C 
ATOM     15  C   UNL     1       3.870  16.973  18.096  0.00  0.00    +0.000 C 
ATOM     16  C   UNL     1       5.106  17.044  18.934  0.00  0.00    +0.000 C 
ATOM     17  O   UNL     1       6.211  16.856  18.421  0.00  0.00    +0.000 OA
ATOM     18  C   UNL     1       4.902  17.358  20.400  0.00  0.00    +0.000 C 
ATOM     19  C   UNL     1       3.426  17.355  20.870  0.00  0.00    +0.000 C 
ATOM     20  C   UNL     1       2.435  16.426  20.073  0.00  0.00    +0.000 C 
ATOM     21  C   UNL     1       1.212  17.289  19.669  0.00  0.00    +0.000 C 
ATOM     22  C   UNL     1       2.017  15.161  20.967  0.00  0.00    +0.000 C 
ATOM     23  C   UNL     1       0.903  15.360  22.109  0.00  0.00    +0.000 C 
ATOM     24  C   UNL     1      -0.199  14.224  22.334  0.00  0.00    +0.000 C 
ATOM     25  C   UNL     1      -0.466  13.469  21.001  0.00  0.00    +0.000 C 
ATOM     26  C   UNL     1      -1.022  14.571  20.064  0.00  0.00    +0.000 C 
ATOM     27  C   UNL     1      -0.859  10.083  19.191  0.00  0.00    +0.000 C 
ENDROOT
BRANCH   7  28
ATOM     28  C   UNL     1      -1.977  11.873  22.116  0.00  0.00    +0.000 C 
ATOM     29  C   UNL     1      -1.294  10.958  23.070  0.00  0.00    +0.000 C 
ATOM     30  O   UNL     1      -3.040  12.398  22.485  0.00  0.00    +0.000 OA
ENDBRANCH   7  28
BRANCH   1  31
ATOM     31  C   UNL     1      -5.112  12.078  17.633  0.00  0.00    +0.000 C 
ATOM     32  O   UNL     1      -5.408  12.688  16.612  0.00  0.00    +0.000 OA
BRANCH  31  34
ATOM     33  C   UNL     1      -6.944  11.220  18.810  0.00  0.00    +0.000 C 
ATOM     34  O   UNL     1      -5.837  12.125  18.786  0.00  0.00    +0.000 OA
ENDBRANCH  31  34
ENDBRANCH   1  31
TORSDOF 3
ENDMDL
MODEL 3
REMARK VINA RESULT:      -6.4      6.181      9.883
REMARK  Name = 
REMARK  7 active torsions:
REMARK  status: ('A' for Active; 'I' for Inactive)
REMARK    1  A    between atoms: C_1  and  O_2
REMARK    2  A    between atoms: O_2  and  C_3
REMARK    3  A    between atoms: C_3  and  C_5
REMARK    4  A    between atoms: C_11  and  C_12
REMARK    5  A    between atoms: C_12  and  C_13
REMARK    6  A    between atoms: C_27  and  C_28
REMARK    7  A    between atoms: C_32  and  C_33
REMARK                            x       y       z     vdW  Elec       q    Type
REMARK                         _______ _______ _______ _____ _____    ______ ____
ROOT
ATOM      1  C   UNL     1      -7.011  14.228  23.062  0.00  0.00    +0.000 A 
ATOM      2  C   UNL     1      -7.608  13.093  23.659  0.00  0.00    +0.000 A 
ATOM      3  N   UNL     1      -6.722  12.334  24.311  0.00  0.00    +0.000 NA
ATOM      4  N   UNL     1      -5.566  12.992  24.142  0.00  0.00    +0.000 N 
ATOM      5  C   UNL     1      -5.658  14.101  23.352  0.00  0.00    +0.000 A 
ATOM      6  C   UNL     1      -4.466  14.924  22.900  0.00  0.00    +0.000 C 
ATOM      7  C   UNL     1      -3.003  14.385  23.330  0.00  0.00    +0.000 C 
ATOM      8  C   UNL     1      -3.245  12.866  23.625  0.00  0.00    +0.000 C 
ATOM      9  C   UNL     1      -1.917  12.209  23.797  0.00  0.00    +0.000 C 
ATOM     10  C   UNL     1      -1.128  12.820  22.656  0.00  0.00    +0.000 C 
ATOM     11  C   UNL     1      -0.885  12.101  21.351  0.00  0.00    +0.000 C 
ATOM     12  C   UNL     1      -0.621  10.604  21.355  0.00  0.00    +0.000 C 
ATOM     13  C   UNL     1      -0.963  10.133  19.945  0.00  0.00    +0.000 C 
ATOM     14  C   UNL     1      -0.280  10.923  18.849  0.00  0.00    +0.000 C 
ATOM     15  C   UNL     1       0.026  10.260  17.714  0.00  0.00    +0.000 C 
ATOM     16  C   UNL     1       1.444   9.849  17.951  0.00  0.00    +0.000 C 
ATOM     17  O   UNL     1       1.763   8.661  17.875  0.00  0.00    +0.000 OA
ATOM     18  C   UNL     1       2.418  10.962  18.271  0.00  0.00    +0.000 C 
ATOM     19  C   UNL     1       1.768  12.348  18.515  0.00  0.00    +0.000 C 
ATOM     20  C   UNL     1       0.295  12.347  19.070  0.00  0.00    +0.000 C 
ATOM     21  C   UNL     1      -0.545  13.279  18.159  0.00  0.00    +0.000 C 
ATOM     22  C   UNL     1       0.276  12.819  20.603  0.00  0.00    +0.000 C 
ATOM     23  C   UNL     1       0.391  14.390  20.927  0.00  0.00    +0.000 C 
ATOM     24  C   UNL     1      -0.506  15.016  22.091  0.00  0.00    +0.000 C 
ATOM     25  C   UNL     1      -1.825  14.205  22.244  0.00  0.00    +0.000 C 
ATOM     26  C   UNL     1      -2.526  14.392  20.874  0.00  0.00    +0.000 C 
ATOM     27  C   UNL     1      -4.312  12.435  24.605  0.00  0.00    +0.000 C 
ENDROOT
BRANCH   7  28
ATOM     28  C   UNL     1      -2.506  15.532  24.207  0.00  0.00    +0.000 C 
ATOM     29  C   UNL     1      -1.758  15.311  25.474  0.00  0.00    +0.000 C 
ATOM     30  O   UNL     1      -2.712  16.706  23.859  0.00  0.00    +0.000 OA
ENDBRANCH   7  28
BRANCH   1  31
ATOM     31  C   UNL     1      -7.629  15.289  22.291  0.00  0.00    +0.000 C 
ATOM     32  O   UNL     1      -7.881  16.397  22.750  0.00  0.00    +0.000 OA
BRANCH  31  34
ATOM     33  C   UNL     1      -6.943  15.333  20.054  0.00  0.00    +0.000 C 
ATOM     34  O   UNL     1      -7.916  14.910  21.013  0.00  0.00    +0.000 OA
ENDBRANCH  31  34
ENDBRANCH   1  31
TORSDOF 3
ENDMDL
MODEL 4
REMARK VINA RESULT:      -6.2      2.898      4.511
REMARK  Name = 
REMARK  7 active torsions:
REMARK  status: ('A' for Active; 'I' for Inactive)
REMARK    1  A    between atoms: C_1  and  O_2
REMARK    2  A    between atoms: O_2  and  C_3
REMARK    3  A    between atoms: C_3  and  C_5
REMARK    4  A    between atoms: C_11  and  C_12
REMARK    5  A    between atoms: C_12  and  C_13
REMARK    6  A    between atoms: C_27  and  C_28
REMARK    7  A    between atoms: C_32  and  C_33
REMARK                            x       y       z     vdW  Elec       q    Type
REMARK                         _______ _______ _______ _____ _____    ______ ____
ROOT
ATOM      1  C   UNL     1      11.127  12.955  18.477  0.00  0.00    +0.000 A 
ATOM      2  C   UNL     1      11.387  13.119  17.097  0.00  0.00    +0.000 A 
ATOM      3  N   UNL     1      10.967  14.300  16.634  0.00  0.00    +0.000 NA
ATOM      4  N   UNL     1      10.454  14.894  17.722  0.00  0.00    +0.000 N 
ATOM      5  C   UNL     1      10.463  14.118  18.845  0.00  0.00    +0.000 A 
ATOM      6  C   UNL     1       9.810  14.515  20.156  0.00  0.00    +0.000 C 
ATOM      7  C   UNL     1       8.993  15.910  20.172  0.00  0.00    +0.000 C 
ATOM      8  C   UNL     1       8.670  16.162  18.660  0.00  0.00    +0.000 C 
ATOM      9  C   UNL     1       7.708  17.298  18.574  0.00  0.00    +0.000 C 
ATOM     10  C   UNL     1       6.738  16.958  19.687  0.00  0.00    +0.000 C 
ATOM     11  C   UNL     1       5.398  16.307  19.436  0.00  0.00    +0.000 C 
ATOM     12  C   UNL     1       4.588  16.702  18.212  0.00  0.00    +0.000 C 
ATOM     13  C   UNL     1       3.635  15.536  17.970  0.00  0.00    +0.000 C 
ATOM     14  C   UNL     1       2.836  15.128  19.190  0.00  0.00    +0.000 C 
ATOM     15  C   UNL     1       1.599  14.634  18.976  0.00  0.00    +0.000 C 
ATOM     16  C   UNL     1       0.735  15.845  19.130  0.00  0.00    +0.000 C 
ATOM     17  O   UNL     1      -0.027  16.178  18.221  0.00  0.00    +0.000 OA
ATOM     18  C   UNL     1       0.859  16.592  20.440  0.00  0.00    +0.000 C 
ATOM     19  C   UNL     1       2.018  16.120  21.355  0.00  0.00    +0.000 C 
ATOM     20  C   UNL     1       3.268  15.486  20.637  0.00  0.00    +0.000 C 
ATOM     21  C   UNL     1       3.562  14.130  21.328  0.00  0.00    +0.000 C 
ATOM     22  C   UNL     1       4.519  16.488  20.708  0.00  0.00    +0.000 C 
ATOM     23  C   UNL     1       5.357  16.577  22.077  0.00  0.00    +0.000 C 
ATOM     24  C   UNL     1       6.950  16.686  22.013  0.00  0.00    +0.000 C 
ATOM     25  C   UNL     1       7.482  15.989  20.728  0.00  0.00    +0.000 C 
ATOM     26  C   UNL     1       7.058  14.510  20.916  0.00  0.00    +0.000 C 
ATOM     27  C   UNL     1       9.776  16.169  17.630  0.00  0.00    +0.000 C 
ENDROOT
BRANCH   7  28
ATOM     28  C   UNL     1       9.791  16.714  21.196  0.00  0.00    +0.000 C 
ATOM     29  C   UNL     1      10.089  18.162  21.027  0.00  0.00    +0.000 C 
ATOM     30  O   UNL     1      10.206  16.158  22.226  0.00  0.00    +0.000 OA
ENDBRANCH   7  28
BRANCH   1  31
ATOM     31  C   UNL     1      11.441  11.834  19.342  0.00  0.00    +0.000 C 
ATOM     32  O   UNL     1      12.327  11.863  20.189  0.00  0.00    +0.000 OA
BRANCH  31  34
ATOM     33  C   UNL     1       9.430  10.738  19.824  0.00  0.00    +0.000 C 
ATOM     34  O   UNL     1      10.659  10.745  19.093  0.00  0.00    +0.000 OA
ENDBRANCH  31  34
ENDBRANCH   1  31
TORSDOF 3
ENDMDL
MODEL 5
REMARK VINA RESULT:      -5.9      3.920      7.851
REMARK  Name = 
REMARK  7 active torsions:
REMARK  status: ('A' for Active; 'I' for Inactive)
REMARK    1  A    between atoms: C_1  and  O_2
REMARK    2  A    between atoms: O_2  and  C_3
REMARK    3  A    between atoms: C_3  and  C_5
REMARK    4  A    between atoms: C_11  and  C_12
REMARK    5  A    between atoms: C_12  and  C_13
REMARK    6  A    between atoms: C_27  and  C_28
REMARK    7  A    between atoms: C_32  and  C_33
REMARK                            x       y       z     vdW  Elec       q    Type
REMARK                         _______ _______ _______ _____ _____    ______ ____
ROOT
ATOM      1  C   UNL     1       2.067   7.576  19.394  0.00  0.00    +0.000 A 
ATOM      2  C   UNL     1       2.207   7.000  20.679  0.00  0.00    +0.000 A 
ATOM      3  N   UNL     1       1.456   7.614  21.598  0.00  0.00    +0.000 NA
ATOM      4  N   UNL     1       0.828   8.570  20.898  0.00  0.00    +0.000 N 
ATOM      5  C   UNL     1       1.196   8.641  19.585  0.00  0.00    +0.000 A 
ATOM      6  C   UNL     1       0.733   9.727  18.632  0.00  0.00    +0.000 C 
ATOM      7  C   UNL     1      -0.186  10.903  19.255  0.00  0.00    +0.000 C 
ATOM      8  C   UNL     1       0.136  10.846  20.787  0.00  0.00    +0.000 C 
ATOM      9  C   UNL     1      -0.472  12.044  21.434  0.00  0.00    +0.000 C 
ATOM     10  C   UNL     1      -0.108  13.136  20.448  0.00  0.00    +0.000 C 
ATOM     11  C   UNL     1       1.049  14.082  20.663  0.00  0.00    +0.000 C 
ATOM     12  C   UNL     1       1.352  14.594  22.062  0.00  0.00    +0.000 C 
ATOM     13  C   UNL     1       2.811  15.034  22.019  0.00  0.00    +0.000 C 
ATOM     14  C   UNL     1       3.138  15.980  20.883  0.00  0.00    +0.000 C 
ATOM     15  C   UNL     1       4.108  16.892  21.103  0.00  0.00    +0.000 C 
ATOM     16  C   UNL     1       3.331  18.092  21.540  0.00  0.00    +0.000 C 
ATOM     17  O   UNL     1       3.582  18.630  22.621  0.00  0.00    +0.000 OA
ATOM     18  C   UNL     1       2.261  18.579  20.588  0.00  0.00    +0.000 C 
ATOM     19  C   UNL     1       1.978  17.640  19.388  0.00  0.00    +0.000 C 
ATOM     20  C   UNL     1       2.256  16.106  19.613  0.00  0.00    +0.000 C 
ATOM     21  C   UNL     1       3.145  15.618  18.441  0.00  0.00    +0.000 C 
ATOM     22  C   UNL     1       0.874  15.297  19.705  0.00  0.00    +0.000 C 
ATOM     23  C   UNL     1       0.093  14.950  18.342  0.00  0.00    +0.000 C 
ATOM     24  C   UNL     1      -0.597  13.518  18.180  0.00  0.00    +0.000 C 
ATOM     25  C   UNL     1       0.170  12.457  19.020  0.00  0.00    +0.000 C 
ATOM     26  C   UNL     1       1.583  12.442  18.384  0.00  0.00    +0.000 C 
ATOM     27  C   UNL     1      -0.009   9.551  21.554  0.00  0.00    +0.000 C 
ENDROOT
BRANCH   7  28
ATOM     28  C   UNL     1      -1.485  10.713  18.475  0.00  0.00    +0.000 C 
ATOM     29  C   UNL     1      -1.536  10.040  17.149  0.00  0.00    +0.000 C 
ATOM     30  O   UNL     1      -2.556  11.119  18.955  0.00  0.00    +0.000 OA
ENDBRANCH   7  28
BRANCH   1  31
ATOM     31  C   UNL     1       2.694   7.192  18.145  0.00  0.00    +0.000 C 
ATOM     32  O   UNL     1       3.390   7.949  17.478  0.00  0.00    +0.000 OA
BRANCH  31  34
ATOM     33  C   UNL     1       3.526   5.023  17.859  0.00  0.00    +0.000 C 
ATOM     34  O   UNL     1       2.406   5.908  17.787  0.00  0.00    +0.000 OA
ENDBRANCH  31  34
ENDBRANCH   1  31
TORSDOF 3
ENDMDL
MODEL 6
REMARK VINA RESULT:      -5.9      2.960      8.004
REMARK  Name = 
REMARK  7 active torsions:
REMARK  status: ('A' for Active; 'I' for Inactive)
REMARK    1  A    between atoms: C_1  and  O_2
REMARK    2  A    between atoms: O_2  and  C_3
REMARK    3  A    between atoms: C_3  and  C_5
REMARK    4  A    between atoms: C_11  and  C_12
REMARK    5  A    between atoms: C_12  and  C_13
REMARK    6  A    between atoms: C_27  and  C_28
REMARK    7  A    between atoms: C_32  and  C_33
REMARK                            x       y       z     vdW  Elec       q    Type
REMARK                         _______ _______ _______ _____ _____    ______ ____
ROOT
ATOM      1  C   UNL     1      -0.712  11.634  20.516  0.00  0.00    +0.000 A 
ATOM      2  C   UNL     1      -0.831  11.289  21.882  0.00  0.00    +0.000 A 
ATOM      3  N   UNL     1      -0.426  12.271  22.694  0.00  0.00    +0.000 NA
ATOM      4  N   UNL     1      -0.064  13.244  21.846  0.00  0.00    +0.000 N 
ATOM      5  C   UNL     1      -0.152  12.905  20.527  0.00  0.00    +0.000 A 
ATOM      6  C   UNL     1       0.336  13.783  19.390  0.00  0.00    +0.000 C 
ATOM      7  C   UNL     1       1.074  15.164  19.799  0.00  0.00    +0.000 C 
ATOM      8  C   UNL     1       1.542  14.906  21.271  0.00  0.00    +0.000 C 
ATOM      9  C   UNL     1       2.447  16.021  21.672  0.00  0.00    +0.000 C 
ATOM     10  C   UNL     1       3.310  16.170  20.435  0.00  0.00    +0.000 C 
ATOM     11  C   UNL     1       4.700  15.590  20.331  0.00  0.00    +0.000 C 
ATOM     12  C   UNL     1       5.615  15.608  21.545  0.00  0.00    +0.000 C 
ATOM     13  C   UNL     1       6.648  14.517  21.284  0.00  0.00    +0.000 C 
ATOM     14  C   UNL     1       7.332  14.624  19.937  0.00  0.00    +0.000 C 
ATOM     15  C   UNL     1       8.609  14.195  19.862  0.00  0.00    +0.000 C 
ATOM     16  C   UNL     1       9.388  15.454  20.073  0.00  0.00    +0.000 C 
ATOM     17  O   UNL     1      10.223  15.519  20.976  0.00  0.00    +0.000 OA
ATOM     18  C   UNL     1       9.085  16.593  19.124  0.00  0.00    +0.000 C 
ATOM     19  C   UNL     1       7.862  16.367  18.200  0.00  0.00    +0.000 C 
ATOM     20  C   UNL     1       6.731  15.419  18.749  0.00  0.00    +0.000 C 
ATOM     21  C   UNL     1       6.435  14.365  17.652  0.00  0.00    +0.000 C 
ATOM     22  C   UNL     1       5.429  16.273  19.137  0.00  0.00    +0.000 C 
ATOM     23  C   UNL     1       4.446  16.756  17.959  0.00  0.00    +0.000 C 
ATOM     24  C   UNL     1       2.865  16.699  18.187  0.00  0.00    +0.000 C 
ATOM     25  C   UNL     1       2.511  15.559  19.184  0.00  0.00    +0.000 C 
ATOM     26  C   UNL     1       2.989  14.278  18.455  0.00  0.00    +0.000 C 
ATOM     27  C   UNL     1       0.553  14.463  22.325  0.00  0.00    +0.000 C 
ENDROOT
BRANCH   7  28
ATOM     28  C   UNL     1       0.130  16.199  19.191  0.00  0.00    +0.000 C 
ATOM     29  C   UNL     1      -0.168  17.500  19.848  0.00  0.00    +0.000 C 
ATOM     30  O   UNL     1      -0.411  15.971  18.097  0.00  0.00    +0.000 OA
ENDBRANCH   7  28
BRANCH   1  31
ATOM     31  C   UNL     1      -1.057  10.857  19.342  0.00  0.00    +0.000 C 
ATOM     32  O   UNL     1      -0.316  10.013  18.849  0.00  0.00    +0.000 OA
BRANCH  31  34
ATOM     33  C   UNL     1      -2.266  11.501  17.444  0.00  0.00    +0.000 C 
ATOM     34  O   UNL     1      -2.281  11.183  18.838  0.00  0.00    +0.000 OA
ENDBRANCH  31  34
ENDBRANCH   1  31
TORSDOF 3
ENDMDL
MODEL 7
REMARK VINA RESULT:      -5.8      5.180      7.804
REMARK  Name = 
REMARK  7 active torsions:
REMARK  status: ('A' for Active; 'I' for Inactive)
REMARK    1  A    between atoms: C_1  and  O_2
REMARK    2  A    between atoms: O_2  and  C_3
REMARK    3  A    between atoms: C_3  and  C_5
REMARK    4  A    between atoms: C_11  and  C_12
REMARK    5  A    between atoms: C_12  and  C_13
REMARK    6  A    between atoms: C_27  and  C_28
REMARK    7  A    between atoms: C_32  and  C_33
REMARK                            x       y       z     vdW  Elec       q    Type
REMARK                         _______ _______ _______ _____ _____    ______ ____
ROOT
ATOM      1  C   UNL     1       0.026  10.141  19.766  0.00  0.00    +0.000 A 
ATOM      2  C   UNL     1      -0.618   9.957  18.521  0.00  0.00    +0.000 A 
ATOM      3  N   UNL     1      -0.848  11.112  17.889  0.00  0.00    +0.000 NA
ATOM      4  N   UNL     1      -0.338  12.029  18.724  0.00  0.00    +0.000 N 
ATOM      5  C   UNL     1       0.145  11.519  19.895  0.00  0.00    +0.000 A 
ATOM      6  C   UNL     1       0.637  12.368  21.052  0.00  0.00    +0.000 C 
ATOM      7  C   UNL     1       0.494  13.971  20.893  0.00  0.00    +0.000 C 
ATOM      8  C   UNL     1      -0.620  14.133  19.803  0.00  0.00    +0.000 C 
ATOM      9  C   UNL     1      -1.009  15.571  19.747  0.00  0.00    +0.000 C 
ATOM     10  C   UNL     1      -1.092  15.919  21.220  0.00  0.00    +0.000 C 
ATOM     11  C   UNL     1      -2.400  15.991  21.972  0.00  0.00    +0.000 C 
ATOM     12  C   UNL     1      -3.632  16.558  21.286  0.00  0.00    +0.000 C 
ATOM     13  C   UNL     1      -4.817  15.999  22.065  0.00  0.00    +0.000 C 
ATOM     14  C   UNL     1      -4.732  16.219  23.561  0.00  0.00    +0.000 C 
ATOM     15  C   UNL     1      -5.896  16.379  24.225  0.00  0.00    +0.000 C 
ATOM     16  C   UNL     1      -6.040  17.867  24.271  0.00  0.00    +0.000 C 
ATOM     17  O   UNL     1      -7.056  18.402  23.824  0.00  0.00    +0.000 OA
ATOM     18  C   UNL     1      -4.891  18.631  24.891  0.00  0.00    +0.000 C 
ATOM     19  C   UNL     1      -3.632  17.780  25.200  0.00  0.00    +0.000 C 
ATOM     20  C   UNL     1      -3.397  16.515  24.293  0.00  0.00    +0.000 C 
ATOM     21  C   UNL     1      -3.163  15.306  25.234  0.00  0.00    +0.000 C 
ATOM     22  C   UNL     1      -2.159  16.763  23.302  0.00  0.00    +0.000 C 
ATOM     23  C   UNL     1      -0.667  16.617  23.884  0.00  0.00    +0.000 C 
ATOM     24  C   UNL     1       0.455  15.911  22.991  0.00  0.00    +0.000 C 
ATOM     25  C   UNL     1      -0.199  14.868  22.040  0.00  0.00    +0.000 C 
ATOM     26  C   UNL     1      -0.832  13.838  23.010  0.00  0.00    +0.000 C 
ATOM     27  C   UNL     1      -0.488  13.445  18.464  0.00  0.00    +0.000 C 
ENDROOT
BRANCH   7  28
ATOM     28  C   UNL     1       1.957  14.408  20.935  0.00  0.00    +0.000 C 
ATOM     29  C   UNL     1       2.495  15.501  20.079  0.00  0.00    +0.000 C 
ATOM     30  O   UNL     1       2.742  13.852  21.718  0.00  0.00    +0.000 OA
ENDBRANCH   7  28
BRANCH   1  31
ATOM     31  C   UNL     1       0.456   9.148  20.731  0.00  0.00    +0.000 C 
ATOM     32  O   UNL     1       1.497   8.509  20.624  0.00  0.00    +0.000 OA
BRANCH  31  34
ATOM     33  C   UNL     1       0.075   9.388  23.028  0.00  0.00    +0.000 C 
ATOM     34  O   UNL     1      -0.433   8.989  21.752  0.00  0.00    +0.000 OA
ENDBRANCH  31  34
ENDBRANCH   1  31
TORSDOF 3
ENDMDL
MODEL 8
REMARK VINA RESULT:      -5.7      5.303      7.366
REMARK  Name = 
REMARK  7 active torsions:
REMARK  status: ('A' for Active; 'I' for Inactive)
REMARK    1  A    between atoms: C_1  and  O_2
REMARK    2  A    between atoms: O_2  and  C_3
REMARK    3  A    between atoms: C_3  and  C_5
REMARK    4  A    between atoms: C_11  and  C_12
REMARK    5  A    between atoms: C_12  and  C_13
REMARK    6  A    between atoms: C_27  and  C_28
REMARK    7  A    between atoms: C_32  and  C_33
REMARK                            x       y       z     vdW  Elec       q    Type
REMARK                         _______ _______ _______ _____ _____    ______ ____
ROOT
ATOM      1  C   UNL     1       8.974  12.850  17.863  0.00  0.00    +0.000 A 
ATOM      2  C   UNL     1       7.813  12.963  17.063  0.00  0.00    +0.000 A 
ATOM      3  N   UNL     1       7.090  14.047  17.363  0.00  0.00    +0.000 NA
ATOM      4  N   UNL     1       7.796  14.630  18.342  0.00  0.00    +0.000 N 
ATOM      5  C   UNL     1       8.903  13.933  18.732  0.00  0.00    +0.000 A 
ATOM      6  C   UNL     1       9.776  14.316  19.912  0.00  0.00    +0.000 C 
ATOM      7  C   UNL     1       9.297  15.585  20.792  0.00  0.00    +0.000 C 
ATOM      8  C   UNL     1       7.768  15.698  20.470  0.00  0.00    +0.000 C 
ATOM      9  C   UNL     1       7.167  16.685  21.412  0.00  0.00    +0.000 C 
ATOM     10  C   UNL     1       7.813  16.284  22.723  0.00  0.00    +0.000 C 
ATOM     11  C   UNL     1       7.109  15.443  23.760  0.00  0.00    +0.000 C 
ATOM     12  C   UNL     1       5.625  15.649  24.013  0.00  0.00    +0.000 C 
ATOM     13  C   UNL     1       5.145  14.352  24.656  0.00  0.00    +0.000 C 
ATOM     14  C   UNL     1       5.966  13.914  25.851  0.00  0.00    +0.000 C 
ATOM     15  C   UNL     1       5.319  13.244  26.827  0.00  0.00    +0.000 C 
ATOM     16  C   UNL     1       4.967  14.333  27.790  0.00  0.00    +0.000 C 
ATOM     17  O   UNL     1       3.794  14.504  28.126  0.00  0.00    +0.000 OA
ATOM     18  C   UNL     1       6.119  15.169  28.303  0.00  0.00    +0.000 C 
ATOM     19  C   UNL     1       7.476  14.915  27.598  0.00  0.00    +0.000 C 
ATOM     20  C   UNL     1       7.412  14.414  26.107  0.00  0.00    +0.000 C 
ATOM     21  C   UNL     1       8.310  13.156  26.000  0.00  0.00    +0.000 C 
ATOM     22  C   UNL     1       7.878  15.580  25.107  0.00  0.00    +0.000 C 
ATOM     23  C   UNL     1       9.451  15.866  24.938  0.00  0.00    +0.000 C 
ATOM     24  C   UNL     1      10.036  16.187  23.486  0.00  0.00    +0.000 C 
ATOM     25  C   UNL     1       9.170  15.492  22.397  0.00  0.00    +0.000 C 
ATOM     26  C   UNL     1       9.332  13.983  22.713  0.00  0.00    +0.000 C 
ATOM     27  C   UNL     1       7.290  15.793  19.039  0.00  0.00    +0.000 C 
ENDROOT
BRANCH   7  28
ATOM     28  C   UNL     1      10.461  16.551  20.583  0.00  0.00    +0.000 C 
ATOM     29  C   UNL     1      11.870  16.094  20.441  0.00  0.00    +0.000 C 
ATOM     30  O   UNL     1      10.243  17.771  20.513  0.00  0.00    +0.000 OA
ENDBRANCH   7  28
BRANCH   1  31
ATOM     31  C   UNL     1      10.010  11.838  17.835  0.00  0.00    +0.000 C 
ATOM     32  O   UNL     1      11.179  12.076  17.554  0.00  0.00    +0.000 OA
BRANCH  31  34
ATOM     33  C   UNL     1       9.312  10.383  19.531  0.00  0.00    +0.000 C 
ATOM     34  O   UNL     1       9.538  10.594  18.135  0.00  0.00    +0.000 OA
ENDBRANCH  31  34
ENDBRANCH   1  31
TORSDOF 3
ENDMDL
MODEL 9
REMARK VINA RESULT:      -5.7      2.954      4.159
REMARK  Name = 
REMARK  7 active torsions:
REMARK  status: ('A' for Active; 'I' for Inactive)
REMARK    1  A    between atoms: C_1  and  O_2
REMARK    2  A    between atoms: O_2  and  C_3
REMARK    3  A    between atoms: C_3  and  C_5
REMARK    4  A    between atoms: C_11  and  C_12
REMARK    5  A    between atoms: C_12  and  C_13
REMARK    6  A    between atoms: C_27  and  C_28
REMARK    7  A    between atoms: C_32  and  C_33
REMARK                            x       y       z     vdW  Elec       q    Type
REMARK                         _______ _______ _______ _____ _____    ______ ____
ROOT
ATOM      1  C   UNL     1       9.944  12.442  19.005  0.00  0.00    +0.000 A 
ATOM      2  C   UNL     1      10.267  12.473  17.628  0.00  0.00    +0.000 A 
ATOM      3  N   UNL     1      10.000  13.657  17.068  0.00  0.00    +0.000 NA
ATOM      4  N   UNL     1       9.522  14.382  18.089  0.00  0.00    +0.000 N 
ATOM      5  C   UNL     1       9.404  13.695  19.263  0.00  0.00    +0.000 A 
ATOM      6  C   UNL     1       8.756  14.258  20.514  0.00  0.00    +0.000 C 
ATOM      7  C   UNL     1       8.103  15.733  20.398  0.00  0.00    +0.000 C 
ATOM      8  C   UNL     1       7.862  15.906  18.860  0.00  0.00    +0.000 C 
ATOM      9  C   UNL     1       7.040  17.133  18.654  0.00  0.00    +0.000 C 
ATOM     10  C   UNL     1       6.000  16.986  19.746  0.00  0.00    +0.000 C 
ATOM     11  C   UNL     1       4.604  16.471  19.485  0.00  0.00    +0.000 C 
ATOM     12  C   UNL     1       3.886  16.862  18.204  0.00  0.00    +0.000 C 
ATOM     13  C   UNL     1       2.815  15.795  18.003  0.00  0.00    +0.000 C 
ATOM     14  C   UNL     1       1.935  15.570  19.214  0.00  0.00    +0.000 C 
ATOM     15  C   UNL     1       0.657  15.201  18.983  0.00  0.00    +0.000 C 
ATOM     16  C   UNL     1      -0.069  16.509  19.016  0.00  0.00    +0.000 C 
ATOM     17  O   UNL     1      -0.756  16.857  18.054  0.00  0.00    +0.000 OA
ATOM     18  C   UNL     1       0.096  17.332  20.274  0.00  0.00    +0.000 C 
ATOM     19  C   UNL     1       1.161  16.803  21.268  0.00  0.00    +0.000 C 
ATOM     20  C   UNL     1       2.354  15.983  20.649  0.00  0.00    +0.000 C 
ATOM     21  C   UNL     1       2.469  14.657  21.445  0.00  0.00    +0.000 C 
ATOM     22  C   UNL     1       3.708  16.842  20.703  0.00  0.00    +0.000 C 
ATOM     23  C   UNL     1       4.504  16.938  22.097  0.00  0.00    +0.000 C 
ATOM     24  C   UNL     1       6.100  16.865  22.093  0.00  0.00    +0.000 C 
ATOM     25  C   UNL     1       6.592  16.020  20.883  0.00  0.00    +0.000 C 
ATOM     26  C   UNL     1       5.997  14.615  21.155  0.00  0.00    +0.000 C 
ATOM     27  C   UNL     1       8.997  15.715  17.879  0.00  0.00    +0.000 C 
ENDROOT
BRANCH   7  28
ATOM     28  C   UNL     1       8.952  16.516  21.396  0.00  0.00    +0.000 C 
ATOM     29  C   UNL     1       9.425  15.934  22.681  0.00  0.00    +0.000 C 
ATOM     30  O   UNL     1       9.284  17.684  21.138  0.00  0.00    +0.000 OA
ENDBRANCH   7  28
BRANCH   1  31
ATOM     31  C   UNL     1      10.098  11.360  19.957  0.00  0.00    +0.000 C 
ATOM     32  O   UNL     1       9.293  10.443  20.073  0.00  0.00    +0.000 OA
BRANCH  31  34
ATOM     33  C   UNL     1      12.332  12.055  20.020  0.00  0.00    +0.000 C 
ATOM     34  O   UNL     1      11.221  11.488  20.719  0.00  0.00    +0.000 OA
ENDBRANCH  31  34
ENDBRANCH   1  31
TORSDOF 3
ENDMDL
