MODEL 1
REMARK VINA RESULT:      -7.7      0.000      0.000
REMARK  Name = 
REMARK  6 active torsions:
REMARK  status: ('A' for Active; 'I' for Inactive)
REMARK    1  A    between atoms: C_1  and  O_2
REMARK    2  A    between atoms: O_2  and  C_3
REMARK    3  A    between atoms: C_6  and  N_7
REMARK    4  A    between atoms: N_7  and  C_8
REMARK    5  A    between atoms: C_9  and  C_11
REMARK    6  A    between atoms: N_25  and  C_26
REMARK                            x       y       z     vdW  Elec       q    Type
REMARK                         _______ _______ _______ _____ _____    ______ ____
ROOT
ATOM      1  C   UNL     1      -0.794  11.665  21.214  0.00  0.00    +0.000 C 
ATOM      2  C   UNL     1      -0.898  12.986  20.977  0.00  0.00    +0.000 C 
ATOM      3  C   UNL     1      -0.109  13.895  20.137  0.00  0.00    +0.000 A 
ATOM      4  N   UNL     1       0.807  13.586  19.218  0.00  0.00    +0.000 NA
ATOM      5  C   UNL     1       1.444  14.640  18.672  0.00  0.00    +0.000 A 
ATOM      6  C   UNL     1       2.667  14.440  18.063  0.00  0.00    +0.000 A 
ATOM      7  C   UNL     1       3.439  15.516  17.616  0.00  0.00    +0.000 A 
ATOM      8  C   UNL     1       2.924  16.809  17.645  0.00  0.00    +0.000 A 
ATOM      9  C   UNL     1       1.677  17.045  18.207  0.00  0.00    +0.000 A 
ATOM     10  C   UNL     1       0.996  15.987  18.816  0.00  0.00    +0.000 A 
ATOM     11  C   UNL     1      -0.044  16.258  19.694  0.00  0.00    +0.000 A 
ATOM     12  C   UNL     1      -0.503  15.189  20.419  0.00  0.00    +0.000 A 
ATOM     13  C   UNL     1      -1.431  15.159  21.537  0.00  0.00    +0.000 C 
ATOM     14  O   UNL     1      -1.791  16.152  22.139  0.00  0.00    +0.000 OA
ATOM     15  N   UNL     1      -1.756  13.818  21.700  0.00  0.00    +0.000 N 
ENDROOT
BRANCH  15  16
ATOM     16  C   UNL     1      -2.930  13.450  22.366  0.00  0.00    +0.000 A 
ATOM     17  C   UNL     1      -4.124  13.413  21.637  0.00  0.00    +0.000 A 
ATOM     18  C   UNL     1      -5.318  13.123  22.279  0.00  0.00    +0.000 A 
ATOM     19  C   UNL     1      -5.312  12.841  23.639  0.00  0.00    +0.000 A 
ATOM     20  C   UNL     1      -4.114  12.876  24.369  0.00  0.00    +0.000 A 
ATOM     21  C   UNL     1      -2.927  13.207  23.739  0.00  0.00    +0.000 A 
ENDBRANCH  15  16
BRANCH   1  24
ATOM     22  N   UNL     1       0.315  10.096  19.674  0.00  0.00    +0.000 N 
ATOM     23  C   UNL     1      -0.724  10.392  18.689  0.00  0.00    +0.000 C 
ATOM     24  C   UNL     1       0.398  10.848  20.858  0.00  0.00    +0.000 C 
ATOM     25  O   UNL     1       1.317  10.782  21.667  0.00  0.00    +0.000 OA
BRANCH  22  29
ATOM     26  C   UNL     1       2.875   6.712  18.998  0.00  0.00    +0.000 A 
ATOM     27  C   UNL     1       2.173   6.840  20.190  0.00  0.00    +0.000 A 
ATOM     28  C   UNL     1       1.333   7.942  20.409  0.00  0.00    +0.000 A 
ATOM     29  C   UNL     1       1.189   8.964  19.455  0.00  0.00    +0.000 A 
ATOM     30  C   UNL     1       1.927   8.823  18.271  0.00  0.00    +0.000 A 
ATOM     31  C   UNL     1       2.761   7.716  18.044  0.00  0.00    +0.000 A 
BRANCH  26  33
ATOM     32  C   UNL     1       3.377   4.554  19.806  0.00  0.00    +0.000 C 
ATOM     33  O   UNL     1       3.664   5.602  18.888  0.00  0.00    +0.000 OA
ENDBRANCH  26  33
ENDBRANCH  22  29
ENDBRANCH   1  24
TORSDOF 4
ENDMDL
MODEL 2
REMARK VINA RESULT:      -7.6      0.425      1.263
REMARK  Name = 
REMARK  6 active torsions:
REMARK  status: ('A' for Active; 'I' for Inactive)
REMARK    1  A    between atoms: C_1  and  O_2
REMARK    2  A    between atoms: O_2  and  C_3
REMARK    3  A    between atoms: C_6  and  N_7
REMARK    4  A    between atoms: N_7  and  C_8
REMARK    5  A    between atoms: C_9  and  C_11
REMARK    6  A    between atoms: N_25  and  C_26
REMARK                            x       y       z     vdW  Elec       q    Type
REMARK                         _______ _______ _______ _____ _____    ______ ____
ROOT
ATOM      1  C   UNL     1      -0.761  11.737  21.160  0.00  0.00    +0.000 C 
ATOM      2  C   UNL     1      -0.822  13.057  20.910  0.00  0.00    +0.000 C 
ATOM      3  C   UNL     1       0.006  13.935  20.073  0.00  0.00    +0.000 A 
ATOM      4  N   UNL     1       0.925  13.591  19.170  0.00  0.00    +0.000 NA
ATOM      5  C   UNL     1       1.601  14.620  18.624  0.00  0.00    +0.000 A 
ATOM      6  C   UNL     1       2.825  14.378  18.035  0.00  0.00    +0.000 A 
ATOM      7  C   UNL     1       3.635  15.426  17.590  0.00  0.00    +0.000 A 
ATOM      8  C   UNL     1       3.159  16.735  17.599  0.00  0.00    +0.000 A 
ATOM      9  C   UNL     1       1.912  17.013  18.141  0.00  0.00    +0.000 A 
ATOM     10  C   UNL     1       1.191  15.981  18.749  0.00  0.00    +0.000 A 
ATOM     11  C   UNL     1       0.147  16.291  19.610  0.00  0.00    +0.000 A 
ATOM     12  C   UNL     1      -0.354  15.243  20.338  0.00  0.00    +0.000 A 
ATOM     13  C   UNL     1      -1.298  15.251  21.442  0.00  0.00    +0.000 C 
ATOM     14  O   UNL     1      -1.637  16.260  22.030  0.00  0.00    +0.000 OA
ATOM     15  N   UNL     1      -1.665  13.922  21.612  0.00  0.00    +0.000 N 
ENDROOT
BRANCH  15  16
ATOM     16  C   UNL     1      -2.860  13.595  22.265  0.00  0.00    +0.000 A 
ATOM     17  C   UNL     1      -2.814  13.327  23.638  0.00  0.00    +0.000 A 
ATOM     18  C   UNL     1      -3.963  12.929  24.303  0.00  0.00    +0.000 A 
ATOM     19  C   UNL     1      -5.159  12.829  23.603  0.00  0.00    +0.000 A 
ATOM     20  C   UNL     1      -5.203  13.100  22.227  0.00  0.00    +0.000 A 
ATOM     21  C   UNL     1      -4.049  13.456  21.552  0.00  0.00    +0.000 A 
ENDBRANCH  15  16
BRANCH   1  24
ATOM     22  N   UNL     1       0.305  10.090  19.673  0.00  0.00    +0.000 N 
ATOM     23  C   UNL     1      -0.731  10.373  18.682  0.00  0.00    +0.000 C 
ATOM     24  C   UNL     1       0.411  10.882  20.829  0.00  0.00    +0.000 C 
ATOM     25  O   UNL     1       1.332  10.824  21.636  0.00  0.00    +0.000 OA
BRANCH  22  29
ATOM     26  C   UNL     1       2.860   6.673  19.159  0.00  0.00    +0.000 A 
ATOM     27  C   UNL     1       2.728   7.615  18.146  0.00  0.00    +0.000 A 
ATOM     28  C   UNL     1       1.898   8.733  18.316  0.00  0.00    +0.000 A 
ATOM     29  C   UNL     1       1.154   8.931  19.491  0.00  0.00    +0.000 A 
ATOM     30  C   UNL     1       1.287   7.954  20.487  0.00  0.00    +0.000 A 
ATOM     31  C   UNL     1       2.125   6.838  20.326  0.00  0.00    +0.000 A 
BRANCH  26  33
ATOM     32  C   UNL     1       3.652   5.136  17.554  0.00  0.00    +0.000 C 
ATOM     33  O   UNL     1       3.693   5.624  18.890  0.00  0.00    +0.000 OA
ENDBRANCH  26  33
ENDBRANCH  22  29
ENDBRANCH   1  24
TORSDOF 4
ENDMDL
MODEL 3
REMARK VINA RESULT:      -7.4      3.336      6.152
REMARK  Name = 
REMARK  6 active torsions:
REMARK  status: ('A' for Active; 'I' for Inactive)
REMARK    1  A    between atoms: C_1  and  O_2
REMARK    2  A    between atoms: O_2  and  C_3
REMARK    3  A    between atoms: C_6  and  N_7
REMARK    4  A    between atoms: N_7  and  C_8
REMARK    5  A    between atoms: C_9  and  C_11
REMARK    6  A    between atoms: N_25  and  C_26
REMARK                            x       y       z     vdW  Elec       q    Type
REMARK                         _______ _______ _______ _____ _____    ______ ____
ROOT
ATOM      1  C   UNL     1      -1.712  12.560  20.005  0.00  0.00    +0.000 C 
ATOM      2  C   UNL     1      -1.013  11.704  20.771  0.00  0.00    +0.000 C 
ATOM      3  C   UNL     1      -0.086  10.617  20.430  0.00  0.00    +0.000 A 
ATOM      4  N   UNL     1       0.461  10.338  19.246  0.00  0.00    +0.000 NA
ATOM      5  C   UNL     1       1.200   9.212  19.212  0.00  0.00    +0.000 A 
ATOM      6  C   UNL     1       1.439   8.608  17.994  0.00  0.00    +0.000 A 
ATOM      7  C   UNL     1       2.068   7.362  17.915  0.00  0.00    +0.000 A 
ATOM      8  C   UNL     1       2.599   6.769  19.058  0.00  0.00    +0.000 A 
ATOM      9  C   UNL     1       2.419   7.371  20.296  0.00  0.00    +0.000 A 
ATOM     10  C   UNL     1       1.631   8.521  20.383  0.00  0.00    +0.000 A 
ATOM     11  C   UNL     1       1.133   8.917  21.617  0.00  0.00    +0.000 A 
ATOM     12  C   UNL     1       0.188   9.910  21.585  0.00  0.00    +0.000 A 
ATOM     13  C   UNL     1      -0.657  10.418  22.652  0.00  0.00    +0.000 C 
ATOM     14  O   UNL     1      -0.787   9.865  23.728  0.00  0.00    +0.000 OA
ATOM     15  N   UNL     1      -1.209  11.589  22.149  0.00  0.00    +0.000 N 
ENDROOT
BRANCH  15  16
ATOM     16  C   UNL     1      -1.710  12.567  23.017  0.00  0.00    +0.000 A 
ATOM     17  C   UNL     1      -3.020  12.427  23.489  0.00  0.00    +0.000 A 
ATOM     18  C   UNL     1      -3.574  13.412  24.291  0.00  0.00    +0.000 A 
ATOM     19  C   UNL     1      -2.810  14.517  24.645  0.00  0.00    +0.000 A 
ATOM     20  C   UNL     1      -1.495  14.654  24.173  0.00  0.00    +0.000 A 
ATOM     21  C   UNL     1      -0.954  13.693  23.337  0.00  0.00    +0.000 A 
ENDBRANCH  15  16
BRANCH   1  24
ATOM     22  N   UNL     1      -3.061  11.684  18.141  0.00  0.00    +0.000 N 
ATOM     23  C   UNL     1      -4.152  11.461  19.088  0.00  0.00    +0.000 C 
ATOM     24  C   UNL     1      -1.914  12.391  18.540  0.00  0.00    +0.000 C 
ATOM     25  O   UNL     1      -1.021  12.761  17.786  0.00  0.00    +0.000 OA
BRANCH  22  29
ATOM     26  C   UNL     1      -3.262   9.946  14.216  0.00  0.00    +0.000 A 
ATOM     27  C   UNL     1      -4.197  10.892  14.618  0.00  0.00    +0.000 A 
ATOM     28  C   UNL     1      -4.129  11.463  15.898  0.00  0.00    +0.000 A 
ATOM     29  C   UNL     1      -3.141  11.088  16.824  0.00  0.00    +0.000 A 
ATOM     30  C   UNL     1      -2.224  10.115  16.401  0.00  0.00    +0.000 A 
ATOM     31  C   UNL     1      -2.283   9.548  15.118  0.00  0.00    +0.000 A 
BRANCH  26  33
ATOM     32  C   UNL     1      -4.591   9.887  12.268  0.00  0.00    +0.000 C 
ATOM     33  O   UNL     1      -3.420   9.454  12.951  0.00  0.00    +0.000 OA
ENDBRANCH  26  33
ENDBRANCH  22  29
ENDBRANCH   1  24
TORSDOF 4
ENDMDL
MODEL 4
REMARK VINA RESULT:      -7.3      1.045      1.479
REMARK  Name = 
REMARK  6 active torsions:
REMARK  status: ('A' for Active; 'I' for Inactive)
REMARK    1  A    between atoms: C_1  and  O_2
REMARK    2  A    between atoms: O_2  and  C_3
REMARK    3  A    between atoms: C_6  and  N_7
REMARK    4  A    between atoms: N_7  and  C_8
REMARK    5  A    between atoms: C_9  and  C_11
REMARK    6  A    between atoms: N_25  and  C_26
REMARK                            x       y       z     vdW  Elec       q    Type
REMARK                         _______ _______ _______ _____ _____    ______ ____
ROOT
ATOM      1  C   UNL     1      -1.480  11.902  21.484  0.00  0.00    +0.000 C 
ATOM      2  C   UNL     1      -1.701  13.224  21.374  0.00  0.00    +0.000 C 
ATOM      3  C   UNL     1      -1.020  14.270  20.600  0.00  0.00    +0.000 A 
ATOM      4  N   UNL     1      -0.115  14.124  19.630  0.00  0.00    +0.000 NA
ATOM      5  C   UNL     1       0.412  15.273  19.167  0.00  0.00    +0.000 A 
ATOM      6  C   UNL     1       1.625  15.233  18.508  0.00  0.00    +0.000 A 
ATOM      7  C   UNL     1       2.288  16.407  18.141  0.00  0.00    +0.000 A 
ATOM      8  C   UNL     1       1.670  17.644  18.303  0.00  0.00    +0.000 A 
ATOM      9  C   UNL     1       0.429  17.721  18.920  0.00  0.00    +0.000 A 
ATOM     10  C   UNL     1      -0.140  16.559  19.446  0.00  0.00    +0.000 A 
ATOM     11  C   UNL     1      -1.167  16.660  20.375  0.00  0.00    +0.000 A 
ATOM     12  C   UNL     1      -1.510  15.495  21.011  0.00  0.00    +0.000 A 
ATOM     13  C   UNL     1      -2.391  15.285  22.147  0.00  0.00    +0.000 C 
ATOM     14  O   UNL     1      -2.810  16.186  22.848  0.00  0.00    +0.000 OA
ATOM     15  N   UNL     1      -2.599  13.912  22.194  0.00  0.00    +0.000 N 
ENDROOT
BRANCH  15  16
ATOM     16  C   UNL     1      -3.714  13.386  22.857  0.00  0.00    +0.000 A 
ATOM     17  C   UNL     1      -4.957  13.450  22.217  0.00  0.00    +0.000 A 
ATOM     18  C   UNL     1      -6.095  13.005  22.872  0.00  0.00    +0.000 A 
ATOM     19  C   UNL     1      -5.984  12.470  24.149  0.00  0.00    +0.000 A 
ATOM     20  C   UNL     1      -4.736  12.405  24.788  0.00  0.00    +0.000 A 
ATOM     21  C   UNL     1      -3.605  12.888  24.154  0.00  0.00    +0.000 A 
ENDBRANCH  15  16
BRANCH   1  24
ATOM     22  N   UNL     1      -0.322  10.516  19.811  0.00  0.00    +0.000 N 
ATOM     23  C   UNL     1      -1.446  10.744  18.904  0.00  0.00    +0.000 C 
ATOM     24  C   UNL     1      -0.238  11.225  21.021  0.00  0.00    +0.000 C 
ATOM     25  O   UNL     1       0.732  11.220  21.770  0.00  0.00    +0.000 OA
BRANCH  22  29
ATOM     26  C   UNL     1       2.583   7.491  18.876  0.00  0.00    +0.000 A 
ATOM     27  C   UNL     1       2.206   8.427  17.921  0.00  0.00    +0.000 A 
ATOM     28  C   UNL     1       1.261   9.418  18.228  0.00  0.00    +0.000 A 
ATOM     29  C   UNL     1       0.644   9.488  19.488  0.00  0.00    +0.000 A 
ATOM     30  C   UNL     1       1.025   8.517  20.425  0.00  0.00    +0.000 A 
ATOM     31  C   UNL     1       1.978   7.530  20.126  0.00  0.00    +0.000 A 
BRANCH  26  33
ATOM     32  C   UNL     1       4.257   6.921  17.314  0.00  0.00    +0.000 C 
ATOM     33  O   UNL     1       3.509   6.571  18.473  0.00  0.00    +0.000 OA
ENDBRANCH  26  33
ENDBRANCH  22  29
ENDBRANCH   1  24
TORSDOF 4
ENDMDL
MODEL 5
REMARK VINA RESULT:      -7.2      0.977      1.450
REMARK  Name = 
REMARK  6 active torsions:
REMARK  status: ('A' for Active; 'I' for Inactive)
REMARK    1  A    between atoms: C_1  and  O_2
REMARK    2  A    between atoms: O_2  and  C_3
REMARK    3  A    between atoms: C_6  and  N_7
REMARK    4  A    between atoms: N_7  and  C_8
REMARK    5  A    between atoms: C_9  and  C_11
REMARK    6  A    between atoms: N_25  and  C_26
REMARK                            x       y       z     vdW  Elec       q    Type
REMARK                         _______ _______ _______ _____ _____    ______ ____
ROOT
ATOM      1  C   UNL     1      -1.504  12.153  21.407  0.00  0.00    +0.000 C 
ATOM      2  C   UNL     1      -1.728  13.476  21.314  0.00  0.00    +0.000 C 
ATOM      3  C   UNL     1      -1.065  14.530  20.536  0.00  0.00    +0.000 A 
ATOM      4  N   UNL     1      -0.180  14.394  19.547  0.00  0.00    +0.000 NA
ATOM      5  C   UNL     1       0.337  15.549  19.084  0.00  0.00    +0.000 A 
ATOM      6  C   UNL     1       1.536  15.516  18.400  0.00  0.00    +0.000 A 
ATOM      7  C   UNL     1       2.191  16.695  18.031  0.00  0.00    +0.000 A 
ATOM      8  C   UNL     1       1.575  17.929  18.217  0.00  0.00    +0.000 A 
ATOM      9  C   UNL     1       0.346  17.999  18.860  0.00  0.00    +0.000 A 
ATOM     10  C   UNL     1      -0.210  16.831  19.387  0.00  0.00    +0.000 A 
ATOM     11  C   UNL     1      -1.219  16.922  20.337  0.00  0.00    +0.000 A 
ATOM     12  C   UNL     1      -1.547  15.750  20.969  0.00  0.00    +0.000 A 
ATOM     13  C   UNL     1      -2.405  15.528  22.120  0.00  0.00    +0.000 C 
ATOM     14  O   UNL     1      -2.810  16.422  22.839  0.00  0.00    +0.000 OA
ATOM     15  N   UNL     1      -2.610  14.155  22.159  0.00  0.00    +0.000 N 
ENDROOT
BRANCH  15  16
ATOM     16  C   UNL     1      -3.711  13.621  22.839  0.00  0.00    +0.000 A 
ATOM     17  C   UNL     1      -3.504  13.073  24.110  0.00  0.00    +0.000 A 
ATOM     18  C   UNL     1      -4.556  12.471  24.782  0.00  0.00    +0.000 A 
ATOM     19  C   UNL     1      -5.816  12.444  24.198  0.00  0.00    +0.000 A 
ATOM     20  C   UNL     1      -6.022  12.997  22.924  0.00  0.00    +0.000 A 
ATOM     21  C   UNL     1      -4.964  13.560  22.233  0.00  0.00    +0.000 A 
ENDBRANCH  15  16
BRANCH   1  24
ATOM     22  N   UNL     1      -0.408  10.679  19.768  0.00  0.00    +0.000 N 
ATOM     23  C   UNL     1      -1.597  10.800  18.925  0.00  0.00    +0.000 C 
ATOM     24  C   UNL     1      -0.271  11.482  20.913  0.00  0.00    +0.000 C 
ATOM     25  O   UNL     1       0.746  11.567  21.592  0.00  0.00    +0.000 OA
BRANCH  22  29
ATOM     26  C   UNL     1       2.468   7.627  18.828  0.00  0.00    +0.000 A 
ATOM     27  C   UNL     1       1.926   7.719  20.105  0.00  0.00    +0.000 A 
ATOM     28  C   UNL     1       0.984   8.712  20.410  0.00  0.00    +0.000 A 
ATOM     29  C   UNL     1       0.572   9.661  19.458  0.00  0.00    +0.000 A 
ATOM     30  C   UNL     1       1.152   9.560  18.185  0.00  0.00    +0.000 A 
ATOM     31  C   UNL     1       2.088   8.561  17.872  0.00  0.00    +0.000 A 
BRANCH  26  33
ATOM     32  C   UNL     1       3.141   5.436  19.385  0.00  0.00    +0.000 C 
ATOM     33  O   UNL     1       3.376   6.624  18.638  0.00  0.00    +0.000 OA
ENDBRANCH  26  33
ENDBRANCH  22  29
ENDBRANCH   1  24
TORSDOF 4
ENDMDL
MODEL 6
REMARK VINA RESULT:      -7.0      1.458      1.767
REMARK  Name = 
REMARK  6 active torsions:
REMARK  status: ('A' for Active; 'I' for Inactive)
REMARK    1  A    between atoms: C_1  and  O_2
REMARK    2  A    between atoms: O_2  and  C_3
REMARK    3  A    between atoms: C_6  and  N_7
REMARK    4  A    between atoms: N_7  and  C_8
REMARK    5  A    between atoms: C_9  and  C_11
REMARK    6  A    between atoms: N_25  and  C_26
REMARK                            x       y       z     vdW  Elec       q    Type
REMARK                         _______ _______ _______ _____ _____    ______ ____
ROOT
ATOM      1  C   UNL     1      -1.541  11.545  20.585  0.00  0.00    +0.000 C 
ATOM      2  C   UNL     1      -0.983  12.725  20.912  0.00  0.00    +0.000 C 
ATOM      3  C   UNL     1       0.193  13.431  20.389  0.00  0.00    +0.000 A 
ATOM      4  N   UNL     1       0.898  13.160  19.289  0.00  0.00    +0.000 NA
ATOM      5  C   UNL     1       1.994  13.924  19.113  0.00  0.00    +0.000 A 
ATOM      6  C   UNL     1       3.002  13.466  18.288  0.00  0.00    +0.000 A 
ATOM      7  C   UNL     1       4.220  14.143  18.189  0.00  0.00    +0.000 A 
ATOM      8  C   UNL     1       4.391  15.377  18.811  0.00  0.00    +0.000 A 
ATOM      9  C   UNL     1       3.382  15.893  19.612  0.00  0.00    +0.000 A 
ATOM     10  C   UNL     1       2.242  15.120  19.850  0.00  0.00    +0.000 A 
ATOM     11  C   UNL     1       1.412  15.436  20.917  0.00  0.00    +0.000 A 
ATOM     12  C   UNL     1       0.455  14.503  21.221  0.00  0.00    +0.000 A 
ATOM     13  C   UNL     1      -0.435  14.429  22.366  0.00  0.00    +0.000 C 
ATOM     14  O   UNL     1      -0.307  15.114  23.363  0.00  0.00    +0.000 OA
ATOM     15  N   UNL     1      -1.374  13.461  22.033  0.00  0.00    +0.000 N 
ENDROOT
BRANCH  15  16
ATOM     16  C   UNL     1      -2.617  13.428  22.676  0.00  0.00    +0.000 A 
ATOM     17  C   UNL     1      -2.787  12.544  23.748  0.00  0.00    +0.000 A 
ATOM     18  C   UNL     1      -4.024  12.432  24.362  0.00  0.00    +0.000 A 
ATOM     19  C   UNL     1      -5.080  13.222  23.925  0.00  0.00    +0.000 A 
ATOM     20  C   UNL     1      -4.907  14.110  22.851  0.00  0.00    +0.000 A 
ATOM     21  C   UNL     1      -3.684  14.193  22.209  0.00  0.00    +0.000 A 
ENDBRANCH  15  16
BRANCH   1  24
ATOM     22  N   UNL     1       0.090   9.712  20.388  0.00  0.00    +0.000 N 
ATOM     23  C   UNL     1       0.150   9.663  21.848  0.00  0.00    +0.000 C 
ATOM     24  C   UNL     1      -0.872  10.512  19.749  0.00  0.00    +0.000 C 
ATOM     25  O   UNL     1      -1.103  10.503  18.545  0.00  0.00    +0.000 OA
BRANCH  22  29
ATOM     26  C   UNL     1       3.024   7.585  18.079  0.00  0.00    +0.000 A 
ATOM     27  C   UNL     1       2.635   7.119  19.329  0.00  0.00    +0.000 A 
ATOM     28  C   UNL     1       1.674   7.810  20.080  0.00  0.00    +0.000 A 
ATOM     29  C   UNL     1       1.091   9.003  19.619  0.00  0.00    +0.000 A 
ATOM     30  C   UNL     1       1.518   9.464  18.366  0.00  0.00    +0.000 A 
ATOM     31  C   UNL     1       2.473   8.770  17.606  0.00  0.00    +0.000 A 
BRANCH  26  33
ATOM     32  C   UNL     1       3.817   5.427  17.552  0.00  0.00    +0.000 C 
ATOM     33  O   UNL     1       3.967   6.837  17.432  0.00  0.00    +0.000 OA
ENDBRANCH  26  33
ENDBRANCH  22  29
ENDBRANCH   1  24
TORSDOF 4
ENDMDL
MODEL 7
REMARK VINA RESULT:      -7.0      2.080      2.322
REMARK  Name = 
REMARK  6 active torsions:
REMARK  status: ('A' for Active; 'I' for Inactive)
REMARK    1  A    between atoms: C_1  and  O_2
REMARK    2  A    between atoms: O_2  and  C_3
REMARK    3  A    between atoms: C_6  and  N_7
REMARK    4  A    between atoms: N_7  and  C_8
REMARK    5  A    between atoms: C_9  and  C_11
REMARK    6  A    between atoms: N_25  and  C_26
REMARK                            x       y       z     vdW  Elec       q    Type
REMARK                         _______ _______ _______ _____ _____    ______ ____
ROOT
ATOM      1  C   UNL     1      -1.210  11.606  22.134  0.00  0.00    +0.000 C 
ATOM      2  C   UNL     1      -1.109  12.909  22.452  0.00  0.00    +0.000 C 
ATOM      3  C   UNL     1      -0.013  13.874  22.293  0.00  0.00    +0.000 A 
ATOM      4  N   UNL     1       1.111  13.739  21.588  0.00  0.00    +0.000 NA
ATOM      5  C   UNL     1       1.984  14.758  21.710  0.00  0.00    +0.000 A 
ATOM      6  C   UNL     1       3.311  14.540  21.398  0.00  0.00    +0.000 A 
ATOM      7  C   UNL     1       4.283  15.514  21.648  0.00  0.00    +0.000 A 
ATOM      8  C   UNL     1       3.910  16.783  22.084  0.00  0.00    +0.000 A 
ATOM      9  C   UNL     1       2.578  17.054  22.364  0.00  0.00    +0.000 A 
ATOM     10  C   UNL     1       1.644  16.018  22.285  0.00  0.00    +0.000 A 
ATOM     11  C   UNL     1       0.411  16.160  22.907  0.00  0.00    +0.000 A 
ATOM     12  C   UNL     1      -0.352  15.023  22.981  0.00  0.00    +0.000 A 
ATOM     13  C   UNL     1      -1.582  14.780  23.715  0.00  0.00    +0.000 C 
ATOM     14  O   UNL     1      -2.017  15.532  24.566  0.00  0.00    +0.000 OA
ATOM     15  N   UNL     1      -2.067  13.577  23.217  0.00  0.00    +0.000 N 
ENDROOT
BRANCH  15  16
ATOM     16  C   UNL     1      -3.421  13.248  23.354  0.00  0.00    +0.000 A 
ATOM     17  C   UNL     1      -4.305  13.640  22.342  0.00  0.00    +0.000 A 
ATOM     18  C   UNL     1      -5.662  13.395  22.478  0.00  0.00    +0.000 A 
ATOM     19  C   UNL     1      -6.130  12.734  23.607  0.00  0.00    +0.000 A 
ATOM     20  C   UNL     1      -5.241  12.340  24.620  0.00  0.00    +0.000 A 
ATOM     21  C   UNL     1      -3.891  12.622  24.507  0.00  0.00    +0.000 A 
ENDBRANCH  15  16
BRANCH   1  24
ATOM     22  N   UNL     1       0.080  10.390  20.425  0.00  0.00    +0.000 N 
ATOM     23  C   UNL     1      -0.663  11.122  19.401  0.00  0.00    +0.000 C 
ATOM     24  C   UNL     1      -0.050  10.744  21.779  0.00  0.00    +0.000 C 
ATOM     25  O   UNL     1       0.641  10.299  22.689  0.00  0.00    +0.000 OA
BRANCH  22  29
ATOM     26  C   UNL     1       2.468   7.003  19.289  0.00  0.00    +0.000 A 
ATOM     27  C   UNL     1       2.282   8.063  18.410  0.00  0.00    +0.000 A 
ATOM     28  C   UNL     1       1.506   9.171  18.783  0.00  0.00    +0.000 A 
ATOM     29  C   UNL     1       0.871   9.243  20.034  0.00  0.00    +0.000 A 
ATOM     30  C   UNL     1       1.056   8.150  20.892  0.00  0.00    +0.000 A 
ATOM     31  C   UNL     1       1.840   7.044  20.528  0.00  0.00    +0.000 A 
BRANCH  26  33
ATOM     32  C   UNL     1       4.109   6.300  17.747  0.00  0.00    +0.000 C 
ATOM     33  O   UNL     1       3.240   5.975  18.826  0.00  0.00    +0.000 OA
ENDBRANCH  26  33
ENDBRANCH  22  29
ENDBRANCH   1  24
TORSDOF 4
ENDMDL
MODEL 8
REMARK VINA RESULT:      -6.9      1.505      1.824
REMARK  Name = 
REMARK  6 active torsions:
REMARK  status: ('A' for Active; 'I' for Inactive)
REMARK    1  A    between atoms: C_1  and  O_2
REMARK    2  A    between atoms: O_2  and  C_3
REMARK    3  A    between atoms: C_6  and  N_7
REMARK    4  A    between atoms: N_7  and  C_8
REMARK    5  A    between atoms: C_9  and  C_11
REMARK    6  A    between atoms: N_25  and  C_26
REMARK                            x       y       z     vdW  Elec       q    Type
REMARK                         _______ _______ _______ _____ _____    ______ ____
ROOT
ATOM      1  C   UNL     1      -1.557  11.482  20.560  0.00  0.00    +0.000 C 
ATOM      2  C   UNL     1      -1.009  12.661  20.905  0.00  0.00    +0.000 C 
ATOM      3  C   UNL     1       0.164  13.383  20.395  0.00  0.00    +0.000 A 
ATOM      4  N   UNL     1       0.873  13.132  19.293  0.00  0.00    +0.000 NA
ATOM      5  C   UNL     1       1.964  13.907  19.131  0.00  0.00    +0.000 A 
ATOM      6  C   UNL     1       2.977  13.467  18.302  0.00  0.00    +0.000 A 
ATOM      7  C   UNL     1       4.191  14.155  18.215  0.00  0.00    +0.000 A 
ATOM      8  C   UNL     1       4.351  15.382  18.854  0.00  0.00    +0.000 A 
ATOM      9  C   UNL     1       3.335  15.879  19.659  0.00  0.00    +0.000 A 
ATOM     10  C   UNL     1       2.201  15.095  19.884  0.00  0.00    +0.000 A 
ATOM     11  C   UNL     1       1.366  15.389  20.953  0.00  0.00    +0.000 A 
ATOM     12  C   UNL     1       0.415  14.445  21.242  0.00  0.00    +0.000 A 
ATOM     13  C   UNL     1      -0.477  14.349  22.384  0.00  0.00    +0.000 C 
ATOM     14  O   UNL     1      -0.356  15.022  23.391  0.00  0.00    +0.000 OA
ATOM     15  N   UNL     1      -1.408  13.379  22.035  0.00  0.00    +0.000 N 
ENDROOT
BRANCH  15  16
ATOM     16  C   UNL     1      -2.652  13.328  22.675  0.00  0.00    +0.000 A 
ATOM     17  C   UNL     1      -3.655  14.206  22.247  0.00  0.00    +0.000 A 
ATOM     18  C   UNL     1      -4.875  14.233  22.904  0.00  0.00    +0.000 A 
ATOM     19  C   UNL     1      -5.101  13.365  23.965  0.00  0.00    +0.000 A 
ATOM     20  C   UNL     1      -4.095  12.484  24.391  0.00  0.00    +0.000 A 
ATOM     21  C   UNL     1      -2.861  12.485  23.765  0.00  0.00    +0.000 A 
ENDBRANCH  15  16
BRANCH   1  24
ATOM     22  N   UNL     1       0.109   9.683  20.336  0.00  0.00    +0.000 N 
ATOM     23  C   UNL     1       0.189   9.631  21.794  0.00  0.00    +0.000 C 
ATOM     24  C   UNL     1      -0.878  10.466  19.712  0.00  0.00    +0.000 C 
ATOM     25  O   UNL     1      -1.125  10.455  18.511  0.00  0.00    +0.000 OA
BRANCH  22  29
ATOM     26  C   UNL     1       3.126   7.667  18.034  0.00  0.00    +0.000 A 
ATOM     27  C   UNL     1       2.549   8.842  17.568  0.00  0.00    +0.000 A 
ATOM     28  C   UNL     1       1.568   9.503  18.322  0.00  0.00    +0.000 A 
ATOM     29  C   UNL     1       1.113   8.997  19.551  0.00  0.00    +0.000 A 
ATOM     30  C   UNL     1       1.694   7.798  19.987  0.00  0.00    +0.000 A 
ATOM     31  C   UNL     1       2.684   7.138  19.241  0.00  0.00    +0.000 A 
BRANCH  26  33
ATOM     32  C   UNL     1       4.722   5.954  17.747  0.00  0.00    +0.000 C 
ATOM     33  O   UNL     1       4.071   7.105  17.222  0.00  0.00    +0.000 OA
ENDBRANCH  26  33
ENDBRANCH  22  29
ENDBRANCH   1  24
TORSDOF 4
ENDMDL
MODEL 9
REMARK VINA RESULT:      -6.8      1.031      1.325
REMARK  Name = 
REMARK  6 active torsions:
REMARK  status: ('A' for Active; 'I' for Inactive)
REMARK    1  A    between atoms: C_1  and  O_2
REMARK    2  A    between atoms: O_2  and  C_3
REMARK    3  A    between atoms: C_6  and  N_7
REMARK    4  A    between atoms: N_7  and  C_8
REMARK    5  A    between atoms: C_9  and  C_11
REMARK    6  A    between atoms: N_25  and  C_26
REMARK                            x       y       z     vdW  Elec       q    Type
REMARK                         _______ _______ _______ _____ _____    ______ ____
ROOT
ATOM      1  C   UNL     1      -0.644  11.789  21.261  0.00  0.00    +0.000 C 
ATOM      2  C   UNL     1      -0.573  13.129  21.357  0.00  0.00    +0.000 C 
ATOM      3  C   UNL     1       0.441  14.091  20.908  0.00  0.00    +0.000 A 
ATOM      4  N   UNL     1       1.474  13.881  20.091  0.00  0.00    +0.000 NA
ATOM      5  C   UNL     1       2.300  14.935  19.936  0.00  0.00    +0.000 A 
ATOM      6  C   UNL     1       3.587  14.713  19.489  0.00  0.00    +0.000 A 
ATOM      7  C   UNL     1       4.530  15.745  19.455  0.00  0.00    +0.000 A 
ATOM      8  C   UNL     1       4.148  17.055  19.735  0.00  0.00    +0.000 A 
ATOM      9  C   UNL     1       2.848  17.324  20.142  0.00  0.00    +0.000 A 
ATOM     10  C   UNL     1       1.968  16.259  20.349  0.00  0.00    +0.000 A 
ATOM     11  C   UNL     1       0.816  16.459  21.099  0.00  0.00    +0.000 A 
ATOM     12  C   UNL     1       0.131  15.325  21.448  0.00  0.00    +0.000 A 
ATOM     13  C   UNL     1      -0.984  15.162  22.366  0.00  0.00    +0.000 C 
ATOM     14  O   UNL     1      -1.348  16.027  23.141  0.00  0.00    +0.000 OA
ATOM     15  N   UNL     1      -1.463  13.880  22.130  0.00  0.00    +0.000 N 
ENDROOT
BRANCH  15  16
ATOM     16  C   UNL     1      -2.769  13.534  22.493  0.00  0.00    +0.000 A 
ATOM     17  C   UNL     1      -3.805  13.813  21.594  0.00  0.00    +0.000 A 
ATOM     18  C   UNL     1      -5.118  13.550  21.949  0.00  0.00    +0.000 A 
ATOM     19  C   UNL     1      -5.392  12.982  23.188  0.00  0.00    +0.000 A 
ATOM     20  C   UNL     1      -4.352  12.701  24.087  0.00  0.00    +0.000 A 
ATOM     21  C   UNL     1      -3.044  13.002  23.752  0.00  0.00    +0.000 A 
ENDBRANCH  15  16
BRANCH   1  24
ATOM     22  N   UNL     1       0.402  10.217  19.682  0.00  0.00    +0.000 N 
ATOM     23  C   UNL     1      -0.601  10.606  18.693  0.00  0.00    +0.000 C 
ATOM     24  C   UNL     1       0.507  10.920  20.894  0.00  0.00    +0.000 C 
ATOM     25  O   UNL     1       1.406  10.773  21.714  0.00  0.00    +0.000 OA
BRANCH  22  29
ATOM     26  C   UNL     1       2.857   6.761  18.973  0.00  0.00    +0.000 A 
ATOM     27  C   UNL     1       2.717   7.741  17.998  0.00  0.00    +0.000 A 
ATOM     28  C   UNL     1       1.920   8.871  18.231  0.00  0.00    +0.000 A 
ATOM     29  C   UNL     1       1.216   9.046  19.435  0.00  0.00    +0.000 A 
ATOM     30  C   UNL     1       1.356   8.032  20.393  0.00  0.00    +0.000 A 
ATOM     31  C   UNL     1       2.161   6.903  20.168  0.00  0.00    +0.000 A 
BRANCH  26  33
ATOM     32  C   UNL     1       3.467   4.528  19.424  0.00  0.00    +0.000 C 
ATOM     33  O   UNL     1       3.655   5.703  18.644  0.00  0.00    +0.000 OA
ENDBRANCH  26  33
ENDBRANCH  22  29
ENDBRANCH   1  24
TORSDOF 4
ENDMDL
