MODEL 1
REMARK VINA RESULT:      -8.3      0.000      0.000
REMARK  Name = 
REMARK  8 active torsions:
REMARK  status: ('A' for Active; 'I' for Inactive)
REMARK    1  A    between atoms: C_1  and  O_2
REMARK    2  A    between atoms: O_2  and  C_3
REMARK    3  A    between atoms: C_9  and  C_10
REMARK    4  A    between atoms: C_10  and  C_12
REMARK    5  A    between atoms: C_17  and  C_19
REMARK    6  A    between atoms: C_23  and  N_24
REMARK    7  A    between atoms: N_24  and  C_25
REMARK    8  A    between atoms: N_24  and  C_26
REMARK                            x       y       z     vdW  Elec       q    Type
REMARK                         _______ _______ _______ _____ _____    ______ ____
ROOT
ATOM      1  C   UNL     1       3.370   2.809  18.731  0.00  0.00    +0.000 C 
ATOM      2  C   UNL     1       1.935   2.254  18.938  0.00  0.00    +0.000 C 
ATOM      3  C   UNL     1       0.889   3.365  19.130  0.00  0.00    +0.000 C 
ATOM      4  C   UNL     1       1.329   4.427  20.145  0.00  0.00    +0.000 C 
ATOM      5  N   UNL     1       2.715   4.840  19.899  0.00  0.00    +0.000 N 
ATOM      6  C   UNL     1       3.246   6.112  19.685  0.00  0.00    +0.000 C 
ATOM      7  O   UNL     1       4.471   6.273  19.649  0.00  0.00    +0.000 OA
ATOM      8  C   UNL     1       3.671   3.737  19.896  0.00  0.00    +0.000 C 
ENDROOT
BRANCH   6   9
ATOM      9  C   UNL     1       2.439   7.340  19.450  0.00  0.00    +0.000 A 
ATOM     10  C   UNL     1       2.370   7.769  18.122  0.00  0.00    +0.000 A 
ATOM     11  C   UNL     1       1.517   8.807  17.762  0.00  0.00    +0.000 A 
ATOM     12  C   UNL     1       0.749   9.428  18.744  0.00  0.00    +0.000 A 
ATOM     13  C   UNL     1       0.788   9.048  20.098  0.00  0.00    +0.000 A 
ATOM     14  C   UNL     1       1.638   7.960  20.416  0.00  0.00    +0.000 A 
BRANCH  13  15
ATOM     15  N   UNL     1       0.080   9.728  21.077  0.00  0.00    +0.000 N 
ATOM     16  C   UNL     1       0.006  11.189  21.081  0.00  0.00    +0.000 C 
ATOM     17  C   UNL     1      -0.224   9.109  22.366  0.00  0.00    +0.000 C 
ENDBRANCH  13  15
ENDBRANCH   6   9
BRANCH   1  18
ATOM     18  C   UNL     1       3.520   3.429  17.332  0.00  0.00    +0.000 C 
ATOM     19  O   UNL     1       2.519   3.508  16.607  0.00  0.00    +0.000 OA
BRANCH  18  26
ATOM     20  C   UNL     1       6.039   4.235  17.277  0.00  0.00    +0.000 A 
ATOM     21  C   UNL     1       7.143   4.507  16.427  0.00  0.00    +0.000 A 
ATOM     22  C   UNL     1       7.028   4.500  15.038  0.00  0.00    +0.000 A 
ATOM     23  C   UNL     1       5.790   4.261  14.480  0.00  0.00    +0.000 A 
ATOM     24  F   UNL     1       5.651   4.265  13.148  0.00  0.00    +0.000 F 
ATOM     25  C   UNL     1       4.695   3.996  15.289  0.00  0.00    +0.000 A 
ATOM     26  C   UNL     1       4.789   3.940  16.707  0.00  0.00    +0.000 A 
BRANCH  20  28
ATOM     27  C   UNL     1       7.447   5.249  18.941  0.00  0.00    +0.000 C 
ATOM     28  O   UNL     1       6.414   4.356  18.583  0.00  0.00    +0.000 OA
ENDBRANCH  20  28
ENDBRANCH  18  26
ENDBRANCH   1  18
TORSDOF 5
ENDMDL
MODEL 2
REMARK VINA RESULT:      -7.9      1.417      2.228
REMARK  Name = 
REMARK  8 active torsions:
REMARK  status: ('A' for Active; 'I' for Inactive)
REMARK    1  A    between atoms: C_1  and  O_2
REMARK    2  A    between atoms: O_2  and  C_3
REMARK    3  A    between atoms: C_9  and  C_10
REMARK    4  A    between atoms: C_10  and  C_12
REMARK    5  A    between atoms: C_17  and  C_19
REMARK    6  A    between atoms: C_23  and  N_24
REMARK    7  A    between atoms: N_24  and  C_25
REMARK    8  A    between atoms: N_24  and  C_26
REMARK                            x       y       z     vdW  Elec       q    Type
REMARK                         _______ _______ _______ _____ _____    ______ ____
ROOT
ATOM      1  C   UNL     1       3.356   2.636  18.493  0.00  0.00    +0.000 C 
ATOM      2  C   UNL     1       1.885   2.143  18.515  0.00  0.00    +0.000 C 
ATOM      3  C   UNL     1       0.874   3.291  18.676  0.00  0.00    +0.000 C 
ATOM      4  C   UNL     1       1.252   4.261  19.802  0.00  0.00    +0.000 C 
ATOM      5  N   UNL     1       2.673   4.619  19.728  0.00  0.00    +0.000 N 
ATOM      6  C   UNL     1       3.278   5.872  19.658  0.00  0.00    +0.000 C 
ATOM      7  O   UNL     1       4.506   5.974  19.758  0.00  0.00    +0.000 OA
ATOM      8  C   UNL     1       3.574   3.470  19.745  0.00  0.00    +0.000 C 
ENDROOT
BRANCH   6   9
ATOM      9  C   UNL     1       2.555   7.153  19.428  0.00  0.00    +0.000 A 
ATOM     10  C   UNL     1       2.567   7.622  18.113  0.00  0.00    +0.000 A 
ATOM     11  C   UNL     1       1.792   8.719  17.751  0.00  0.00    +0.000 A 
ATOM     12  C   UNL     1       1.021   9.357  18.720  0.00  0.00    +0.000 A 
ATOM     13  C   UNL     1       0.981   8.937  20.061  0.00  0.00    +0.000 A 
ATOM     14  C   UNL     1       1.752   7.791  20.380  0.00  0.00    +0.000 A 
BRANCH  13  15
ATOM     15  N   UNL     1       0.273   9.630  21.032  0.00  0.00    +0.000 N 
ATOM     16  C   UNL     1      -0.281   8.945  22.199  0.00  0.00    +0.000 C 
ATOM     17  C   UNL     1      -0.348  10.922  20.743  0.00  0.00    +0.000 C 
ENDBRANCH  13  15
ENDBRANCH   6   9
BRANCH   1  18
ATOM     18  C   UNL     1       3.679   3.338  17.164  0.00  0.00    +0.000 C 
ATOM     19  O   UNL     1       2.766   3.507  16.344  0.00  0.00    +0.000 OA
BRANCH  18  26
ATOM     20  C   UNL     1       5.501   4.161  15.432  0.00  0.00    +0.000 A 
ATOM     21  C   UNL     1       6.759   4.807  15.302  0.00  0.00    +0.000 A 
ATOM     22  C   UNL     1       7.549   5.119  16.407  0.00  0.00    +0.000 A 
ATOM     23  C   UNL     1       7.106   4.749  17.659  0.00  0.00    +0.000 A 
ATOM     24  F   UNL     1       7.854   5.024  18.735  0.00  0.00    +0.000 F 
ATOM     25  C   UNL     1       5.882   4.115  17.812  0.00  0.00    +0.000 A 
ATOM     26  C   UNL     1       5.026   3.832  16.712  0.00  0.00    +0.000 A 
BRANCH  20  28
ATOM     27  C   UNL     1       5.812   3.698  13.093  0.00  0.00    +0.000 C 
ATOM     28  O   UNL     1       4.966   3.931  14.199  0.00  0.00    +0.000 OA
ENDBRANCH  20  28
ENDBRANCH  18  26
ENDBRANCH   1  18
TORSDOF 5
ENDMDL
MODEL 3
REMARK VINA RESULT:      -7.6      3.642      7.489
REMARK  Name = 
REMARK  8 active torsions:
REMARK  status: ('A' for Active; 'I' for Inactive)
REMARK    1  A    between atoms: C_1  and  O_2
REMARK    2  A    between atoms: O_2  and  C_3
REMARK    3  A    between atoms: C_9  and  C_10
REMARK    4  A    between atoms: C_10  and  C_12
REMARK    5  A    between atoms: C_17  and  C_19
REMARK    6  A    between atoms: C_23  and  N_24
REMARK    7  A    between atoms: N_24  and  C_25
REMARK    8  A    between atoms: N_24  and  C_26
REMARK                            x       y       z     vdW  Elec       q    Type
REMARK                         _______ _______ _______ _____ _____    ______ ____
ROOT
ATOM      1  C   UNL     1       5.192   5.393  18.809  0.00  0.00    +0.000 C 
ATOM      2  C   UNL     1       4.235   6.567  18.469  0.00  0.00    +0.000 C 
ATOM      3  C   UNL     1       4.201   6.892  16.966  0.00  0.00    +0.000 C 
ATOM      4  C   UNL     1       5.600   6.995  16.349  0.00  0.00    +0.000 C 
ATOM      5  N   UNL     1       6.443   5.873  16.778  0.00  0.00    +0.000 N 
ATOM      6  C   UNL     1       7.152   4.944  16.018  0.00  0.00    +0.000 C 
ATOM      7  O   UNL     1       7.934   4.161  16.568  0.00  0.00    +0.000 OA
ATOM      8  C   UNL     1       6.553   5.735  18.227  0.00  0.00    +0.000 C 
ENDROOT
BRANCH   6   9
ATOM      9  C   UNL     1       7.021   4.776  14.544  0.00  0.00    +0.000 A 
ATOM     10  C   UNL     1       7.888   5.553  13.772  0.00  0.00    +0.000 A 
ATOM     11  C   UNL     1       7.966   5.362  12.397  0.00  0.00    +0.000 A 
ATOM     12  C   UNL     1       7.155   4.402  11.796  0.00  0.00    +0.000 A 
ATOM     13  C   UNL     1       6.254   3.602  12.521  0.00  0.00    +0.000 A 
ATOM     14  C   UNL     1       6.234   3.799  13.924  0.00  0.00    +0.000 A 
BRANCH  13  15
ATOM     15  N   UNL     1       5.394   2.709  11.900  0.00  0.00    +0.000 N 
ATOM     16  C   UNL     1       5.881   1.439  11.361  0.00  0.00    +0.000 C 
ATOM     17  C   UNL     1       4.114   3.146  11.343  0.00  0.00    +0.000 C 
ENDBRANCH  13  15
ENDBRANCH   6   9
BRANCH   1  18
ATOM     18  C   UNL     1       4.595   4.051  18.356  0.00  0.00    +0.000 C 
ATOM     19  O   UNL     1       4.969   3.567  17.279  0.00  0.00    +0.000 OA
BRANCH  18  26
ATOM     20  C   UNL     1       3.595   2.577  20.312  0.00  0.00    +0.000 A 
ATOM     21  C   UNL     1       2.396   2.058  20.866  0.00  0.00    +0.000 A 
ATOM     22  C   UNL     1       1.167   2.179  20.219  0.00  0.00    +0.000 A 
ATOM     23  C   UNL     1       1.132   2.789  18.983  0.00  0.00    +0.000 A 
ATOM     24  F   UNL     1      -0.034   2.904  18.333  0.00  0.00    +0.000 F 
ATOM     25  C   UNL     1       2.291   3.301  18.418  0.00  0.00    +0.000 A 
ATOM     26  C   UNL     1       3.550   3.244  19.076  0.00  0.00    +0.000 A 
BRANCH  20  28
ATOM     27  C   UNL     1       5.294   1.026  21.010  0.00  0.00    +0.000 C 
ATOM     28  O   UNL     1       4.651   2.277  21.122  0.00  0.00    +0.000 OA
ENDBRANCH  20  28
ENDBRANCH  18  26
ENDBRANCH   1  18
TORSDOF 5
ENDMDL
MODEL 4
REMARK VINA RESULT:      -7.4      1.907      2.511
REMARK  Name = 
REMARK  8 active torsions:
REMARK  status: ('A' for Active; 'I' for Inactive)
REMARK    1  A    between atoms: C_1  and  O_2
REMARK    2  A    between atoms: O_2  and  C_3
REMARK    3  A    between atoms: C_9  and  C_10
REMARK    4  A    between atoms: C_10  and  C_12
REMARK    5  A    between atoms: C_17  and  C_19
REMARK    6  A    between atoms: C_23  and  N_24
REMARK    7  A    between atoms: N_24  and  C_25
REMARK    8  A    between atoms: N_24  and  C_26
REMARK                            x       y       z     vdW  Elec       q    Type
REMARK                         _______ _______ _______ _____ _____    ______ ____
ROOT
ATOM      1  C   UNL     1       4.143   2.968  18.035  0.00  0.00    +0.000 C 
ATOM      2  C   UNL     1       2.787   2.394  17.547  0.00  0.00    +0.000 C 
ATOM      3  C   UNL     1       1.655   3.435  17.574  0.00  0.00    +0.000 C 
ATOM      4  C   UNL     1       1.595   4.212  18.894  0.00  0.00    +0.000 C 
ATOM      5  N   UNL     1       2.933   4.660  19.297  0.00  0.00    +0.000 N 
ATOM      6  C   UNL     1       3.397   5.940  19.599  0.00  0.00    +0.000 C 
ATOM      7  O   UNL     1       4.528   6.093  20.071  0.00  0.00    +0.000 OA
ATOM      8  C   UNL     1       3.910   3.581  19.406  0.00  0.00    +0.000 C 
ENDROOT
BRANCH   6   9
ATOM      9  C   UNL     1       2.634   7.196  19.362  0.00  0.00    +0.000 A 
ATOM     10  C   UNL     1       2.618   7.649  18.041  0.00  0.00    +0.000 A 
ATOM     11  C   UNL     1       1.808   8.719  17.674  0.00  0.00    +0.000 A 
ATOM     12  C   UNL     1       1.031   9.347  18.644  0.00  0.00    +0.000 A 
ATOM     13  C   UNL     1       1.018   8.943  19.991  0.00  0.00    +0.000 A 
ATOM     14  C   UNL     1       1.825   7.824  20.315  0.00  0.00    +0.000 A 
BRANCH  13  15
ATOM     15  N   UNL     1       0.302   9.629  20.961  0.00  0.00    +0.000 N 
ATOM     16  C   UNL     1      -0.239  10.963  20.701  0.00  0.00    +0.000 C 
ATOM     17  C   UNL     1       0.435   9.302  22.380  0.00  0.00    +0.000 C 
ENDBRANCH  13  15
ENDBRANCH   6   9
BRANCH   1  18
ATOM     18  C   UNL     1       4.750   3.910  16.981  0.00  0.00    +0.000 C 
ATOM     19  O   UNL     1       4.406   3.778  15.799  0.00  0.00    +0.000 OA
BRANCH  18  26
ATOM     20  C   UNL     1       5.806   6.328  16.804  0.00  0.00    +0.000 A 
ATOM     21  C   UNL     1       6.789   7.198  17.344  0.00  0.00    +0.000 A 
ATOM     22  C   UNL     1       7.733   6.765  18.273  0.00  0.00    +0.000 A 
ATOM     23  C   UNL     1       7.730   5.437  18.644  0.00  0.00    +0.000 A 
ATOM     24  F   UNL     1       8.637   4.992  19.524  0.00  0.00    +0.000 F 
ATOM     25  C   UNL     1       6.782   4.566  18.128  0.00  0.00    +0.000 A 
ATOM     26  C   UNL     1       5.771   4.987  17.221  0.00  0.00    +0.000 A 
BRANCH  20  28
ATOM     27  C   UNL     1       5.239   6.758  14.508  0.00  0.00    +0.000 C 
ATOM     28  O   UNL     1       5.048   6.993  15.886  0.00  0.00    +0.000 OA
ENDBRANCH  20  28
ENDBRANCH  18  26
ENDBRANCH   1  18
TORSDOF 5
ENDMDL
MODEL 5
REMARK VINA RESULT:      -7.2      1.919      2.569
REMARK  Name = 
REMARK  8 active torsions:
REMARK  status: ('A' for Active; 'I' for Inactive)
REMARK    1  A    between atoms: C_1  and  O_2
REMARK    2  A    between atoms: O_2  and  C_3
REMARK    3  A    between atoms: C_9  and  C_10
REMARK    4  A    between atoms: C_10  and  C_12
REMARK    5  A    between atoms: C_17  and  C_19
REMARK    6  A    between atoms: C_23  and  N_24
REMARK    7  A    between atoms: N_24  and  C_25
REMARK    8  A    between atoms: N_24  and  C_26
REMARK                            x       y       z     vdW  Elec       q    Type
REMARK                         _______ _______ _______ _____ _____    ______ ____
ROOT
ATOM      1  C   UNL     1       3.525   2.691  18.668  0.00  0.00    +0.000 C 
ATOM      2  C   UNL     1       2.841   2.649  17.276  0.00  0.00    +0.000 C 
ATOM      3  C   UNL     1       2.093   3.950  16.940  0.00  0.00    +0.000 C 
ATOM      4  C   UNL     1       1.202   4.436  18.088  0.00  0.00    +0.000 C 
ATOM      5  N   UNL     1       1.921   4.382  19.366  0.00  0.00    +0.000 N 
ATOM      6  C   UNL     1       2.149   5.383  20.309  0.00  0.00    +0.000 C 
ATOM      7  O   UNL     1       2.648   5.100  21.404  0.00  0.00    +0.000 OA
ATOM      8  C   UNL     1       2.460   3.064  19.686  0.00  0.00    +0.000 C 
ENDROOT
BRANCH   6   9
ATOM      9  C   UNL     1       1.867   6.829  20.096  0.00  0.00    +0.000 A 
ATOM     10  C   UNL     1       2.064   7.294  18.794  0.00  0.00    +0.000 A 
ATOM     11  C   UNL     1       1.680   8.584  18.444  0.00  0.00    +0.000 A 
ATOM     12  C   UNL     1       1.118   9.414  19.411  0.00  0.00    +0.000 A 
ATOM     13  C   UNL     1       0.910   9.003  20.740  0.00  0.00    +0.000 A 
ATOM     14  C   UNL     1       1.275   7.669  21.046  0.00  0.00    +0.000 A 
BRANCH  13  15
ATOM     15  N   UNL     1       0.424   9.866  21.712  0.00  0.00    +0.000 N 
ATOM     16  C   UNL     1       0.156   9.401  23.072  0.00  0.00    +0.000 C 
ATOM     17  C   UNL     1      -0.267  11.104  21.354  0.00  0.00    +0.000 C 
ENDBRANCH  13  15
ENDBRANCH   6   9
BRANCH   1  18
ATOM     18  C   UNL     1       4.765   3.599  18.642  0.00  0.00    +0.000 C 
ATOM     19  O   UNL     1       5.557   3.551  19.593  0.00  0.00    +0.000 OA
BRANCH  18  26
ATOM     20  C   UNL     1       5.475   4.416  16.228  0.00  0.00    +0.000 A 
ATOM     21  C   UNL     1       5.567   5.547  15.375  0.00  0.00    +0.000 A 
ATOM     22  C   UNL     1       5.330   6.842  15.833  0.00  0.00    +0.000 A 
ATOM     23  C   UNL     1       5.037   7.025  17.168  0.00  0.00    +0.000 A 
ATOM     24  F   UNL     1       4.821   8.261  17.636  0.00  0.00    +0.000 F 
ATOM     25  C   UNL     1       4.944   5.936  18.023  0.00  0.00    +0.000 A 
ATOM     26  C   UNL     1       5.125   4.598  17.576  0.00  0.00    +0.000 A 
BRANCH  20  28
ATOM     27  C   UNL     1       6.073   3.353  14.156  0.00  0.00    +0.000 C 
ATOM     28  O   UNL     1       5.803   3.284  15.540  0.00  0.00    +0.000 OA
ENDBRANCH  20  28
ENDBRANCH  18  26
ENDBRANCH   1  18
TORSDOF 5
ENDMDL
MODEL 6
REMARK VINA RESULT:      -7.2      3.656      7.641
REMARK  Name = 
REMARK  8 active torsions:
REMARK  status: ('A' for Active; 'I' for Inactive)
REMARK    1  A    between atoms: C_1  and  O_2
REMARK    2  A    between atoms: O_2  and  C_3
REMARK    3  A    between atoms: C_9  and  C_10
REMARK    4  A    between atoms: C_10  and  C_12
REMARK    5  A    between atoms: C_17  and  C_19
REMARK    6  A    between atoms: C_23  and  N_24
REMARK    7  A    between atoms: N_24  and  C_25
REMARK    8  A    between atoms: N_24  and  C_26
REMARK                            x       y       z     vdW  Elec       q    Type
REMARK                         _______ _______ _______ _____ _____    ______ ____
ROOT
ATOM      1  C   UNL     1       4.963   5.668  18.618  0.00  0.00    +0.000 C 
ATOM      2  C   UNL     1       4.103   6.888  18.193  0.00  0.00    +0.000 C 
ATOM      3  C   UNL     1       4.158   7.158  16.680  0.00  0.00    +0.000 C 
ATOM      4  C   UNL     1       5.587   7.145  16.126  0.00  0.00    +0.000 C 
ATOM      5  N   UNL     1       6.333   5.987  16.633  0.00  0.00    +0.000 N 
ATOM      6  C   UNL     1       7.011   4.985  15.939  0.00  0.00    +0.000 C 
ATOM      7  O   UNL     1       7.713   4.174  16.553  0.00  0.00    +0.000 OA
ATOM      8  C   UNL     1       6.369   5.897  18.089  0.00  0.00    +0.000 C 
ENDROOT
BRANCH   6   9
ATOM      9  C   UNL     1       6.935   4.771  14.468  0.00  0.00    +0.000 A 
ATOM     10  C   UNL     1       7.842   5.510  13.706  0.00  0.00    +0.000 A 
ATOM     11  C   UNL     1       7.971   5.273  12.342  0.00  0.00    +0.000 A 
ATOM     12  C   UNL     1       7.170   4.306  11.740  0.00  0.00    +0.000 A 
ATOM     13  C   UNL     1       6.229   3.542  12.455  0.00  0.00    +0.000 A 
ATOM     14  C   UNL     1       6.158   3.785  13.849  0.00  0.00    +0.000 A 
BRANCH  13  15
ATOM     15  N   UNL     1       5.381   2.640  11.830  0.00  0.00    +0.000 N 
ATOM     16  C   UNL     1       5.881   1.371  11.303  0.00  0.00    +0.000 C 
ATOM     17  C   UNL     1       4.105   3.067  11.257  0.00  0.00    +0.000 C 
ENDBRANCH  13  15
ENDBRANCH   6   9
BRANCH   1  18
ATOM     18  C   UNL     1       4.297   4.351  18.184  0.00  0.00    +0.000 C 
ATOM     19  O   UNL     1       4.690   3.801  17.147  0.00  0.00    +0.000 OA
BRANCH  18  26
ATOM     20  C   UNL     1       2.999   2.295  19.225  0.00  0.00    +0.000 A 
ATOM     21  C   UNL     1       1.920   1.921  20.067  0.00  0.00    +0.000 A 
ATOM     22  C   UNL     1       1.006   2.852  20.558  0.00  0.00    +0.000 A 
ATOM     23  C   UNL     1       1.138   4.170  20.176  0.00  0.00    +0.000 A 
ATOM     24  F   UNL     1       0.264   5.081  20.623  0.00  0.00    +0.000 F 
ATOM     25  C   UNL     1       2.183   4.560  19.352  0.00  0.00    +0.000 A 
ATOM     26  C   UNL     1       3.164   3.646  18.878  0.00  0.00    +0.000 A 
BRANCH  20  28
ATOM     27  C   UNL     1       4.826   0.779  19.603  0.00  0.00    +0.000 C 
ATOM     28  O   UNL     1       3.704   1.189  18.851  0.00  0.00    +0.000 OA
ENDBRANCH  20  28
ENDBRANCH  18  26
ENDBRANCH   1  18
TORSDOF 5
ENDMDL
MODEL 7
REMARK VINA RESULT:      -7.1      3.518      6.289
REMARK  Name = 
REMARK  8 active torsions:
REMARK  status: ('A' for Active; 'I' for Inactive)
REMARK    1  A    between atoms: C_1  and  O_2
REMARK    2  A    between atoms: O_2  and  C_3
REMARK    3  A    between atoms: C_9  and  C_10
REMARK    4  A    between atoms: C_10  and  C_12
REMARK    5  A    between atoms: C_17  and  C_19
REMARK    6  A    between atoms: C_23  and  N_24
REMARK    7  A    between atoms: N_24  and  C_25
REMARK    8  A    between atoms: N_24  and  C_26
REMARK                            x       y       z     vdW  Elec       q    Type
REMARK                         _______ _______ _______ _____ _____    ______ ____
ROOT
ATOM      1  C   UNL     1       1.328   9.351  21.975  0.00  0.00    +0.000 C 
ATOM      2  C   UNL     1       0.452   9.569  23.237  0.00  0.00    +0.000 C 
ATOM      3  C   UNL     1      -0.966  10.060  22.901  0.00  0.00    +0.000 C 
ATOM      4  C   UNL     1      -0.972  11.218  21.897  0.00  0.00    +0.000 C 
ATOM      5  N   UNL     1      -0.070  10.939  20.773  0.00  0.00    +0.000 N 
ATOM      6  C   UNL     1      -0.324  10.929  19.403  0.00  0.00    +0.000 C 
ATOM      7  O   UNL     1       0.610  10.821  18.601  0.00  0.00    +0.000 OA
ATOM      8  C   UNL     1       1.301  10.643  21.175  0.00  0.00    +0.000 C 
ENDROOT
BRANCH   6   9
ATOM      9  C   UNL     1      -1.678  11.004  18.790  0.00  0.00    +0.000 A 
ATOM     10  C   UNL     1      -1.914  10.111  17.742  0.00  0.00    +0.000 A 
ATOM     11  C   UNL     1      -3.189   9.981  17.203  0.00  0.00    +0.000 A 
ATOM     12  C   UNL     1      -4.224  10.767  17.705  0.00  0.00    +0.000 A 
ATOM     13  C   UNL     1      -4.041  11.692  18.748  0.00  0.00    +0.000 A 
ATOM     14  C   UNL     1      -2.737  11.765  19.298  0.00  0.00    +0.000 A 
BRANCH  13  15
ATOM     15  N   UNL     1      -5.061  12.526  19.183  0.00  0.00    +0.000 N 
ATOM     16  C   UNL     1      -6.163  12.900  18.296  0.00  0.00    +0.000 C 
ATOM     17  C   UNL     1      -4.879  13.421  20.324  0.00  0.00    +0.000 C 
ENDBRANCH  13  15
ENDBRANCH   6   9
BRANCH   1  18
ATOM     18  C   UNL     1       0.886   8.090  21.214  0.00  0.00    +0.000 C 
ATOM     19  O   UNL     1      -0.278   7.690  21.352  0.00  0.00    +0.000 OA
BRANCH  18  26
ATOM     20  C   UNL     1       2.054   5.869  20.375  0.00  0.00    +0.000 A 
ATOM     21  C   UNL     1       2.718   5.261  19.278  0.00  0.00    +0.000 A 
ATOM     22  C   UNL     1       3.080   5.979  18.140  0.00  0.00    +0.000 A 
ATOM     23  C   UNL     1       2.818   7.332  18.104  0.00  0.00    +0.000 A 
ATOM     24  F   UNL     1       3.171   8.048  17.028  0.00  0.00    +0.000 F 
ATOM     25  C   UNL     1       2.173   7.951  19.164  0.00  0.00    +0.000 A 
ATOM     26  C   UNL     1       1.740   7.238  20.316  0.00  0.00    +0.000 A 
BRANCH  20  28
ATOM     27  C   UNL     1       1.725   3.587  21.055  0.00  0.00    +0.000 C 
ATOM     28  O   UNL     1       1.863   4.956  21.370  0.00  0.00    +0.000 OA
ENDBRANCH  20  28
ENDBRANCH  18  26
ENDBRANCH   1  18
TORSDOF 5
ENDMDL
MODEL 8
REMARK VINA RESULT:      -7.1      2.359      6.420
REMARK  Name = 
REMARK  8 active torsions:
REMARK  status: ('A' for Active; 'I' for Inactive)
REMARK    1  A    between atoms: C_1  and  O_2
REMARK    2  A    between atoms: O_2  and  C_3
REMARK    3  A    between atoms: C_9  and  C_10
REMARK    4  A    between atoms: C_10  and  C_12
REMARK    5  A    between atoms: C_17  and  C_19
REMARK    6  A    between atoms: C_23  and  N_24
REMARK    7  A    between atoms: N_24  and  C_25
REMARK    8  A    between atoms: N_24  and  C_26
REMARK                            x       y       z     vdW  Elec       q    Type
REMARK                         _______ _______ _______ _____ _____    ______ ____
ROOT
ATOM      1  C   UNL     1       0.980   4.254  20.534  0.00  0.00    +0.000 C 
ATOM      2  C   UNL     1       1.544   3.086  21.384  0.00  0.00    +0.000 C 
ATOM      3  C   UNL     1       2.943   2.637  20.927  0.00  0.00    +0.000 C 
ATOM      4  C   UNL     1       3.037   2.443  19.409  0.00  0.00    +0.000 C 
ATOM      5  N   UNL     1       2.425   3.571  18.699  0.00  0.00    +0.000 N 
ATOM      6  C   UNL     1       2.959   4.413  17.724  0.00  0.00    +0.000 C 
ATOM      7  O   UNL     1       2.229   5.215  17.132  0.00  0.00    +0.000 OA
ATOM      8  C   UNL     1       1.038   3.825  19.077  0.00  0.00    +0.000 C 
ENDROOT
BRANCH   6   9
ATOM      9  C   UNL     1       4.396   4.461  17.340  0.00  0.00    +0.000 A 
ATOM     10  C   UNL     1       4.747   3.695  16.226  0.00  0.00    +0.000 A 
ATOM     11  C   UNL     1       6.023   3.789  15.682  0.00  0.00    +0.000 A 
ATOM     12  C   UNL     1       6.954   4.639  16.273  0.00  0.00    +0.000 A 
ATOM     13  C   UNL     1       6.661   5.422  17.404  0.00  0.00    +0.000 A 
ATOM     14  C   UNL     1       5.338   5.329  17.903  0.00  0.00    +0.000 A 
BRANCH  13  15
ATOM     15  N   UNL     1       7.622   6.202  18.031  0.00  0.00    +0.000 N 
ATOM     16  C   UNL     1       8.142   5.847  19.351  0.00  0.00    +0.000 C 
ATOM     17  C   UNL     1       7.824   7.603  17.664  0.00  0.00    +0.000 C 
ENDBRANCH  13  15
ENDBRANCH   6   9
BRANCH   1  18
ATOM     18  C   UNL     1       1.699   5.572  20.867  0.00  0.00    +0.000 C 
ATOM     19  O   UNL     1       2.644   5.546  21.667  0.00  0.00    +0.000 OA
BRANCH  18  26
ATOM     20  C   UNL     1       0.612   7.982  20.916  0.00  0.00    +0.000 A 
ATOM     21  C   UNL     1       0.614   9.259  20.297  0.00  0.00    +0.000 A 
ATOM     22  C   UNL     1       1.328   9.515  19.128  0.00  0.00    +0.000 A 
ATOM     23  C   UNL     1       2.019   8.478  18.538  0.00  0.00    +0.000 A 
ATOM     24  F   UNL     1       2.701   8.695  17.405  0.00  0.00    +0.000 F 
ATOM     25  C   UNL     1       2.031   7.220  19.122  0.00  0.00    +0.000 A 
ATOM     26  C   UNL     1       1.359   6.939  20.343  0.00  0.00    +0.000 A 
BRANCH  20  28
ATOM     27  C   UNL     1      -0.464   9.208  22.682  0.00  0.00    +0.000 C 
ATOM     28  O   UNL     1      -0.203   7.995  22.010  0.00  0.00    +0.000 OA
ENDBRANCH  20  28
ENDBRANCH  18  26
ENDBRANCH   1  18
TORSDOF 5
ENDMDL
MODEL 9
REMARK VINA RESULT:      -7.0      1.407      1.827
REMARK  Name = 
REMARK  8 active torsions:
REMARK  status: ('A' for Active; 'I' for Inactive)
REMARK    1  A    between atoms: C_1  and  O_2
REMARK    2  A    between atoms: O_2  and  C_3
REMARK    3  A    between atoms: C_9  and  C_10
REMARK    4  A    between atoms: C_10  and  C_12
REMARK    5  A    between atoms: C_17  and  C_19
REMARK    6  A    between atoms: C_23  and  N_24
REMARK    7  A    between atoms: N_24  and  C_25
REMARK    8  A    between atoms: N_24  and  C_26
REMARK                            x       y       z     vdW  Elec       q    Type
REMARK                         _______ _______ _______ _____ _____    ______ ____
ROOT
ATOM      1  C   UNL     1       3.167   2.178  18.922  0.00  0.00    +0.000 C 
ATOM      2  C   UNL     1       2.670   2.184  17.453  0.00  0.00    +0.000 C 
ATOM      3  C   UNL     1       2.171   3.567  16.998  0.00  0.00    +0.000 C 
ATOM      4  C   UNL     1       1.221   4.217  18.010  0.00  0.00    +0.000 C 
ATOM      5  N   UNL     1       1.754   4.106  19.373  0.00  0.00    +0.000 N 
ATOM      6  C   UNL     1       2.003   5.098  20.320  0.00  0.00    +0.000 C 
ATOM      7  O   UNL     1       2.311   4.787  21.476  0.00  0.00    +0.000 OA
ATOM      8  C   UNL     1       2.047   2.737  19.784  0.00  0.00    +0.000 C 
ENDROOT
BRANCH   6   9
ATOM      9  C   UNL     1       1.967   6.561  20.047  0.00  0.00    +0.000 A 
ATOM     10  C   UNL     1       2.472   6.953  18.805  0.00  0.00    +0.000 A 
ATOM     11  C   UNL     1       2.343   8.270  18.378  0.00  0.00    +0.000 A 
ATOM     12  C   UNL     1       1.723   9.198  19.211  0.00  0.00    +0.000 A 
ATOM     13  C   UNL     1       1.209   8.863  20.477  0.00  0.00    +0.000 A 
ATOM     14  C   UNL     1       1.324   7.503  20.858  0.00  0.00    +0.000 A 
BRANCH  13  15
ATOM     15  N   UNL     1       0.669   9.814  21.330  0.00  0.00    +0.000 N 
ATOM     16  C   UNL     1       0.239   9.461  22.683  0.00  0.00    +0.000 C 
ATOM     17  C   UNL     1       0.080  11.050  20.817  0.00  0.00    +0.000 C 
ENDBRANCH  13  15
ENDBRANCH   6   9
BRANCH   1  18
ATOM     18  C   UNL     1       4.521   2.897  19.045  0.00  0.00    +0.000 C 
ATOM     19  O   UNL     1       5.248   2.634  20.013  0.00  0.00    +0.000 OA
BRANCH  18  26
ATOM     20  C   UNL     1       5.912   5.040  18.361  0.00  0.00    +0.000 A 
ATOM     21  C   UNL     1       6.457   5.758  17.264  0.00  0.00    +0.000 A 
ATOM     22  C   UNL     1       6.178   5.415  15.942  0.00  0.00    +0.000 A 
ATOM     23  C   UNL     1       5.312   4.370  15.701  0.00  0.00    +0.000 A 
ATOM     24  F   UNL     1       5.016   4.032  14.440  0.00  0.00    +0.000 F 
ATOM     25  C   UNL     1       4.764   3.655  16.756  0.00  0.00    +0.000 A 
ATOM     26  C   UNL     1       5.071   3.942  18.115  0.00  0.00    +0.000 A 
BRANCH  20  28
ATOM     27  C   UNL     1       7.678   5.764  19.823  0.00  0.00    +0.000 C 
ATOM     28  O   UNL     1       6.305   5.613  19.535  0.00  0.00    +0.000 OA
ENDBRANCH  20  28
ENDBRANCH  18  26
ENDBRANCH   1  18
TORSDOF 5
ENDMDL
