MODEL 1
REMARK VINA RESULT:      -7.6      0.000      0.000
REMARK  Name = 
REMARK  6 active torsions:
REMARK  status: ('A' for Active; 'I' for Inactive)
REMARK    1  A    between atoms: C_1  and  C_2
REMARK    2  A    between atoms: C_2  and  C_3
REMARK    3  A    between atoms: C_6  and  N_7
REMARK    4  A    between atoms: N_7  and  C_8
REMARK    5  A    between atoms: N_7  and  C_10
REMARK    6  A    between atoms: C_8  and  C_9
REMARK                            x       y       z     vdW  Elec       q    Type
REMARK                         _______ _______ _______ _____ _____    ______ ____
ROOT
ATOM      1  N   UNL     1       5.863   5.000  18.088  0.00  0.00    +0.000 N 
ENDROOT
BRANCH   1   2
ATOM      2  C   UNL     1       4.961   4.330  18.926  0.00  0.00    +0.000 A 
ATOM      3  N   UNL     1       5.195   3.019  19.319  0.00  0.00    +0.000 N 
ATOM      4  C   UNL     1       4.342   2.350  20.149  0.00  0.00    +0.000 A 
ATOM      5  N   UNL     1       3.247   2.823  20.652  0.00  0.00    +0.000 NA
ATOM      6  C   UNL     1       2.972   4.109  20.287  0.00  0.00    +0.000 A 
ATOM      7  N   UNL     1       1.946   4.820  20.630  0.00  0.00    +0.000 NA
ATOM      8  C   UNL     1       2.192   6.031  19.991  0.00  0.00    +0.000 A 
ATOM      9  N   UNL     1       3.278   6.140  19.286  0.00  0.00    +0.000 NA
ATOM     10  C   UNL     1       3.851   4.902  19.423  0.00  0.00    +0.000 A 
ATOM     11  H   UNL     1       6.029   2.590  18.941  0.00  0.00    +0.000 HD
ENDBRANCH   1   2
BRANCH   1  15
ATOM     12  C   UNL     1       6.234   4.076  13.910  0.00  0.00    +0.000 A 
ATOM     13  C   UNL     1       5.080   3.733  14.621  0.00  0.00    +0.000 A 
ATOM     14  C   UNL     1       4.948   4.036  15.993  0.00  0.00    +0.000 A 
ATOM     15  C   UNL     1       5.959   4.691  16.709  0.00  0.00    +0.000 A 
ATOM     16  C   UNL     1       7.094   5.060  15.957  0.00  0.00    +0.000 A 
ATOM     17  C   UNL     1       7.239   4.758  14.590  0.00  0.00    +0.000 A 
BRANCH  12  19
ATOM     18  C   UNL     1       5.108   3.197  11.817  0.00  0.00    +0.000 C 
ATOM     19  C   UNL     1       6.391   3.716  12.450  0.00  0.00    +0.000 C 
ENDBRANCH  12  19
ENDBRANCH   1  15
BRANCH   1  20
ATOM     20  C   UNL     1       6.694   6.058  18.705  0.00  0.00    +0.000 C 
ATOM     21  C   UNL     1       7.883   5.543  19.506  0.00  0.00    +0.000 C 
ENDBRANCH   1  20
TORSDOF 4
ENDMDL
MODEL 2
REMARK VINA RESULT:      -7.5      0.095      1.070
REMARK  Name = 
REMARK  6 active torsions:
REMARK  status: ('A' for Active; 'I' for Inactive)
REMARK    1  A    between atoms: C_1  and  C_2
REMARK    2  A    between atoms: C_2  and  C_3
REMARK    3  A    between atoms: C_6  and  N_7
REMARK    4  A    between atoms: N_7  and  C_8
REMARK    5  A    between atoms: N_7  and  C_10
REMARK    6  A    between atoms: C_8  and  C_9
REMARK                            x       y       z     vdW  Elec       q    Type
REMARK                         _______ _______ _______ _____ _____    ______ ____
ROOT
ATOM      1  N   UNL     1       5.862   5.018  18.052  0.00  0.00    +0.000 N 
ENDROOT
BRANCH   1   2
ATOM      2  C   UNL     1       4.958   4.351  18.889  0.00  0.00    +0.000 A 
ATOM      3  N   UNL     1       5.184   3.038  19.280  0.00  0.00    +0.000 N 
ATOM      4  C   UNL     1       4.328   2.372  20.108  0.00  0.00    +0.000 A 
ATOM      5  N   UNL     1       3.236   2.850  20.612  0.00  0.00    +0.000 NA
ATOM      6  C   UNL     1       2.968   4.138  20.250  0.00  0.00    +0.000 A 
ATOM      7  N   UNL     1       1.945   4.853  20.595  0.00  0.00    +0.000 NA
ATOM      8  C   UNL     1       2.197   6.064  19.958  0.00  0.00    +0.000 A 
ATOM      9  N   UNL     1       3.284   6.169  19.254  0.00  0.00    +0.000 NA
ATOM     10  C   UNL     1       3.851   4.928  19.388  0.00  0.00    +0.000 A 
ATOM     11  H   UNL     1       6.016   2.605  18.900  0.00  0.00    +0.000 HD
ENDBRANCH   1   2
BRANCH   1  15
ATOM     12  C   UNL     1       6.165   3.986  13.894  0.00  0.00    +0.000 A 
ATOM     13  C   UNL     1       7.198   4.670  14.540  0.00  0.00    +0.000 A 
ATOM     14  C   UNL     1       7.109   5.010  15.908  0.00  0.00    +0.000 A 
ATOM     15  C   UNL     1       5.987   4.682  16.682  0.00  0.00    +0.000 A 
ATOM     16  C   UNL     1       4.978   3.958  16.013  0.00  0.00    +0.000 A 
ATOM     17  C   UNL     1       5.055   3.618  14.650  0.00  0.00    +0.000 A 
BRANCH  12  19
ATOM     18  C   UNL     1       4.890   3.331  11.805  0.00  0.00    +0.000 C 
ATOM     19  C   UNL     1       6.243   3.657  12.421  0.00  0.00    +0.000 C 
ENDBRANCH  12  19
ENDBRANCH   1  15
BRANCH   1  20
ATOM     20  C   UNL     1       6.666   6.102  18.661  0.00  0.00    +0.000 C 
ATOM     21  C   UNL     1       7.864   5.625  19.471  0.00  0.00    +0.000 C 
ENDBRANCH   1  20
TORSDOF 4
ENDMDL
MODEL 3
REMARK VINA RESULT:      -7.4      2.118      6.128
REMARK  Name = 
REMARK  6 active torsions:
REMARK  status: ('A' for Active; 'I' for Inactive)
REMARK    1  A    between atoms: C_1  and  C_2
REMARK    2  A    between atoms: C_2  and  C_3
REMARK    3  A    between atoms: C_6  and  N_7
REMARK    4  A    between atoms: N_7  and  C_8
REMARK    5  A    between atoms: N_7  and  C_10
REMARK    6  A    between atoms: C_8  and  C_9
REMARK                            x       y       z     vdW  Elec       q    Type
REMARK                         _______ _______ _______ _____ _____    ______ ____
ROOT
ATOM      1  N   UNL     1       3.716   4.089  17.962  0.00  0.00    +0.000 N 
ENDROOT
BRANCH   1   2
ATOM      2  C   UNL     1       5.041   4.211  17.521  0.00  0.00    +0.000 A 
ATOM      3  N   UNL     1       5.392   3.870  16.221  0.00  0.00    +0.000 N 
ATOM      4  C   UNL     1       6.671   3.996  15.762  0.00  0.00    +0.000 A 
ATOM      5  N   UNL     1       7.684   4.423  16.445  0.00  0.00    +0.000 NA
ATOM      6  C   UNL     1       7.387   4.764  17.733  0.00  0.00    +0.000 A 
ATOM      7  N   UNL     1       8.204   5.205  18.636  0.00  0.00    +0.000 NA
ATOM      8  C   UNL     1       7.366   5.396  19.730  0.00  0.00    +0.000 A 
ATOM      9  N   UNL     1       6.105   5.119  19.590  0.00  0.00    +0.000 NA
ATOM     10  C   UNL     1       6.035   4.683  18.292  0.00  0.00    +0.000 A 
ATOM     11  H   UNL     1       4.643   3.511  15.644  0.00  0.00    +0.000 HD
ENDBRANCH   1   2
BRANCH   1  15
ATOM     12  C   UNL     1       1.784   7.195  20.212  0.00  0.00    +0.000 A 
ATOM     13  C   UNL     1       2.353   7.461  18.964  0.00  0.00    +0.000 A 
ATOM     14  C   UNL     1       2.987   6.446  18.215  0.00  0.00    +0.000 A 
ATOM     15  C   UNL     1       3.078   5.127  18.682  0.00  0.00    +0.000 A 
ATOM     16  C   UNL     1       2.461   4.879  19.926  0.00  0.00    +0.000 A 
ATOM     17  C   UNL     1       1.831   5.885  20.682  0.00  0.00    +0.000 A 
BRANCH  12  19
ATOM     18  C   UNL     1       0.810   9.533  20.217  0.00  0.00    +0.000 C 
ATOM     19  C   UNL     1       1.140   8.290  21.031  0.00  0.00    +0.000 C 
ENDBRANCH  12  19
ENDBRANCH   1  15
BRANCH   1  20
ATOM     20  C   UNL     1       3.009   2.833  17.622  0.00  0.00    +0.000 C 
ATOM     21  C   UNL     1       3.496   1.606  18.381  0.00  0.00    +0.000 C 
ENDBRANCH   1  20
TORSDOF 4
ENDMDL
MODEL 4
REMARK VINA RESULT:      -7.3      2.421      6.249
REMARK  Name = 
REMARK  6 active torsions:
REMARK  status: ('A' for Active; 'I' for Inactive)
REMARK    1  A    between atoms: C_1  and  C_2
REMARK    2  A    between atoms: C_2  and  C_3
REMARK    3  A    between atoms: C_6  and  N_7
REMARK    4  A    between atoms: N_7  and  C_8
REMARK    5  A    between atoms: N_7  and  C_10
REMARK    6  A    between atoms: C_8  and  C_9
REMARK                            x       y       z     vdW  Elec       q    Type
REMARK                         _______ _______ _______ _____ _____    ______ ____
ROOT
ATOM      1  N   UNL     1       3.723   5.209  18.643  0.00  0.00    +0.000 N 
ENDROOT
BRANCH   1   2
ATOM      2  C   UNL     1       5.095   5.184  18.363  0.00  0.00    +0.000 A 
ATOM      3  N   UNL     1       6.027   5.496  19.344  0.00  0.00    +0.000 N 
ATOM      4  C   UNL     1       7.370   5.463  19.102  0.00  0.00    +0.000 A 
ATOM      5  N   UNL     1       7.930   5.157  17.976  0.00  0.00    +0.000 NA
ATOM      6  C   UNL     1       7.052   4.848  16.979  0.00  0.00    +0.000 A 
ATOM      7  N   UNL     1       7.334   4.521  15.759  0.00  0.00    +0.000 NA
ATOM      8  C   UNL     1       6.075   4.306  15.206  0.00  0.00    +0.000 A 
ATOM      9  N   UNL     1       5.037   4.465  15.972  0.00  0.00    +0.000 NA
ATOM     10  C   UNL     1       5.599   4.835  17.167  0.00  0.00    +0.000 A 
ATOM     11  H   UNL     1       5.645   5.762  20.242  0.00  0.00    +0.000 HD
ENDBRANCH   1   2
BRANCH   1  15
ATOM     12  C   UNL     1       1.574   8.902  19.079  0.00  0.00    +0.000 A 
ATOM     13  C   UNL     1       2.193   8.570  17.871  0.00  0.00    +0.000 A 
ATOM     14  C   UNL     1       2.898   7.357  17.717  0.00  0.00    +0.000 A 
ATOM     15  C   UNL     1       3.014   6.428  18.761  0.00  0.00    +0.000 A 
ATOM     16  C   UNL     1       2.346   6.772  19.955  0.00  0.00    +0.000 A 
ATOM     17  C   UNL     1       1.645   7.980  20.121  0.00  0.00    +0.000 A 
BRANCH  12  19
ATOM     18  C   UNL     1      -0.424  10.320  18.433  0.00  0.00    +0.000 C 
ATOM     19  C   UNL     1       0.853  10.219  19.256  0.00  0.00    +0.000 C 
ENDBRANCH  12  19
ENDBRANCH   1  15
BRANCH   1  20
ATOM     20  C   UNL     1       3.044   3.900  18.789  0.00  0.00    +0.000 C 
ATOM     21  C   UNL     1       1.838   3.707  17.880  0.00  0.00    +0.000 C 
ENDBRANCH   1  20
TORSDOF 4
ENDMDL
MODEL 5
REMARK VINA RESULT:      -7.2      2.473      6.227
REMARK  Name = 
REMARK  6 active torsions:
REMARK  status: ('A' for Active; 'I' for Inactive)
REMARK    1  A    between atoms: C_1  and  C_2
REMARK    2  A    between atoms: C_2  and  C_3
REMARK    3  A    between atoms: C_6  and  N_7
REMARK    4  A    between atoms: N_7  and  C_8
REMARK    5  A    between atoms: N_7  and  C_10
REMARK    6  A    between atoms: C_8  and  C_9
REMARK                            x       y       z     vdW  Elec       q    Type
REMARK                         _______ _______ _______ _____ _____    ______ ____
ROOT
ATOM      1  N   UNL     1       3.714   5.252  18.481  0.00  0.00    +0.000 N 
ENDROOT
BRANCH   1   2
ATOM      2  C   UNL     1       5.097   5.229  18.261  0.00  0.00    +0.000 A 
ATOM      3  N   UNL     1       5.985   5.541  19.283  0.00  0.00    +0.000 N 
ATOM      4  C   UNL     1       7.338   5.509  19.100  0.00  0.00    +0.000 A 
ATOM      5  N   UNL     1       7.947   5.207  17.998  0.00  0.00    +0.000 NA
ATOM      6  C   UNL     1       7.113   4.900  16.963  0.00  0.00    +0.000 A 
ATOM      7  N   UNL     1       7.449   4.575  15.755  0.00  0.00    +0.000 NA
ATOM      8  C   UNL     1       6.215   4.361  15.148  0.00  0.00    +0.000 A 
ATOM      9  N   UNL     1       5.145   4.516  15.868  0.00  0.00    +0.000 NA
ATOM     10  C   UNL     1       5.653   4.884  17.087  0.00  0.00    +0.000 A 
ATOM     11  H   UNL     1       5.564   5.804  20.164  0.00  0.00    +0.000 HD
ENDBRANCH   1   2
BRANCH   1  15
ATOM     12  C   UNL     1       1.596   8.951  19.000  0.00  0.00    +0.000 A 
ATOM     13  C   UNL     1       1.674   8.018  20.038  0.00  0.00    +0.000 A 
ATOM     14  C   UNL     1       2.372   6.801  19.878  0.00  0.00    +0.000 A 
ATOM     15  C   UNL     1       3.016   6.468  18.678  0.00  0.00    +0.000 A 
ATOM     16  C   UNL     1       2.953   7.445  17.663  0.00  0.00    +0.000 A 
ATOM     17  C   UNL     1       2.257   8.659  17.810  0.00  0.00    +0.000 A 
BRANCH  12  19
ATOM     18  C   UNL     1      -0.478  10.258  18.356  0.00  0.00    +0.000 C 
ATOM     19  C   UNL     1       0.816  10.237  19.159  0.00  0.00    +0.000 C 
ENDBRANCH  12  19
ENDBRANCH   1  15
BRANCH   1  20
ATOM     20  C   UNL     1       3.013   3.947  18.478  0.00  0.00    +0.000 C 
ATOM     21  C   UNL     1       1.800   3.882  17.559  0.00  0.00    +0.000 C 
ENDBRANCH   1  20
TORSDOF 4
ENDMDL
MODEL 6
REMARK VINA RESULT:      -7.2      2.089      6.348
REMARK  Name = 
REMARK  6 active torsions:
REMARK  status: ('A' for Active; 'I' for Inactive)
REMARK    1  A    between atoms: C_1  and  C_2
REMARK    2  A    between atoms: C_2  and  C_3
REMARK    3  A    between atoms: C_6  and  N_7
REMARK    4  A    between atoms: N_7  and  C_8
REMARK    5  A    between atoms: N_7  and  C_10
REMARK    6  A    between atoms: C_8  and  C_9
REMARK                            x       y       z     vdW  Elec       q    Type
REMARK                         _______ _______ _______ _____ _____    ______ ____
ROOT
ATOM      1  N   UNL     1       3.710   4.522  17.981  0.00  0.00    +0.000 N 
ENDROOT
BRANCH   1   2
ATOM      2  C   UNL     1       5.084   4.560  17.710  0.00  0.00    +0.000 A 
ATOM      3  N   UNL     1       6.013   4.580  18.742  0.00  0.00    +0.000 N 
ATOM      4  C   UNL     1       7.357   4.600  18.505  0.00  0.00    +0.000 A 
ATOM      5  N   UNL     1       7.921   4.610  17.340  0.00  0.00    +0.000 NA
ATOM      6  C   UNL     1       7.046   4.598  16.293  0.00  0.00    +0.000 A 
ATOM      7  N   UNL     1       7.332   4.616  15.031  0.00  0.00    +0.000 NA
ATOM      8  C   UNL     1       6.075   4.575  14.437  0.00  0.00    +0.000 A 
ATOM      9  N   UNL     1       5.034   4.528  15.213  0.00  0.00    +0.000 NA
ATOM     10  C   UNL     1       5.591   4.549  16.465  0.00  0.00    +0.000 A 
ATOM     11  H   UNL     1       5.628   4.592  19.678  0.00  0.00    +0.000 HD
ENDBRANCH   1   2
BRANCH   1  15
ATOM     12  C   UNL     1       1.735   7.771  19.979  0.00  0.00    +0.000 A 
ATOM     13  C   UNL     1       1.854   6.520  20.589  0.00  0.00    +0.000 A 
ATOM     14  C   UNL     1       2.504   5.447  19.942  0.00  0.00    +0.000 A 
ATOM     15  C   UNL     1       3.061   5.580  18.662  0.00  0.00    +0.000 A 
ATOM     16  C   UNL     1       2.960   6.865  18.088  0.00  0.00    +0.000 A 
ATOM     17  C   UNL     1       2.310   7.939  18.722  0.00  0.00    +0.000 A 
BRANCH  12  19
ATOM     18  C   UNL     1      -0.168   8.445  21.510  0.00  0.00    +0.000 C 
ATOM     19  C   UNL     1       1.004   8.908  20.656  0.00  0.00    +0.000 C 
ENDBRANCH  12  19
ENDBRANCH   1  15
BRANCH   1  20
ATOM     20  C   UNL     1       2.964   3.334  17.505  0.00  0.00    +0.000 C 
ATOM     21  C   UNL     1       3.269   2.049  18.264  0.00  0.00    +0.000 C 
ENDBRANCH   1  20
TORSDOF 4
ENDMDL
MODEL 7
REMARK VINA RESULT:      -7.2      2.104      6.404
REMARK  Name = 
REMARK  6 active torsions:
REMARK  status: ('A' for Active; 'I' for Inactive)
REMARK    1  A    between atoms: C_1  and  C_2
REMARK    2  A    between atoms: C_2  and  C_3
REMARK    3  A    between atoms: C_6  and  N_7
REMARK    4  A    between atoms: N_7  and  C_8
REMARK    5  A    between atoms: N_7  and  C_10
REMARK    6  A    between atoms: C_8  and  C_9
REMARK                            x       y       z     vdW  Elec       q    Type
REMARK                         _______ _______ _______ _____ _____    ______ ____
ROOT
ATOM      1  N   UNL     1       3.676   4.579  17.947  0.00  0.00    +0.000 N 
ENDROOT
BRANCH   1   2
ATOM      2  C   UNL     1       5.054   4.600  17.694  0.00  0.00    +0.000 A 
ATOM      3  N   UNL     1       5.969   4.584  18.739  0.00  0.00    +0.000 N 
ATOM      4  C   UNL     1       7.316   4.586  18.519  0.00  0.00    +0.000 A 
ATOM      5  N   UNL     1       7.896   4.612  17.362  0.00  0.00    +0.000 NA
ATOM      6  C   UNL     1       7.035   4.636  16.304  0.00  0.00    +0.000 A 
ATOM      7  N   UNL     1       7.338   4.675  15.046  0.00  0.00    +0.000 NA
ATOM      8  C   UNL     1       6.088   4.668  14.435  0.00  0.00    +0.000 A 
ATOM      9  N   UNL     1       5.036   4.621  15.197  0.00  0.00    +0.000 NA
ATOM     10  C   UNL     1       5.578   4.606  16.457  0.00  0.00    +0.000 A 
ATOM     11  H   UNL     1       5.572   4.583  19.669  0.00  0.00    +0.000 HD
ENDBRANCH   1   2
BRANCH   1  15
ATOM     12  C   UNL     1       1.707   7.811  19.976  0.00  0.00    +0.000 A 
ATOM     13  C   UNL     1       2.274   7.997  18.713  0.00  0.00    +0.000 A 
ATOM     14  C   UNL     1       2.920   6.940  18.036  0.00  0.00    +0.000 A 
ATOM     15  C   UNL     1       3.026   5.657  18.594  0.00  0.00    +0.000 A 
ATOM     16  C   UNL     1       2.410   5.490  19.852  0.00  0.00    +0.000 A 
ATOM     17  C   UNL     1       1.768   6.538  20.536  0.00  0.00    +0.000 A 
BRANCH  12  19
ATOM     18  C   UNL     1      -0.054   8.501  21.663  0.00  0.00    +0.000 C 
ATOM     19  C   UNL     1       1.050   8.954  20.717  0.00  0.00    +0.000 C 
ENDBRANCH  12  19
ENDBRANCH   1  15
BRANCH   1  20
ATOM     20  C   UNL     1       2.928   3.385  17.488  0.00  0.00    +0.000 C 
ATOM     21  C   UNL     1       3.230   2.111  18.266  0.00  0.00    +0.000 C 
ENDBRANCH   1  20
TORSDOF 4
ENDMDL
MODEL 8
REMARK VINA RESULT:      -7.2      2.318      6.040
REMARK  Name = 
REMARK  6 active torsions:
REMARK  status: ('A' for Active; 'I' for Inactive)
REMARK    1  A    between atoms: C_1  and  C_2
REMARK    2  A    between atoms: C_2  and  C_3
REMARK    3  A    between atoms: C_6  and  N_7
REMARK    4  A    between atoms: N_7  and  C_8
REMARK    5  A    between atoms: N_7  and  C_10
REMARK    6  A    between atoms: C_8  and  C_9
REMARK                            x       y       z     vdW  Elec       q    Type
REMARK                         _______ _______ _______ _____ _____    ______ ____
ROOT
ATOM      1  N   UNL     1       3.587   4.728  18.423  0.00  0.00    +0.000 N 
ENDROOT
BRANCH   1   2
ATOM      2  C   UNL     1       4.834   4.621  17.793  0.00  0.00    +0.000 A 
ATOM      3  N   UNL     1       4.929   4.223  16.466  0.00  0.00    +0.000 N 
ATOM      4  C   UNL     1       6.130   4.128  15.824  0.00  0.00    +0.000 A 
ATOM      5  N   UNL     1       7.289   4.377  16.343  0.00  0.00    +0.000 NA
ATOM      6  C   UNL     1       7.246   4.766  17.650  0.00  0.00    +0.000 A 
ATOM      7  N   UNL     1       8.248   5.063  18.414  0.00  0.00    +0.000 NA
ATOM      8  C   UNL     1       7.624   5.396  19.612  0.00  0.00    +0.000 A 
ATOM      9  N   UNL     1       6.327   5.338  19.662  0.00  0.00    +0.000 NA
ATOM     10  C   UNL     1       5.996   4.918  18.400  0.00  0.00    +0.000 A 
ATOM     11  H   UNL     1       4.054   3.997  16.013  0.00  0.00    +0.000 HD
ENDBRANCH   1   2
BRANCH   1  15
ATOM     12  C   UNL     1       1.779   8.561  19.115  0.00  0.00    +0.000 A 
ATOM     13  C   UNL     1       1.823   7.596  20.125  0.00  0.00    +0.000 A 
ATOM     14  C   UNL     1       2.419   6.335  19.908  0.00  0.00    +0.000 A 
ATOM     15  C   UNL     1       2.992   5.987  18.677  0.00  0.00    +0.000 A 
ATOM     16  C   UNL     1       2.968   6.994  17.690  0.00  0.00    +0.000 A 
ATOM     17  C   UNL     1       2.372   8.253  17.894  0.00  0.00    +0.000 A 
BRANCH  12  19
ATOM     18  C   UNL     1      -0.053  10.151  18.382  0.00  0.00    +0.000 C 
ATOM     19  C   UNL     1       1.106   9.897  19.336  0.00  0.00    +0.000 C 
ENDBRANCH  12  19
ENDBRANCH   1  15
BRANCH   1  20
ATOM     20  C   UNL     1       2.912   3.462  18.792  0.00  0.00    +0.000 C 
ATOM     21  C   UNL     1       1.522   3.288  18.195  0.00  0.00    +0.000 C 
ENDBRANCH   1  20
TORSDOF 4
ENDMDL
MODEL 9
REMARK VINA RESULT:      -7.2      0.697      2.263
REMARK  Name = 
REMARK  6 active torsions:
REMARK  status: ('A' for Active; 'I' for Inactive)
REMARK    1  A    between atoms: C_1  and  C_2
REMARK    2  A    between atoms: C_2  and  C_3
REMARK    3  A    between atoms: C_6  and  N_7
REMARK    4  A    between atoms: N_7  and  C_8
REMARK    5  A    between atoms: N_7  and  C_10
REMARK    6  A    between atoms: C_8  and  C_9
REMARK                            x       y       z     vdW  Elec       q    Type
REMARK                         _______ _______ _______ _____ _____    ______ ____
ROOT
ATOM      1  N   UNL     1       6.094   5.152  17.842  0.00  0.00    +0.000 N 
ENDROOT
BRANCH   1   2
ATOM      2  C   UNL     1       4.877   5.203  18.534  0.00  0.00    +0.000 A 
ATOM      3  N   UNL     1       4.065   6.328  18.464  0.00  0.00    +0.000 N 
ATOM      4  C   UNL     1       2.867   6.396  19.114  0.00  0.00    +0.000 A 
ATOM      5  N   UNL     1       2.353   5.469  19.856  0.00  0.00    +0.000 NA
ATOM      6  C   UNL     1       3.119   4.345  19.960  0.00  0.00    +0.000 A 
ATOM      7  N   UNL     1       2.856   3.276  20.642  0.00  0.00    +0.000 NA
ATOM      8  C   UNL     1       3.958   2.470  20.374  0.00  0.00    +0.000 A 
ATOM      9  N   UNL     1       4.879   2.937  19.584  0.00  0.00    +0.000 NA
ATOM     10  C   UNL     1       4.403   4.184  19.271  0.00  0.00    +0.000 A 
ATOM     11  H   UNL     1       4.426   7.094  17.911  0.00  0.00    +0.000 HD
ENDBRANCH   1   2
BRANCH   1  15
ATOM     12  C   UNL     1       6.197   4.003  13.705  0.00  0.00    +0.000 A 
ATOM     13  C   UNL     1       7.285   4.650  14.297  0.00  0.00    +0.000 A 
ATOM     14  C   UNL     1       7.262   5.028  15.657  0.00  0.00    +0.000 A 
ATOM     15  C   UNL     1       6.154   4.776  16.478  0.00  0.00    +0.000 A 
ATOM     16  C   UNL     1       5.087   4.087  15.864  0.00  0.00    +0.000 A 
ATOM     17  C   UNL     1       5.098   3.711  14.508  0.00  0.00    +0.000 A 
BRANCH  12  19
ATOM     18  C   UNL     1       4.854   3.157  11.730  0.00  0.00    +0.000 C 
ATOM     19  C   UNL     1       6.207   3.634  12.239  0.00  0.00    +0.000 C 
ENDBRANCH  12  19
ENDBRANCH   1  15
BRANCH   1  20
ATOM     20  C   UNL     1       7.311   5.528  18.597  0.00  0.00    +0.000 C 
ATOM     21  C   UNL     1       7.801   6.947  18.342  0.00  0.00    +0.000 C 
ENDBRANCH   1  20
TORSDOF 4
ENDMDL
