MODEL 1
REMARK VINA RESULT:      -5.6      0.000      0.000
REMARK  Name = 
REMARK  15 active torsions:
REMARK  status: ('A' for Active; 'I' for Inactive)
REMARK    1  A    between atoms: C_1  and  O_2
REMARK    2  A    between atoms: O_2  and  C_3
REMARK    3  A    between atoms: C_9  and  C_10
REMARK    4  A    between atoms: C_10  and  C_11
REMARK    5  A    between atoms: C_11  and  C_12
REMARK    6  A    between atoms: C_12  and  C_13
REMARK    7  A    between atoms: C_13  and  C_14
REMARK    8  A    between atoms: C_14  and  C_15
REMARK    9  A    between atoms: C_15  and  C_16
REMARK   10  A    between atoms: C_16  and  C_17
REMARK   11  A    between atoms: C_17  and  C_18
REMARK   12  A    between atoms: C_18  and  C_19
REMARK   13  A    between atoms: C_19  and  O_20
REMARK   14  A    between atoms: C_21  and  O_22
REMARK   15  A    between atoms: O_22  and  C_23
REMARK                            x       y       z     vdW  Elec       q    Type
REMARK                         _______ _______ _______ _____ _____    ______ ____
ROOT
ATOM      1  C   UNL     1       7.252   6.759  17.546  0.00  0.00    +0.000 C 
ATOM      2  C   UNL     1       7.711   6.502  18.781  0.00  0.00    +0.000 C 
ATOM      3  C   UNL     1       7.196   5.378  19.573  0.00  0.00    +0.000 C 
ATOM      4  O   UNL     1       7.626   5.161  20.697  0.00  0.00    +0.000 OA
ATOM      5  C   UNL     1       6.118   4.516  18.951  0.00  0.00    +0.000 C 
ATOM      6  O   UNL     1       5.650   3.574  19.576  0.00  0.00    +0.000 OA
ATOM      7  C   UNL     1       5.660   4.870  17.581  0.00  0.00    +0.000 C 
ATOM      8  C   UNL     1       6.209   5.914  16.927  0.00  0.00    +0.000 C 
ENDROOT
BRANCH   1  10
ATOM      9  C   UNL     1       7.994   9.058  17.426  0.00  0.00    +0.000 C 
ATOM     10  O   UNL     1       7.701   7.820  16.788  0.00  0.00    +0.000 OA
ENDBRANCH   1  10
BRANCH   8  11
ATOM     11  O   UNL     1       5.692   6.168  15.664  0.00  0.00    +0.000 OA
ATOM     12  C   UNL     1       6.054   5.457  14.492  0.00  0.00    +0.000 C 
ENDBRANCH   8  11
BRANCH   7  13
ATOM     13  C   UNL     1       4.551   4.003  17.026  0.00  0.00    +0.000 C 
BRANCH  13  14
ATOM     14  C   UNL     1       3.190   4.653  17.286  0.00  0.00    +0.000 C 
BRANCH  14  15
ATOM     15  C   UNL     1       2.051   3.635  17.342  0.00  0.00    +0.000 C 
BRANCH  15  16
ATOM     16  C   UNL     1       2.427   2.490  18.284  0.00  0.00    +0.000 C 
BRANCH  16  17
ATOM     17  C   UNL     1       2.299   2.883  19.753  0.00  0.00    +0.000 C 
BRANCH  17  18
ATOM     18  C   UNL     1       0.865   3.313  20.070  0.00  0.00    +0.000 C 
BRANCH  18  19
ATOM     19  C   UNL     1       0.798   4.797  20.419  0.00  0.00    +0.000 C 
BRANCH  19  20
ATOM     20  C   UNL     1       2.192   5.373  20.664  0.00  0.00    +0.000 C 
BRANCH  20  21
ATOM     21  C   UNL     1       2.275   6.818  20.182  0.00  0.00    +0.000 C 
BRANCH  21  22
ATOM     22  C   UNL     1       1.580   7.774  21.141  0.00  0.00    +0.000 C 
BRANCH  22  23
ATOM     23  O   UNL     1       0.868   8.758  20.405  0.00  0.00    +0.000 OA
ATOM     24  H   UNL     1      -0.019   8.404  20.223  0.00  0.00    +0.000 HD
ENDBRANCH  22  23
ENDBRANCH  21  22
ENDBRANCH  20  21
ENDBRANCH  19  20
ENDBRANCH  18  19
ENDBRANCH  17  18
ENDBRANCH  16  17
ENDBRANCH  15  16
ENDBRANCH  14  15
ENDBRANCH  13  14
ENDBRANCH   7  13
TORSDOF 13
ENDMDL
MODEL 2
REMARK VINA RESULT:      -5.5      2.977      6.880
REMARK  Name = 
REMARK  15 active torsions:
REMARK  status: ('A' for Active; 'I' for Inactive)
REMARK    1  A    between atoms: C_1  and  O_2
REMARK    2  A    between atoms: O_2  and  C_3
REMARK    3  A    between atoms: C_9  and  C_10
REMARK    4  A    between atoms: C_10  and  C_11
REMARK    5  A    between atoms: C_11  and  C_12
REMARK    6  A    between atoms: C_12  and  C_13
REMARK    7  A    between atoms: C_13  and  C_14
REMARK    8  A    between atoms: C_14  and  C_15
REMARK    9  A    between atoms: C_15  and  C_16
REMARK   10  A    between atoms: C_16  and  C_17
REMARK   11  A    between atoms: C_17  and  C_18
REMARK   12  A    between atoms: C_18  and  C_19
REMARK   13  A    between atoms: C_19  and  O_20
REMARK   14  A    between atoms: C_21  and  O_22
REMARK   15  A    between atoms: O_22  and  C_23
REMARK                            x       y       z     vdW  Elec       q    Type
REMARK                         _______ _______ _______ _____ _____    ______ ____
ROOT
ATOM      1  C   UNL     1       2.319   4.031  19.385  0.00  0.00    +0.000 C 
ATOM      2  C   UNL     1       3.057   3.018  19.867  0.00  0.00    +0.000 C 
ATOM      3  C   UNL     1       4.524   3.034  19.794  0.00  0.00    +0.000 C 
ATOM      4  O   UNL     1       5.178   2.101  20.236  0.00  0.00    +0.000 OA
ATOM      5  C   UNL     1       5.181   4.236  19.149  0.00  0.00    +0.000 C 
ATOM      6  O   UNL     1       6.400   4.290  19.057  0.00  0.00    +0.000 OA
ATOM      7  C   UNL     1       4.294   5.313  18.637  0.00  0.00    +0.000 C 
ATOM      8  C   UNL     1       2.955   5.212  18.766  0.00  0.00    +0.000 C 
ENDROOT
BRANCH   1  10
ATOM      9  C   UNL     1       0.227   2.935  18.860  0.00  0.00    +0.000 C 
ATOM     10  O   UNL     1       0.940   4.033  19.420  0.00  0.00    +0.000 OA
ENDBRANCH   1  10
BRANCH   8  11
ATOM     11  O   UNL     1       2.222   6.265  18.234  0.00  0.00    +0.000 OA
ATOM     12  C   UNL     1       1.961   7.482  18.911  0.00  0.00    +0.000 C 
ENDBRANCH   8  11
BRANCH   7  13
ATOM     13  C   UNL     1       5.002   6.468  17.963  0.00  0.00    +0.000 C 
BRANCH  13  14
ATOM     14  C   UNL     1       5.348   6.106  16.517  0.00  0.00    +0.000 C 
BRANCH  14  15
ATOM     15  C   UNL     1       6.854   6.093  16.256  0.00  0.00    +0.000 C 
BRANCH  15  16
ATOM     16  C   UNL     1       7.291   4.691  15.825  0.00  0.00    +0.000 C 
BRANCH  16  17
ATOM     17  C   UNL     1       6.117   3.838  15.354  0.00  0.00    +0.000 C 
BRANCH  17  18
ATOM     18  C   UNL     1       6.269   3.488  13.872  0.00  0.00    +0.000 C 
BRANCH  18  19
ATOM     19  C   UNL     1       4.976   3.756  13.107  0.00  0.00    +0.000 C 
BRANCH  19  20
ATOM     20  C   UNL     1       5.092   3.314  11.649  0.00  0.00    +0.000 C 
BRANCH  20  21
ATOM     21  C   UNL     1       3.712   3.092  11.038  0.00  0.00    +0.000 C 
BRANCH  21  22
ATOM     22  C   UNL     1       3.298   4.254  10.146  0.00  0.00    +0.000 C 
BRANCH  22  23
ATOM     23  O   UNL     1       2.813   3.758   8.906  0.00  0.00    +0.000 OA
ATOM     24  H   UNL     1       3.102   4.374   8.211  0.00  0.00    +0.000 HD
ENDBRANCH  22  23
ENDBRANCH  21  22
ENDBRANCH  20  21
ENDBRANCH  19  20
ENDBRANCH  18  19
ENDBRANCH  17  18
ENDBRANCH  16  17
ENDBRANCH  15  16
ENDBRANCH  14  15
ENDBRANCH  13  14
ENDBRANCH   7  13
TORSDOF 13
ENDMDL
MODEL 3
REMARK VINA RESULT:      -5.3      2.606      6.956
REMARK  Name = 
REMARK  15 active torsions:
REMARK  status: ('A' for Active; 'I' for Inactive)
REMARK    1  A    between atoms: C_1  and  O_2
REMARK    2  A    between atoms: O_2  and  C_3
REMARK    3  A    between atoms: C_9  and  C_10
REMARK    4  A    between atoms: C_10  and  C_11
REMARK    5  A    between atoms: C_11  and  C_12
REMARK    6  A    between atoms: C_12  and  C_13
REMARK    7  A    between atoms: C_13  and  C_14
REMARK    8  A    between atoms: C_14  and  C_15
REMARK    9  A    between atoms: C_15  and  C_16
REMARK   10  A    between atoms: C_16  and  C_17
REMARK   11  A    between atoms: C_17  and  C_18
REMARK   12  A    between atoms: C_18  and  C_19
REMARK   13  A    between atoms: C_19  and  O_20
REMARK   14  A    between atoms: C_21  and  O_22
REMARK   15  A    between atoms: O_22  and  C_23
REMARK                            x       y       z     vdW  Elec       q    Type
REMARK                         _______ _______ _______ _____ _____    ______ ____
ROOT
ATOM      1  C   UNL     1       3.944   2.517  19.947  0.00  0.00    +0.000 C 
ATOM      2  C   UNL     1       2.670   2.094  19.907  0.00  0.00    +0.000 C 
ATOM      3  C   UNL     1       1.714   2.628  18.929  0.00  0.00    +0.000 C 
ATOM      4  O   UNL     1       0.557   2.232  18.911  0.00  0.00    +0.000 OA
ATOM      5  C   UNL     1       2.212   3.682  17.963  0.00  0.00    +0.000 C 
ATOM      6  O   UNL     1       1.449   4.164  17.137  0.00  0.00    +0.000 OA
ATOM      7  C   UNL     1       3.634   4.100  18.075  0.00  0.00    +0.000 C 
ATOM      8  C   UNL     1       4.440   3.536  18.998  0.00  0.00    +0.000 C 
ENDROOT
BRANCH   1  10
ATOM      9  C   UNL     1       5.275   0.690  20.808  0.00  0.00    +0.000 C 
ATOM     10  O   UNL     1       4.858   2.050  20.868  0.00  0.00    +0.000 OA
ENDBRANCH   1  10
BRANCH   8  11
ATOM     11  O   UNL     1       5.743   4.015  19.029  0.00  0.00    +0.000 OA
ATOM     12  C   UNL     1       6.146   5.197  19.699  0.00  0.00    +0.000 C 
ENDBRANCH   8  11
BRANCH   7  13
ATOM     13  C   UNL     1       4.067   5.187  17.115  0.00  0.00    +0.000 C 
BRANCH  13  14
ATOM     14  C   UNL     1       5.045   4.621  16.082  0.00  0.00    +0.000 C 
BRANCH  14  15
ATOM     15  C   UNL     1       6.240   5.543  15.835  0.00  0.00    +0.000 C 
BRANCH  15  16
ATOM     16  C   UNL     1       6.122   6.788  16.717  0.00  0.00    +0.000 C 
BRANCH  16  17
ATOM     17  C   UNL     1       7.458   7.186  17.337  0.00  0.00    +0.000 C 
BRANCH  17  18
ATOM     18  C   UNL     1       7.558   8.707  17.467  0.00  0.00    +0.000 C 
BRANCH  18  19
ATOM     19  C   UNL     1       8.661   9.107  18.442  0.00  0.00    +0.000 C 
BRANCH  19  20
ATOM     20  C   UNL     1       8.979  10.598  18.340  0.00  0.00    +0.000 C 
BRANCH  20  21
ATOM     21  C   UNL     1      10.146  10.968  19.250  0.00  0.00    +0.000 C 
BRANCH  21  22
ATOM     22  C   UNL     1      11.055  12.006  18.607  0.00  0.00    +0.000 C 
BRANCH  22  23
ATOM     23  O   UNL     1      11.484  11.545  17.334  0.00  0.00    +0.000 OA
ATOM     24  H   UNL     1      11.253  12.228  16.682  0.00  0.00    +0.000 HD
ENDBRANCH  22  23
ENDBRANCH  21  22
ENDBRANCH  20  21
ENDBRANCH  19  20
ENDBRANCH  18  19
ENDBRANCH  17  18
ENDBRANCH  16  17
ENDBRANCH  15  16
ENDBRANCH  14  15
ENDBRANCH  13  14
ENDBRANCH   7  13
TORSDOF 13
ENDMDL
MODEL 4
REMARK VINA RESULT:      -5.3      1.589      2.438
REMARK  Name = 
REMARK  15 active torsions:
REMARK  status: ('A' for Active; 'I' for Inactive)
REMARK    1  A    between atoms: C_1  and  O_2
REMARK    2  A    between atoms: O_2  and  C_3
REMARK    3  A    between atoms: C_9  and  C_10
REMARK    4  A    between atoms: C_10  and  C_11
REMARK    5  A    between atoms: C_11  and  C_12
REMARK    6  A    between atoms: C_12  and  C_13
REMARK    7  A    between atoms: C_13  and  C_14
REMARK    8  A    between atoms: C_14  and  C_15
REMARK    9  A    between atoms: C_15  and  C_16
REMARK   10  A    between atoms: C_16  and  C_17
REMARK   11  A    between atoms: C_17  and  C_18
REMARK   12  A    between atoms: C_18  and  C_19
REMARK   13  A    between atoms: C_19  and  O_20
REMARK   14  A    between atoms: C_21  and  O_22
REMARK   15  A    between atoms: O_22  and  C_23
REMARK                            x       y       z     vdW  Elec       q    Type
REMARK                         _______ _______ _______ _____ _____    ______ ____
ROOT
ATOM      1  C   UNL     1       7.304   7.051  17.654  0.00  0.00    +0.000 C 
ATOM      2  C   UNL     1       7.889   6.630  18.788  0.00  0.00    +0.000 C 
ATOM      3  C   UNL     1       7.344   5.507  19.561  0.00  0.00    +0.000 C 
ATOM      4  O   UNL     1       7.891   5.140  20.592  0.00  0.00    +0.000 OA
ATOM      5  C   UNL     1       6.090   4.838  19.040  0.00  0.00    +0.000 C 
ATOM      6  O   UNL     1       5.594   3.904  19.656  0.00  0.00    +0.000 OA
ATOM      7  C   UNL     1       5.501   5.366  17.782  0.00  0.00    +0.000 C 
ATOM      8  C   UNL     1       6.087   6.393  17.133  0.00  0.00    +0.000 C 
ENDROOT
BRANCH   1  10
ATOM      9  C   UNL     1       8.094   9.336  17.582  0.00  0.00    +0.000 C 
ATOM     10  O   UNL     1       7.780   8.116  16.919  0.00  0.00    +0.000 OA
ENDBRANCH   1  10
BRANCH   8  11
ATOM     11  O   UNL     1       5.441   6.820  15.980  0.00  0.00    +0.000 OA
ATOM     12  C   UNL     1       5.436   6.107  14.755  0.00  0.00    +0.000 C 
ENDBRANCH   8  11
BRANCH   7  13
ATOM     13  C   UNL     1       4.226   4.689  17.331  0.00  0.00    +0.000 C 
BRANCH  13  14
ATOM     14  C   UNL     1       3.008   5.423  17.898  0.00  0.00    +0.000 C 
BRANCH  14  15
ATOM     15  C   UNL     1       2.259   4.600  18.947  0.00  0.00    +0.000 C 
BRANCH  15  16
ATOM     16  C   UNL     1       2.435   5.240  20.326  0.00  0.00    +0.000 C 
BRANCH  16  17
ATOM     17  C   UNL     1       1.318   6.227  20.653  0.00  0.00    +0.000 C 
BRANCH  17  18
ATOM     18  C   UNL     1       1.827   7.666  20.551  0.00  0.00    +0.000 C 
BRANCH  18  19
ATOM     19  C   UNL     1       1.028   8.599  21.457  0.00  0.00    +0.000 C 
BRANCH  19  20
ATOM     20  C   UNL     1       0.752   9.936  20.771  0.00  0.00    +0.000 C 
BRANCH  20  21
ATOM     21  C   UNL     1       0.472   9.736  19.285  0.00  0.00    +0.000 C 
BRANCH  21  22
ATOM     22  C   UNL     1      -0.784  10.474  18.843  0.00  0.00    +0.000 C 
BRANCH  22  23
ATOM     23  O   UNL     1      -0.909  10.404  17.430  0.00  0.00    +0.000 OA
ATOM     24  H   UNL     1      -0.023  10.236  17.065  0.00  0.00    +0.000 HD
ENDBRANCH  22  23
ENDBRANCH  21  22
ENDBRANCH  20  21
ENDBRANCH  19  20
ENDBRANCH  18  19
ENDBRANCH  17  18
ENDBRANCH  16  17
ENDBRANCH  15  16
ENDBRANCH  14  15
ENDBRANCH  13  14
ENDBRANCH   7  13
TORSDOF 13
ENDMDL
MODEL 5
REMARK VINA RESULT:      -5.3      2.610      7.189
REMARK  Name = 
REMARK  15 active torsions:
REMARK  status: ('A' for Active; 'I' for Inactive)
REMARK    1  A    between atoms: C_1  and  O_2
REMARK    2  A    between atoms: O_2  and  C_3
REMARK    3  A    between atoms: C_9  and  C_10
REMARK    4  A    between atoms: C_10  and  C_11
REMARK    5  A    between atoms: C_11  and  C_12
REMARK    6  A    between atoms: C_12  and  C_13
REMARK    7  A    between atoms: C_13  and  C_14
REMARK    8  A    between atoms: C_14  and  C_15
REMARK    9  A    between atoms: C_15  and  C_16
REMARK   10  A    between atoms: C_16  and  C_17
REMARK   11  A    between atoms: C_17  and  C_18
REMARK   12  A    between atoms: C_18  and  C_19
REMARK   13  A    between atoms: C_19  and  O_20
REMARK   14  A    between atoms: C_21  and  O_22
REMARK   15  A    between atoms: O_22  and  C_23
REMARK                            x       y       z     vdW  Elec       q    Type
REMARK                         _______ _______ _______ _____ _____    ______ ____
ROOT
ATOM      1  C   UNL     1       2.540   4.745  20.619  0.00  0.00    +0.000 C 
ATOM      2  C   UNL     1       1.942   5.947  20.580  0.00  0.00    +0.000 C 
ATOM      3  C   UNL     1       2.287   6.943  19.558  0.00  0.00    +0.000 C 
ATOM      4  O   UNL     1       1.733   8.033  19.540  0.00  0.00    +0.000 OA
ATOM      5  C   UNL     1       3.350   6.572  18.545  0.00  0.00    +0.000 C 
ATOM      6  O   UNL     1       3.678   7.373  17.680  0.00  0.00    +0.000 OA
ATOM      7  C   UNL     1       3.967   5.224  18.659  0.00  0.00    +0.000 C 
ATOM      8  C   UNL     1       3.569   4.371  19.626  0.00  0.00    +0.000 C 
ENDROOT
BRANCH   1  10
ATOM      9  C   UNL     1       1.248   2.824  21.320  0.00  0.00    +0.000 C 
ATOM     10  O   UNL     1       2.253   3.799  21.580  0.00  0.00    +0.000 OA
ENDBRANCH   1  10
BRANCH   8  11
ATOM     11  O   UNL     1       4.226   3.148  19.653  0.00  0.00    +0.000 OA
ATOM     12  C   UNL     1       3.797   1.993  18.953  0.00  0.00    +0.000 C 
ENDBRANCH   8  11
BRANCH   7  13
ATOM     13  C   UNL     1       5.053   4.922  17.650  0.00  0.00    +0.000 C 
BRANCH  13  14
ATOM     14  C   UNL     1       6.419   4.877  18.339  0.00  0.00    +0.000 C 
BRANCH  14  15
ATOM     15  C   UNL     1       7.503   5.610  17.549  0.00  0.00    +0.000 C 
BRANCH  15  16
ATOM     16  C   UNL     1       7.943   6.861  18.313  0.00  0.00    +0.000 C 
BRANCH  16  17
ATOM     17  C   UNL     1       7.249   8.122  17.808  0.00  0.00    +0.000 C 
BRANCH  17  18
ATOM     18  C   UNL     1       8.274   9.226  17.537  0.00  0.00    +0.000 C 
BRANCH  18  19
ATOM     19  C   UNL     1       8.837   9.788  18.839  0.00  0.00    +0.000 C 
BRANCH  19  20
ATOM     20  C   UNL     1       9.796  10.947  18.574  0.00  0.00    +0.000 C 
BRANCH  20  21
ATOM     21  C   UNL     1      10.509  11.366  19.856  0.00  0.00    +0.000 C 
BRANCH  21  22
ATOM     22  C   UNL     1      10.427  12.869  20.082  0.00  0.00    +0.000 C 
BRANCH  22  23
ATOM     23  O   UNL     1      11.156  13.547  19.068  0.00  0.00    +0.000 OA
ATOM     24  H   UNL     1      10.863  14.474  19.067  0.00  0.00    +0.000 HD
ENDBRANCH  22  23
ENDBRANCH  21  22
ENDBRANCH  20  21
ENDBRANCH  19  20
ENDBRANCH  18  19
ENDBRANCH  17  18
ENDBRANCH  16  17
ENDBRANCH  15  16
ENDBRANCH  14  15
ENDBRANCH  13  14
ENDBRANCH   7  13
TORSDOF 13
ENDMDL
MODEL 6
REMARK VINA RESULT:      -5.2      3.510      8.146
REMARK  Name = 
REMARK  15 active torsions:
REMARK  status: ('A' for Active; 'I' for Inactive)
REMARK    1  A    between atoms: C_1  and  O_2
REMARK    2  A    between atoms: O_2  and  C_3
REMARK    3  A    between atoms: C_9  and  C_10
REMARK    4  A    between atoms: C_10  and  C_11
REMARK    5  A    between atoms: C_11  and  C_12
REMARK    6  A    between atoms: C_12  and  C_13
REMARK    7  A    between atoms: C_13  and  C_14
REMARK    8  A    between atoms: C_14  and  C_15
REMARK    9  A    between atoms: C_15  and  C_16
REMARK   10  A    between atoms: C_16  and  C_17
REMARK   11  A    between atoms: C_17  and  C_18
REMARK   12  A    between atoms: C_18  and  C_19
REMARK   13  A    between atoms: C_19  and  O_20
REMARK   14  A    between atoms: C_21  and  O_22
REMARK   15  A    between atoms: O_22  and  C_23
REMARK                            x       y       z     vdW  Elec       q    Type
REMARK                         _______ _______ _______ _____ _____    ______ ____
ROOT
ATOM      1  C   UNL     1       4.359   4.216  16.930  0.00  0.00    +0.000 C 
ATOM      2  C   UNL     1       4.599   3.956  15.634  0.00  0.00    +0.000 C 
ATOM      3  C   UNL     1       5.842   4.388  14.982  0.00  0.00    +0.000 C 
ATOM      4  O   UNL     1       6.041   4.143  13.801  0.00  0.00    +0.000 OA
ATOM      5  C   UNL     1       6.849   5.145  15.821  0.00  0.00    +0.000 C 
ATOM      6  O   UNL     1       7.895   5.534  15.319  0.00  0.00    +0.000 OA
ATOM      7  C   UNL     1       6.506   5.397  17.246  0.00  0.00    +0.000 C 
ATOM      8  C   UNL     1       5.344   4.944  17.758  0.00  0.00    +0.000 C 
ENDROOT
BRANCH   1  10
ATOM      9  C   UNL     1       2.949   2.463  17.818  0.00  0.00    +0.000 C 
ATOM     10  O   UNL     1       3.193   3.843  17.563  0.00  0.00    +0.000 OA
ENDBRANCH   1  10
BRANCH   8  11
ATOM     11  O   UNL     1       5.117   5.253  19.093  0.00  0.00    +0.000 OA
ATOM     12  C   UNL     1       3.884   5.729  19.606  0.00  0.00    +0.000 C 
ENDBRANCH   8  11
BRANCH   7  13
ATOM     13  C   UNL     1       7.528   6.196  18.026  0.00  0.00    +0.000 C 
BRANCH  13  14
ATOM     14  C   UNL     1       7.532   7.652  17.555  0.00  0.00    +0.000 C 
BRANCH  14  15
ATOM     15  C   UNL     1       8.342   8.567  18.474  0.00  0.00    +0.000 C 
BRANCH  15  16
ATOM     16  C   UNL     1       8.454   9.959  17.848  0.00  0.00    +0.000 C 
BRANCH  16  17
ATOM     17  C   UNL     1       9.500  10.824  18.544  0.00  0.00    +0.000 C 
BRANCH  17  18
ATOM     18  C   UNL     1       9.757  12.103  17.745  0.00  0.00    +0.000 C 
BRANCH  18  19
ATOM     19  C   UNL     1       8.747  13.191  18.103  0.00  0.00    +0.000 C 
BRANCH  19  20
ATOM     20  C   UNL     1       9.395  14.297  18.935  0.00  0.00    +0.000 C 
BRANCH  20  21
ATOM     21  C   UNL     1       9.649  15.538  18.084  0.00  0.00    +0.000 C 
BRANCH  21  22
ATOM     22  C   UNL     1      10.944  15.423  17.292  0.00  0.00    +0.000 C 
BRANCH  22  23
ATOM     23  O   UNL     1      10.803  16.088  16.044  0.00  0.00    +0.000 OA
ATOM     24  H   UNL     1      11.626  16.579  15.880  0.00  0.00    +0.000 HD
ENDBRANCH  22  23
ENDBRANCH  21  22
ENDBRANCH  20  21
ENDBRANCH  19  20
ENDBRANCH  18  19
ENDBRANCH  17  18
ENDBRANCH  16  17
ENDBRANCH  15  16
ENDBRANCH  14  15
ENDBRANCH  13  14
ENDBRANCH   7  13
TORSDOF 13
ENDMDL
MODEL 7
REMARK VINA RESULT:      -5.1      2.244      6.851
REMARK  Name = 
REMARK  15 active torsions:
REMARK  status: ('A' for Active; 'I' for Inactive)
REMARK    1  A    between atoms: C_1  and  O_2
REMARK    2  A    between atoms: O_2  and  C_3
REMARK    3  A    between atoms: C_9  and  C_10
REMARK    4  A    between atoms: C_10  and  C_11
REMARK    5  A    between atoms: C_11  and  C_12
REMARK    6  A    between atoms: C_12  and  C_13
REMARK    7  A    between atoms: C_13  and  C_14
REMARK    8  A    between atoms: C_14  and  C_15
REMARK    9  A    between atoms: C_15  and  C_16
REMARK   10  A    between atoms: C_16  and  C_17
REMARK   11  A    between atoms: C_17  and  C_18
REMARK   12  A    between atoms: C_18  and  C_19
REMARK   13  A    between atoms: C_19  and  O_20
REMARK   14  A    between atoms: C_21  and  O_22
REMARK   15  A    between atoms: O_22  and  C_23
REMARK                            x       y       z     vdW  Elec       q    Type
REMARK                         _______ _______ _______ _____ _____    ______ ____
ROOT
ATOM      1  C   UNL     1       1.550   4.498  20.424  0.00  0.00    +0.000 C 
ATOM      2  C   UNL     1       1.537   5.813  20.695  0.00  0.00    +0.000 C 
ATOM      3  C   UNL     1       2.160   6.789  19.792  0.00  0.00    +0.000 C 
ATOM      4  O   UNL     1       2.138   7.983  20.058  0.00  0.00    +0.000 OA
ATOM      5  C   UNL     1       2.827   6.262  18.540  0.00  0.00    +0.000 C 
ATOM      6  O   UNL     1       3.368   7.036  17.762  0.00  0.00    +0.000 OA
ATOM      7  C   UNL     1       2.803   4.792  18.315  0.00  0.00    +0.000 C 
ATOM      8  C   UNL     1       2.189   3.978  19.197  0.00  0.00    +0.000 C 
ENDROOT
BRANCH   1  10
ATOM      9  C   UNL     1       1.847   2.709  22.025  0.00  0.00    +0.000 C 
ATOM     10  O   UNL     1       0.993   3.556  21.263  0.00  0.00    +0.000 OA
ENDBRANCH   1  10
BRANCH   8  11
ATOM     11  O   UNL     1       2.245   2.622  18.899  0.00  0.00    +0.000 OA
ATOM     12  C   UNL     1       1.139   1.853  18.459  0.00  0.00    +0.000 C 
ENDBRANCH   8  11
BRANCH   7  13
ATOM     13  C   UNL     1       3.522   4.317  17.071  0.00  0.00    +0.000 C 
BRANCH  13  14
ATOM     14  C   UNL     1       4.872   3.700  17.445  0.00  0.00    +0.000 C 
BRANCH  14  15
ATOM     15  C   UNL     1       5.377   4.166  18.810  0.00  0.00    +0.000 C 
BRANCH  15  16
ATOM     16  C   UNL     1       6.618   5.043  18.631  0.00  0.00    +0.000 C 
BRANCH  16  17
ATOM     17  C   UNL     1       7.251   4.874  17.253  0.00  0.00    +0.000 C 
BRANCH  17  18
ATOM     18  C   UNL     1       7.006   6.116  16.393  0.00  0.00    +0.000 C 
BRANCH  18  19
ATOM     19  C   UNL     1       6.189   5.774  15.151  0.00  0.00    +0.000 C 
BRANCH  19  20
ATOM     20  C   UNL     1       6.927   4.777  14.258  0.00  0.00    +0.000 C 
BRANCH  20  21
ATOM     21  C   UNL     1       5.953   3.786  13.630  0.00  0.00    +0.000 C 
BRANCH  21  22
ATOM     22  C   UNL     1       6.364   3.412  12.213  0.00  0.00    +0.000 C 
BRANCH  22  23
ATOM     23  O   UNL     1       5.891   2.109  11.904  0.00  0.00    +0.000 OA
ATOM     24  H   UNL     1       5.004   2.019  12.293  0.00  0.00    +0.000 HD
ENDBRANCH  22  23
ENDBRANCH  21  22
ENDBRANCH  20  21
ENDBRANCH  19  20
ENDBRANCH  18  19
ENDBRANCH  17  18
ENDBRANCH  16  17
ENDBRANCH  15  16
ENDBRANCH  14  15
ENDBRANCH  13  14
ENDBRANCH   7  13
TORSDOF 13
ENDMDL
MODEL 8
REMARK VINA RESULT:      -5.1      3.559      5.988
REMARK  Name = 
REMARK  15 active torsions:
REMARK  status: ('A' for Active; 'I' for Inactive)
REMARK    1  A    between atoms: C_1  and  O_2
REMARK    2  A    between atoms: O_2  and  C_3
REMARK    3  A    between atoms: C_9  and  C_10
REMARK    4  A    between atoms: C_10  and  C_11
REMARK    5  A    between atoms: C_11  and  C_12
REMARK    6  A    between atoms: C_12  and  C_13
REMARK    7  A    between atoms: C_13  and  C_14
REMARK    8  A    between atoms: C_14  and  C_15
REMARK    9  A    between atoms: C_15  and  C_16
REMARK   10  A    between atoms: C_16  and  C_17
REMARK   11  A    between atoms: C_17  and  C_18
REMARK   12  A    between atoms: C_18  and  C_19
REMARK   13  A    between atoms: C_19  and  O_20
REMARK   14  A    between atoms: C_21  and  O_22
REMARK   15  A    between atoms: O_22  and  C_23
REMARK                            x       y       z     vdW  Elec       q    Type
REMARK                         _______ _______ _______ _____ _____    ______ ____
ROOT
ATOM      1  C   UNL     1       3.500   3.509  17.670  0.00  0.00    +0.000 C 
ATOM      2  C   UNL     1       4.713   3.734  17.139  0.00  0.00    +0.000 C 
ATOM      3  C   UNL     1       5.220   5.097  16.933  0.00  0.00    +0.000 C 
ATOM      4  O   UNL     1       6.326   5.281  16.447  0.00  0.00    +0.000 OA
ATOM      5  C   UNL     1       4.323   6.248  17.336  0.00  0.00    +0.000 C 
ATOM      6  O   UNL     1       4.698   7.401  17.175  0.00  0.00    +0.000 OA
ATOM      7  C   UNL     1       2.993   5.915  17.912  0.00  0.00    +0.000 C 
ATOM      8  C   UNL     1       2.625   4.628  18.077  0.00  0.00    +0.000 C 
ENDROOT
BRANCH   1  10
ATOM      9  C   UNL     1       3.701   1.314  18.667  0.00  0.00    +0.000 C 
ATOM     10  O   UNL     1       2.989   2.242  17.854  0.00  0.00    +0.000 OA
ENDBRANCH   1  10
BRANCH   8  11
ATOM     11  O   UNL     1       1.355   4.432  18.603  0.00  0.00    +0.000 OA
ATOM     12  C   UNL     1       1.096   3.942  19.908  0.00  0.00    +0.000 C 
ENDBRANCH   8  11
BRANCH   7  13
ATOM     13  C   UNL     1       2.121   7.103  18.256  0.00  0.00    +0.000 C 
BRANCH  13  14
ATOM     14  C   UNL     1       2.265   7.452  19.739  0.00  0.00    +0.000 C 
BRANCH  14  15
ATOM     15  C   UNL     1       1.146   8.364  20.242  0.00  0.00    +0.000 C 
BRANCH  15  16
ATOM     16  C   UNL     1       1.356   9.782  19.708  0.00  0.00    +0.000 C 
BRANCH  16  17
ATOM     17  C   UNL     1       0.137  10.672  19.931  0.00  0.00    +0.000 C 
BRANCH  17  18
ATOM     18  C   UNL     1      -1.070  10.131  19.163  0.00  0.00    +0.000 C 
BRANCH  18  19
ATOM     19  C   UNL     1      -0.773  10.026  17.669  0.00  0.00    +0.000 C 
BRANCH  19  20
ATOM     20  C   UNL     1      -2.059  10.053  16.844  0.00  0.00    +0.000 C 
BRANCH  20  21
ATOM     21  C   UNL     1      -3.272   9.756  17.720  0.00  0.00    +0.000 C 
BRANCH  21  22
ATOM     22  C   UNL     1      -4.345  10.826  17.578  0.00  0.00    +0.000 C 
BRANCH  22  23
ATOM     23  O   UNL     1      -3.792  11.982  16.964  0.00  0.00    +0.000 OA
ATOM     24  H   UNL     1      -3.423  11.710  16.106  0.00  0.00    +0.000 HD
ENDBRANCH  22  23
ENDBRANCH  21  22
ENDBRANCH  20  21
ENDBRANCH  19  20
ENDBRANCH  18  19
ENDBRANCH  17  18
ENDBRANCH  16  17
ENDBRANCH  15  16
ENDBRANCH  14  15
ENDBRANCH  13  14
ENDBRANCH   7  13
TORSDOF 13
ENDMDL
MODEL 9
REMARK VINA RESULT:      -5.0      2.841      7.381
REMARK  Name = 
REMARK  15 active torsions:
REMARK  status: ('A' for Active; 'I' for Inactive)
REMARK    1  A    between atoms: C_1  and  O_2
REMARK    2  A    between atoms: O_2  and  C_3
REMARK    3  A    between atoms: C_9  and  C_10
REMARK    4  A    between atoms: C_10  and  C_11
REMARK    5  A    between atoms: C_11  and  C_12
REMARK    6  A    between atoms: C_12  and  C_13
REMARK    7  A    between atoms: C_13  and  C_14
REMARK    8  A    between atoms: C_14  and  C_15
REMARK    9  A    between atoms: C_15  and  C_16
REMARK   10  A    between atoms: C_16  and  C_17
REMARK   11  A    between atoms: C_17  and  C_18
REMARK   12  A    between atoms: C_18  and  C_19
REMARK   13  A    between atoms: C_19  and  O_20
REMARK   14  A    between atoms: C_21  and  O_22
REMARK   15  A    between atoms: O_22  and  C_23
REMARK                            x       y       z     vdW  Elec       q    Type
REMARK                         _______ _______ _______ _____ _____    ______ ____
ROOT
ATOM      1  C   UNL     1      -0.684  11.094  19.878  0.00  0.00    +0.000 C 
ATOM      2  C   UNL     1      -1.150  11.628  21.019  0.00  0.00    +0.000 C 
ATOM      3  C   UNL     1      -0.704  11.145  22.332  0.00  0.00    +0.000 C 
ATOM      4  O   UNL     1      -1.142  11.644  23.359  0.00  0.00    +0.000 OA
ATOM      5  C   UNL     1       0.300  10.013  22.359  0.00  0.00    +0.000 C 
ATOM      6  O   UNL     1       0.693   9.570  23.430  0.00  0.00    +0.000 OA
ATOM      7  C   UNL     1       0.763   9.472  21.054  0.00  0.00    +0.000 C 
ATOM      8  C   UNL     1       0.307   9.997  19.898  0.00  0.00    +0.000 C 
ENDROOT
BRANCH   1  10
ATOM      9  C   UNL     1      -2.304  10.984  18.086  0.00  0.00    +0.000 C 
ATOM     10  O   UNL     1      -1.100  11.512  18.632  0.00  0.00    +0.000 OA
ENDBRANCH   1  10
BRANCH   8  11
ATOM     11  O   UNL     1       0.789   9.403  18.739  0.00  0.00    +0.000 OA
ATOM     12  C   UNL     1       1.852   9.920  17.957  0.00  0.00    +0.000 C 
ENDBRANCH   8  11
BRANCH   7  13
ATOM     13  C   UNL     1       1.732   8.314  21.141  0.00  0.00    +0.000 C 
BRANCH  13  14
ATOM     14  C   UNL     1       0.999   6.991  20.903  0.00  0.00    +0.000 C 
BRANCH  14  15
ATOM     15  C   UNL     1       1.953   5.810  20.727  0.00  0.00    +0.000 C 
BRANCH  15  16
ATOM     16  C   UNL     1       1.156   4.549  20.387  0.00  0.00    +0.000 C 
BRANCH  16  17
ATOM     17  C   UNL     1       1.935   3.273  20.690  0.00  0.00    +0.000 C 
BRANCH  17  18
ATOM     18  C   UNL     1       3.254   3.252  19.916  0.00  0.00    +0.000 C 
BRANCH  18  19
ATOM     19  C   UNL     1       3.010   3.233  18.409  0.00  0.00    +0.000 C 
BRANCH  19  20
ATOM     20  C   UNL     1       3.752   4.373  17.713  0.00  0.00    +0.000 C 
BRANCH  20  21
ATOM     21  C   UNL     1       4.704   3.831  16.650  0.00  0.00    +0.000 C 
BRANCH  21  22
ATOM     22  C   UNL     1       6.131   4.311  16.874  0.00  0.00    +0.000 C 
BRANCH  22  23
ATOM     23  O   UNL     1       6.498   4.109  18.231  0.00  0.00    +0.000 OA
ATOM     24  H   UNL     1       6.684   3.162  18.346  0.00  0.00    +0.000 HD
ENDBRANCH  22  23
ENDBRANCH  21  22
ENDBRANCH  20  21
ENDBRANCH  19  20
ENDBRANCH  18  19
ENDBRANCH  17  18
ENDBRANCH  16  17
ENDBRANCH  15  16
ENDBRANCH  14  15
ENDBRANCH  13  14
ENDBRANCH   7  13
TORSDOF 13
ENDMDL
