MODEL 1
REMARK VINA RESULT:      -6.4      0.000      0.000
REMARK  Name = 
REMARK  18 active torsions:
REMARK  status: ('A' for Active; 'I' for Inactive)
REMARK    1  A    between atoms: C_1  and  O_2
REMARK    2  A    between atoms: O_2  and  C_3
REMARK    3  A    between atoms: C_3  and  C_4
REMARK    4  A    between atoms: C_4  and  N_5
REMARK    5  A    between atoms: N_5  and  C_6
REMARK    6  A    between atoms: C_6  and  C_7
REMARK    7  A    between atoms: C_7  and  C_8
REMARK    8  A    between atoms: C_7  and  C_9
REMARK    9  A    between atoms: C_10  and  C_12
REMARK   10  A    between atoms: C_12  and  C_13
REMARK   11  A    between atoms: C_12  and  C_14
REMARK   12  A    between atoms: C_14  and  N_15
REMARK   13  A    between atoms: C_14  and  C_23
REMARK   14  A    between atoms: C_16  and  O_18
REMARK   15  A    between atoms: O_18  and  C_19
REMARK   16  A    between atoms: C_19  and  C_20
REMARK   17  A    between atoms: C_19  and  C_21
REMARK   18  A    between atoms: C_19  and  C_22
REMARK                            x       y       z     vdW  Elec       q    Type
REMARK                         _______ _______ _______ _____ _____    ______ ____
ROOT
ATOM      1  C   UNL     1       2.410   6.530  19.225  0.00  0.00    +0.000 C 
ENDROOT
BRANCH   1   2
ATOM      2  C   UNL     1       2.036   5.176  19.864  0.00  0.00    +0.000 A 
ATOM      3  C   UNL     1       1.241   4.257  19.166  0.00  0.00    +0.000 A 
ATOM      4  C   UNL     1       0.922   3.018  19.734  0.00  0.00    +0.000 A 
ATOM      5  C   UNL     1       1.404   2.671  20.997  0.00  0.00    +0.000 A 
ATOM      6  C   UNL     1       2.209   3.561  21.697  0.00  0.00    +0.000 A 
ATOM      7  C   UNL     1       2.519   4.795  21.134  0.00  0.00    +0.000 A 
ENDBRANCH   1   2
BRANCH   1   8
ATOM      8  N   UNL     1       3.856   6.563  19.000  0.00  0.00    +0.000 N 
ATOM      9  C   UNL     1       4.438   6.113  17.851  0.00  0.00    +0.000 C 
ATOM     10  O   UNL     1       3.822   5.592  16.938  0.00  0.00    +0.000 OA
ATOM     11  H   UNL     1       4.475   6.847  19.747  0.00  0.00    +0.000 HD
BRANCH   9  12
ATOM     12  O   UNL     1       5.778   6.308  17.865  0.00  0.00    +0.000 OA
BRANCH  12  13
ATOM     13  C   UNL     1       6.604   5.213  18.357  0.00  0.00    +0.000 C 
ATOM     14  C   UNL     1       5.751   4.115  19.016  0.00  0.00    +0.000 C 
ATOM     15  C   UNL     1       7.285   4.603  17.123  0.00  0.00    +0.000 C 
ATOM     16  C   UNL     1       7.708   5.730  19.293  0.00  0.00    +0.000 C 
ENDBRANCH  12  13
ENDBRANCH   9  12
ENDBRANCH   1   8
BRANCH   1  17
ATOM     17  C   UNL     1       1.879   7.761  20.025  0.00  0.00    +0.000 C 
ATOM     18  C   UNL     1       0.663   7.382  20.884  0.00  0.00    +0.000 C 
BRANCH  17  20
ATOM     19  N   UNL     1       0.997  10.122  19.715  0.00  0.00    +0.000 N 
ATOM     20  C   UNL     1       1.446   8.922  19.119  0.00  0.00    +0.000 C 
ATOM     21  O   UNL     1       1.410   8.748  17.896  0.00  0.00    +0.000 OA
BRANCH  19  22
ATOM     22  C   UNL     1       0.501  11.166  18.789  0.00  0.00    +0.000 C 
BRANCH  22  23
ATOM     23  C   UNL     1       1.142  12.564  18.758  0.00  0.00    +0.000 C 
BRANCH  23  25
ATOM     24  C   UNL     1       3.131  13.804  18.624  0.00  0.00    +0.000 C 
ATOM     25  O   UNL     1       2.504  12.554  18.331  0.00  0.00    +0.000 OA
ENDBRANCH  23  25
ENDBRANCH  22  23
ENDBRANCH  19  22
BRANCH  19  26
ATOM     26  C   UNL     1       0.967  10.347  21.176  0.00  0.00    +0.000 C 
BRANCH  26  27
ATOM     27  C   UNL     1      -0.394  10.650  21.836  0.00  0.00    +0.000 C 
ATOM     28  C   UNL     1      -0.630   9.896  23.145  0.00  0.00    +0.000 C 
ATOM     29  C   UNL     1      -0.498  12.159  22.112  0.00  0.00    +0.000 C 
ENDBRANCH  26  27
ENDBRANCH  19  26
ENDBRANCH  17  20
ENDBRANCH   1  17
TORSDOF 11
ENDMDL
MODEL 2
REMARK VINA RESULT:      -6.4      1.146      1.852
REMARK  Name = 
REMARK  18 active torsions:
REMARK  status: ('A' for Active; 'I' for Inactive)
REMARK    1  A    between atoms: C_1  and  O_2
REMARK    2  A    between atoms: O_2  and  C_3
REMARK    3  A    between atoms: C_3  and  C_4
REMARK    4  A    between atoms: C_4  and  N_5
REMARK    5  A    between atoms: N_5  and  C_6
REMARK    6  A    between atoms: C_6  and  C_7
REMARK    7  A    between atoms: C_7  and  C_8
REMARK    8  A    between atoms: C_7  and  C_9
REMARK    9  A    between atoms: C_10  and  C_12
REMARK   10  A    between atoms: C_12  and  C_13
REMARK   11  A    between atoms: C_12  and  C_14
REMARK   12  A    between atoms: C_14  and  N_15
REMARK   13  A    between atoms: C_14  and  C_23
REMARK   14  A    between atoms: C_16  and  O_18
REMARK   15  A    between atoms: O_18  and  C_19
REMARK   16  A    between atoms: C_19  and  C_20
REMARK   17  A    between atoms: C_19  and  C_21
REMARK   18  A    between atoms: C_19  and  C_22
REMARK                            x       y       z     vdW  Elec       q    Type
REMARK                         _______ _______ _______ _____ _____    ______ ____
ROOT
ATOM      1  C   UNL     1       2.548   6.564  19.088  0.00  0.00    +0.000 C 
ENDROOT
BRANCH   1   2
ATOM      2  C   UNL     1       2.139   5.187  19.652  0.00  0.00    +0.000 A 
ATOM      3  C   UNL     1       1.422   4.280  18.859  0.00  0.00    +0.000 A 
ATOM      4  C   UNL     1       1.073   3.021  19.360  0.00  0.00    +0.000 A 
ATOM      5  C   UNL     1       1.445   2.642  20.650  0.00  0.00    +0.000 A 
ATOM      6  C   UNL     1       2.172   3.520  21.445  0.00  0.00    +0.000 A 
ATOM      7  C   UNL     1       2.512   4.774  20.948  0.00  0.00    +0.000 A 
ENDBRANCH   1   2
BRANCH   1   8
ATOM      8  N   UNL     1       4.003   6.597  18.930  0.00  0.00    +0.000 N 
ATOM      9  C   UNL     1       4.631   6.237  17.774  0.00  0.00    +0.000 C 
ATOM     10  O   UNL     1       4.052   5.803  16.795  0.00  0.00    +0.000 OA
ATOM     11  H   UNL     1       4.591   6.809  19.725  0.00  0.00    +0.000 HD
BRANCH   9  12
ATOM     12  O   UNL     1       5.971   6.412  17.863  0.00  0.00    +0.000 OA
BRANCH  12  13
ATOM     13  C   UNL     1       6.761   5.276  18.320  0.00  0.00    +0.000 C 
ATOM     14  C   UNL     1       7.807   5.701  19.366  0.00  0.00    +0.000 C 
ATOM     15  C   UNL     1       5.777   4.315  19.002  0.00  0.00    +0.000 C 
ATOM     16  C   UNL     1       7.397   4.532  17.135  0.00  0.00    +0.000 C 
ENDBRANCH  12  13
ENDBRANCH   9  12
ENDBRANCH   1   8
BRANCH   1  17
ATOM     17  C   UNL     1       1.987   7.764  19.915  0.00  0.00    +0.000 C 
ATOM     18  C   UNL     1       0.867   7.309  20.864  0.00  0.00    +0.000 C 
BRANCH  17  20
ATOM     19  N   UNL     1       0.909  10.048  19.652  0.00  0.00    +0.000 N 
ATOM     20  C   UNL     1       1.406   8.878  19.034  0.00  0.00    +0.000 C 
ATOM     21  O   UNL     1       1.298   8.687  17.818  0.00  0.00    +0.000 OA
BRANCH  19  22
ATOM     22  C   UNL     1       0.273  11.040  18.755  0.00  0.00    +0.000 C 
BRANCH  22  23
ATOM     23  C   UNL     1      -1.238  10.989  18.467  0.00  0.00    +0.000 C 
BRANCH  23  25
ATOM     24  C   UNL     1      -2.496  10.913  16.486  0.00  0.00    +0.000 C 
ATOM     25  O   UNL     1      -1.569  10.211  17.317  0.00  0.00    +0.000 OA
ENDBRANCH  23  25
ENDBRANCH  22  23
ENDBRANCH  19  22
BRANCH  19  26
ATOM     26  C   UNL     1       0.964  10.288  21.109  0.00  0.00    +0.000 C 
BRANCH  26  27
ATOM     27  C   UNL     1      -0.363  10.538  21.855  0.00  0.00    +0.000 C 
ATOM     28  C   UNL     1      -0.476   9.796  23.187  0.00  0.00    +0.000 C 
ATOM     29  C   UNL     1      -0.521  12.045  22.115  0.00  0.00    +0.000 C 
ENDBRANCH  26  27
ENDBRANCH  19  26
ENDBRANCH  17  20
ENDBRANCH   1  17
TORSDOF 11
ENDMDL
MODEL 3
REMARK VINA RESULT:      -6.4      1.980      6.973
REMARK  Name = 
REMARK  18 active torsions:
REMARK  status: ('A' for Active; 'I' for Inactive)
REMARK    1  A    between atoms: C_1  and  O_2
REMARK    2  A    between atoms: O_2  and  C_3
REMARK    3  A    between atoms: C_3  and  C_4
REMARK    4  A    between atoms: C_4  and  N_5
REMARK    5  A    between atoms: N_5  and  C_6
REMARK    6  A    between atoms: C_6  and  C_7
REMARK    7  A    between atoms: C_7  and  C_8
REMARK    8  A    between atoms: C_7  and  C_9
REMARK    9  A    between atoms: C_10  and  C_12
REMARK   10  A    between atoms: C_12  and  C_13
REMARK   11  A    between atoms: C_12  and  C_14
REMARK   12  A    between atoms: C_14  and  N_15
REMARK   13  A    between atoms: C_14  and  C_23
REMARK   14  A    between atoms: C_16  and  O_18
REMARK   15  A    between atoms: O_18  and  C_19
REMARK   16  A    between atoms: C_19  and  C_20
REMARK   17  A    between atoms: C_19  and  C_21
REMARK   18  A    between atoms: C_19  and  C_22
REMARK                            x       y       z     vdW  Elec       q    Type
REMARK                         _______ _______ _______ _____ _____    ______ ____
ROOT
ATOM      1  C   UNL     1       2.298   6.705  20.305  0.00  0.00    +0.000 C 
ENDROOT
BRANCH   1   2
ATOM      2  C   UNL     1       1.948   5.232  20.602  0.00  0.00    +0.000 A 
ATOM      3  C   UNL     1       0.818   4.640  20.019  0.00  0.00    +0.000 A 
ATOM      4  C   UNL     1       0.513   3.297  20.267  0.00  0.00    +0.000 A 
ATOM      5  C   UNL     1       1.336   2.521  21.084  0.00  0.00    +0.000 A 
ATOM      6  C   UNL     1       2.470   3.084  21.656  0.00  0.00    +0.000 A 
ATOM      7  C   UNL     1       2.768   4.422  21.414  0.00  0.00    +0.000 A 
ENDBRANCH   1   2
BRANCH   1   8
ATOM      8  N   UNL     1       1.066   7.495  20.317  0.00  0.00    +0.000 N 
ATOM      9  C   UNL     1       0.838   8.501  21.209  0.00  0.00    +0.000 C 
ATOM     10  O   UNL     1       1.606   8.795  22.109  0.00  0.00    +0.000 OA
ATOM     11  H   UNL     1       0.302   7.246  19.703  0.00  0.00    +0.000 HD
BRANCH   9  12
ATOM     12  O   UNL     1      -0.346   9.114  20.974  0.00  0.00    +0.000 OA
BRANCH  12  13
ATOM     13  C   UNL     1      -0.301  10.509  20.556  0.00  0.00    +0.000 C 
ATOM     14  C   UNL     1       1.063  10.871  19.944  0.00  0.00    +0.000 C 
ATOM     15  C   UNL     1      -1.365  10.662  19.459  0.00  0.00    +0.000 C 
ATOM     16  C   UNL     1      -0.684  11.446  21.713  0.00  0.00    +0.000 C 
ENDBRANCH  12  13
ENDBRANCH   9  12
ENDBRANCH   1   8
BRANCH   1  17
ATOM     17  C   UNL     1       3.142   6.892  19.004  0.00  0.00    +0.000 C 
ATOM     18  C   UNL     1       2.506   7.939  18.076  0.00  0.00    +0.000 C 
BRANCH  17  20
ATOM     19  N   UNL     1       4.517   4.906  18.223  0.00  0.00    +0.000 N 
ATOM     20  C   UNL     1       3.285   5.598  18.192  0.00  0.00    +0.000 C 
ATOM     21  O   UNL     1       2.356   5.244  17.458  0.00  0.00    +0.000 OA
BRANCH  19  22
ATOM     22  C   UNL     1       4.622   3.720  17.341  0.00  0.00    +0.000 C 
BRANCH  22  23
ATOM     23  C   UNL     1       4.922   3.877  15.840  0.00  0.00    +0.000 C 
BRANCH  23  25
ATOM     24  C   UNL     1       6.552   4.122  14.168  0.00  0.00    +0.000 C 
ATOM     25  O   UNL     1       6.307   3.736  15.522  0.00  0.00    +0.000 OA
ENDBRANCH  23  25
ENDBRANCH  22  23
ENDBRANCH  19  22
BRANCH  19  26
ATOM     26  C   UNL     1       5.672   5.331  19.040  0.00  0.00    +0.000 C 
BRANCH  26  27
ATOM     27  C   UNL     1       6.983   5.697  18.312  0.00  0.00    +0.000 C 
ATOM     28  C   UNL     1       6.877   6.944  17.434  0.00  0.00    +0.000 C 
ATOM     29  C   UNL     1       8.095   5.917  19.350  0.00  0.00    +0.000 C 
ENDBRANCH  26  27
ENDBRANCH  19  26
ENDBRANCH  17  20
ENDBRANCH   1  17
TORSDOF 11
ENDMDL
MODEL 4
REMARK VINA RESULT:      -6.3      2.013      6.991
REMARK  Name = 
REMARK  18 active torsions:
REMARK  status: ('A' for Active; 'I' for Inactive)
REMARK    1  A    between atoms: C_1  and  O_2
REMARK    2  A    between atoms: O_2  and  C_3
REMARK    3  A    between atoms: C_3  and  C_4
REMARK    4  A    between atoms: C_4  and  N_5
REMARK    5  A    between atoms: N_5  and  C_6
REMARK    6  A    between atoms: C_6  and  C_7
REMARK    7  A    between atoms: C_7  and  C_8
REMARK    8  A    between atoms: C_7  and  C_9
REMARK    9  A    between atoms: C_10  and  C_12
REMARK   10  A    between atoms: C_12  and  C_13
REMARK   11  A    between atoms: C_12  and  C_14
REMARK   12  A    between atoms: C_14  and  N_15
REMARK   13  A    between atoms: C_14  and  C_23
REMARK   14  A    between atoms: C_16  and  O_18
REMARK   15  A    between atoms: O_18  and  C_19
REMARK   16  A    between atoms: C_19  and  C_20
REMARK   17  A    between atoms: C_19  and  C_21
REMARK   18  A    between atoms: C_19  and  C_22
REMARK                            x       y       z     vdW  Elec       q    Type
REMARK                         _______ _______ _______ _____ _____    ______ ____
ROOT
ATOM      1  C   UNL     1       2.287   6.697  20.276  0.00  0.00    +0.000 C 
ENDROOT
BRANCH   1   2
ATOM      2  C   UNL     1       1.964   5.211  20.539  0.00  0.00    +0.000 A 
ATOM      3  C   UNL     1       2.766   4.453  21.404  0.00  0.00    +0.000 A 
ATOM      4  C   UNL     1       2.460   3.112  21.663  0.00  0.00    +0.000 A 
ATOM      5  C   UNL     1       1.343   2.513  21.079  0.00  0.00    +0.000 A 
ATOM      6  C   UNL     1       0.525   3.253  20.234  0.00  0.00    +0.000 A 
ATOM      7  C   UNL     1       0.835   4.584  19.971  0.00  0.00    +0.000 A 
ENDBRANCH   1   2
BRANCH   1   8
ATOM      8  N   UNL     1       1.047   7.472  20.360  0.00  0.00    +0.000 N 
ATOM      9  C   UNL     1       0.851   8.460  21.279  0.00  0.00    +0.000 C 
ATOM     10  O   UNL     1       1.656   8.747  22.147  0.00  0.00    +0.000 OA
ATOM     11  H   UNL     1       0.259   7.223  19.777  0.00  0.00    +0.000 HD
BRANCH   9  12
ATOM     12  O   UNL     1      -0.350   9.062  21.110  0.00  0.00    +0.000 OA
BRANCH  12  13
ATOM     13  C   UNL     1      -0.342  10.440  20.637  0.00  0.00    +0.000 C 
ATOM     14  C   UNL     1      -0.635  11.429  21.779  0.00  0.00    +0.000 C 
ATOM     15  C   UNL     1       1.082  10.712  20.132  0.00  0.00    +0.000 C 
ATOM     16  C   UNL     1      -1.302  10.623  19.451  0.00  0.00    +0.000 C 
ENDBRANCH  12  13
ENDBRANCH   9  12
ENDBRANCH   1   8
BRANCH   1  17
ATOM     17  C   UNL     1       3.079   6.934  18.951  0.00  0.00    +0.000 C 
ATOM     18  C   UNL     1       2.335   7.913  18.028  0.00  0.00    +0.000 C 
BRANCH  17  20
ATOM     19  N   UNL     1       4.572   5.020  18.212  0.00  0.00    +0.000 N 
ATOM     20  C   UNL     1       3.307   5.645  18.151  0.00  0.00    +0.000 C 
ATOM     21  O   UNL     1       2.414   5.238  17.400  0.00  0.00    +0.000 OA
BRANCH  19  22
ATOM     22  C   UNL     1       4.758   3.836  17.340  0.00  0.00    +0.000 C 
BRANCH  22  23
ATOM     23  C   UNL     1       5.077   4.000  15.844  0.00  0.00    +0.000 C 
BRANCH  23  25
ATOM     24  C   UNL     1       6.900   4.752  14.570  0.00  0.00    +0.000 C 
ATOM     25  O   UNL     1       6.455   3.794  15.532  0.00  0.00    +0.000 OA
ENDBRANCH  23  25
ENDBRANCH  22  23
ENDBRANCH  19  22
BRANCH  19  26
ATOM     26  C   UNL     1       5.686   5.509  19.051  0.00  0.00    +0.000 C 
BRANCH  26  27
ATOM     27  C   UNL     1       7.062   5.718  18.382  0.00  0.00    +0.000 C 
ATOM     28  C   UNL     1       7.147   6.977  17.519  0.00  0.00    +0.000 C 
ATOM     29  C   UNL     1       8.147   5.790  19.469  0.00  0.00    +0.000 C 
ENDBRANCH  26  27
ENDBRANCH  19  26
ENDBRANCH  17  20
ENDBRANCH   1  17
TORSDOF 11
ENDMDL
MODEL 5
REMARK VINA RESULT:      -6.3      2.039      6.792
REMARK  Name = 
REMARK  18 active torsions:
REMARK  status: ('A' for Active; 'I' for Inactive)
REMARK    1  A    between atoms: C_1  and  O_2
REMARK    2  A    between atoms: O_2  and  C_3
REMARK    3  A    between atoms: C_3  and  C_4
REMARK    4  A    between atoms: C_4  and  N_5
REMARK    5  A    between atoms: N_5  and  C_6
REMARK    6  A    between atoms: C_6  and  C_7
REMARK    7  A    between atoms: C_7  and  C_8
REMARK    8  A    between atoms: C_7  and  C_9
REMARK    9  A    between atoms: C_10  and  C_12
REMARK   10  A    between atoms: C_12  and  C_13
REMARK   11  A    between atoms: C_12  and  C_14
REMARK   12  A    between atoms: C_14  and  N_15
REMARK   13  A    between atoms: C_14  and  C_23
REMARK   14  A    between atoms: C_16  and  O_18
REMARK   15  A    between atoms: O_18  and  C_19
REMARK   16  A    between atoms: C_19  and  C_20
REMARK   17  A    between atoms: C_19  and  C_21
REMARK   18  A    between atoms: C_19  and  C_22
REMARK                            x       y       z     vdW  Elec       q    Type
REMARK                         _______ _______ _______ _____ _____    ______ ____
ROOT
ATOM      1  C   UNL     1       2.965   5.924  19.128  0.00  0.00    +0.000 C 
ENDROOT
BRANCH   1   2
ATOM      2  C   UNL     1       2.291   4.737  19.846  0.00  0.00    +0.000 A 
ATOM      3  C   UNL     1       2.706   4.356  21.130  0.00  0.00    +0.000 A 
ATOM      4  C   UNL     1       2.078   3.295  21.794  0.00  0.00    +0.000 A 
ATOM      5  C   UNL     1       1.019   2.611  21.195  0.00  0.00    +0.000 A 
ATOM      6  C   UNL     1       0.581   2.986  19.931  0.00  0.00    +0.000 A 
ATOM      7  C   UNL     1       1.212   4.035  19.270  0.00  0.00    +0.000 A 
ENDBRANCH   1   2
BRANCH   1   8
ATOM      8  N   UNL     1       1.928   6.852  18.673  0.00  0.00    +0.000 N 
ATOM      9  C   UNL     1       2.210   8.065  18.116  0.00  0.00    +0.000 C 
ATOM     10  O   UNL     1       3.338   8.511  18.000  0.00  0.00    +0.000 OA
ATOM     11  H   UNL     1       0.954   6.643  18.847  0.00  0.00    +0.000 HD
BRANCH   9  12
ATOM     12  O   UNL     1       1.083   8.705  17.726  0.00  0.00    +0.000 OA
BRANCH  12  13
ATOM     13  C   UNL     1       0.660   9.851  18.520  0.00  0.00    +0.000 C 
ATOM     14  C   UNL     1       1.549  11.079  18.256  0.00  0.00    +0.000 C 
ATOM     15  C   UNL     1      -0.764  10.192  18.056  0.00  0.00    +0.000 C 
ATOM     16  C   UNL     1       0.592   9.495  20.014  0.00  0.00    +0.000 C 
ENDBRANCH  12  13
ENDBRANCH   9  12
ENDBRANCH   1   8
BRANCH   1  17
ATOM     17  C   UNL     1       3.947   5.487  17.994  0.00  0.00    +0.000 C 
ATOM     18  C   UNL     1       3.800   3.990  17.680  0.00  0.00    +0.000 C 
BRANCH  17  20
ATOM     19  N   UNL     1       6.351   5.926  17.308  0.00  0.00    +0.000 N 
ATOM     20  C   UNL     1       5.419   5.730  18.352  0.00  0.00    +0.000 C 
ATOM     21  O   UNL     1       5.771   5.653  19.534  0.00  0.00    +0.000 OA
BRANCH  19  22
ATOM     22  C   UNL     1       7.770   6.056  17.714  0.00  0.00    +0.000 C 
BRANCH  22  23
ATOM     23  C   UNL     1       8.278   7.330  18.410  0.00  0.00    +0.000 C 
BRANCH  23  25
ATOM     24  C   UNL     1       8.585   9.654  18.277  0.00  0.00    +0.000 C 
ATOM     25  O   UNL     1       7.863   8.534  17.764  0.00  0.00    +0.000 OA
ENDBRANCH  23  25
ENDBRANCH  22  23
ENDBRANCH  19  22
BRANCH  19  26
ATOM     26  C   UNL     1       5.980   5.964  15.878  0.00  0.00    +0.000 C 
BRANCH  26  27
ATOM     27  C   UNL     1       6.405   4.779  14.985  0.00  0.00    +0.000 C 
ATOM     28  C   UNL     1       5.249   4.136  14.218  0.00  0.00    +0.000 C 
ATOM     29  C   UNL     1       7.461   5.258  13.976  0.00  0.00    +0.000 C 
ENDBRANCH  26  27
ENDBRANCH  19  26
ENDBRANCH  17  20
ENDBRANCH   1  17
TORSDOF 11
ENDMDL
MODEL 6
REMARK VINA RESULT:      -6.2      1.384      1.919
REMARK  Name = 
REMARK  18 active torsions:
REMARK  status: ('A' for Active; 'I' for Inactive)
REMARK    1  A    between atoms: C_1  and  O_2
REMARK    2  A    between atoms: O_2  and  C_3
REMARK    3  A    between atoms: C_3  and  C_4
REMARK    4  A    between atoms: C_4  and  N_5
REMARK    5  A    between atoms: N_5  and  C_6
REMARK    6  A    between atoms: C_6  and  C_7
REMARK    7  A    between atoms: C_7  and  C_8
REMARK    8  A    between atoms: C_7  and  C_9
REMARK    9  A    between atoms: C_10  and  C_12
REMARK   10  A    between atoms: C_12  and  C_13
REMARK   11  A    between atoms: C_12  and  C_14
REMARK   12  A    between atoms: C_14  and  N_15
REMARK   13  A    between atoms: C_14  and  C_23
REMARK   14  A    between atoms: C_16  and  O_18
REMARK   15  A    between atoms: O_18  and  C_19
REMARK   16  A    between atoms: C_19  and  C_20
REMARK   17  A    between atoms: C_19  and  C_21
REMARK   18  A    between atoms: C_19  and  C_22
REMARK                            x       y       z     vdW  Elec       q    Type
REMARK                         _______ _______ _______ _____ _____    ______ ____
ROOT
ATOM      1  C   UNL     1       2.543   6.154  19.299  0.00  0.00    +0.000 C 
ENDROOT
BRANCH   1   2
ATOM      2  C   UNL     1       2.118   4.841  19.988  0.00  0.00    +0.000 A 
ATOM      3  C   UNL     1       2.635   4.500  21.246  0.00  0.00    +0.000 A 
ATOM      4  C   UNL     1       2.231   3.321  21.884  0.00  0.00    +0.000 A 
ATOM      5  C   UNL     1       1.296   2.475  21.287  0.00  0.00    +0.000 A 
ATOM      6  C   UNL     1       0.758   2.805  20.049  0.00  0.00    +0.000 A 
ATOM      7  C   UNL     1       1.166   3.973  19.413  0.00  0.00    +0.000 A 
ENDBRANCH   1   2
BRANCH   1   8
ATOM      8  N   UNL     1       3.987   6.118  19.064  0.00  0.00    +0.000 N 
ATOM      9  C   UNL     1       4.574   5.263  18.179  0.00  0.00    +0.000 C 
ATOM     10  O   UNL     1       3.966   4.416  17.550  0.00  0.00    +0.000 OA
ATOM     11  H   UNL     1       4.604   6.683  19.634  0.00  0.00    +0.000 HD
BRANCH   9  12
ATOM     12  O   UNL     1       5.911   5.468  18.103  0.00  0.00    +0.000 OA
BRANCH  12  13
ATOM     13  C   UNL     1       6.430   6.012  16.855  0.00  0.00    +0.000 C 
ATOM     14  C   UNL     1       5.317   6.664  16.017  0.00  0.00    +0.000 C 
ATOM     15  C   UNL     1       7.428   7.111  17.249  0.00  0.00    +0.000 C 
ATOM     16  C   UNL     1       7.200   4.942  16.064  0.00  0.00    +0.000 C 
ENDBRANCH  12  13
ENDBRANCH   9  12
ENDBRANCH   1   8
BRANCH   1  17
ATOM     17  C   UNL     1       2.069   7.434  20.057  0.00  0.00    +0.000 C 
ATOM     18  C   UNL     1       0.846   7.137  20.938  0.00  0.00    +0.000 C 
BRANCH  17  20
ATOM     19  N   UNL     1       1.190   9.784  19.667  0.00  0.00    +0.000 N 
ATOM     20  C   UNL     1       1.676   8.578  19.113  0.00  0.00    +0.000 C 
ATOM     21  O   UNL     1       1.703   8.386  17.892  0.00  0.00    +0.000 OA
BRANCH  19  22
ATOM     22  C   UNL     1       0.736  10.811  18.700  0.00  0.00    +0.000 C 
BRANCH  22  23
ATOM     23  C   UNL     1      -0.706  10.807  18.163  0.00  0.00    +0.000 C 
BRANCH  23  25
ATOM     24  C   UNL     1      -0.668  13.144  18.376  0.00  0.00    +0.000 C 
ATOM     25  O   UNL     1      -1.454  11.963  18.540  0.00  0.00    +0.000 OA
ENDBRANCH  23  25
ENDBRANCH  22  23
ENDBRANCH  19  22
BRANCH  19  26
ATOM     26  C   UNL     1       1.085  10.031  21.120  0.00  0.00    +0.000 C 
BRANCH  26  27
ATOM     27  C   UNL     1      -0.268  10.520  21.678  0.00  0.00    +0.000 C 
ATOM     28  C   UNL     1      -0.677   9.849  22.989  0.00  0.00    +0.000 C 
ATOM     29  C   UNL     1      -0.204  12.040  21.901  0.00  0.00    +0.000 C 
ENDBRANCH  26  27
ENDBRANCH  19  26
ENDBRANCH  17  20
ENDBRANCH   1  17
TORSDOF 11
ENDMDL
MODEL 7
REMARK VINA RESULT:      -6.2      0.258      1.262
REMARK  Name = 
REMARK  18 active torsions:
REMARK  status: ('A' for Active; 'I' for Inactive)
REMARK    1  A    between atoms: C_1  and  O_2
REMARK    2  A    between atoms: O_2  and  C_3
REMARK    3  A    between atoms: C_3  and  C_4
REMARK    4  A    between atoms: C_4  and  N_5
REMARK    5  A    between atoms: N_5  and  C_6
REMARK    6  A    between atoms: C_6  and  C_7
REMARK    7  A    between atoms: C_7  and  C_8
REMARK    8  A    between atoms: C_7  and  C_9
REMARK    9  A    between atoms: C_10  and  C_12
REMARK   10  A    between atoms: C_12  and  C_13
REMARK   11  A    between atoms: C_12  and  C_14
REMARK   12  A    between atoms: C_14  and  N_15
REMARK   13  A    between atoms: C_14  and  C_23
REMARK   14  A    between atoms: C_16  and  O_18
REMARK   15  A    between atoms: O_18  and  C_19
REMARK   16  A    between atoms: C_19  and  C_20
REMARK   17  A    between atoms: C_19  and  C_21
REMARK   18  A    between atoms: C_19  and  C_22
REMARK                            x       y       z     vdW  Elec       q    Type
REMARK                         _______ _______ _______ _____ _____    ______ ____
ROOT
ATOM      1  C   UNL     1       2.481   6.609  19.123  0.00  0.00    +0.000 C 
ENDROOT
BRANCH   1   2
ATOM      2  C   UNL     1       2.117   5.232  19.716  0.00  0.00    +0.000 A 
ATOM      3  C   UNL     1       2.504   4.897  21.022  0.00  0.00    +0.000 A 
ATOM      4  C   UNL     1       2.152   3.658  21.571  0.00  0.00    +0.000 A 
ATOM      5  C   UNL     1       1.397   2.744  20.835  0.00  0.00    +0.000 A 
ATOM      6  C   UNL     1       0.988   3.065  19.546  0.00  0.00    +0.000 A 
ATOM      7  C   UNL     1       1.345   4.294  19.000  0.00  0.00    +0.000 A 
ENDBRANCH   1   2
BRANCH   1   8
ATOM      8  N   UNL     1       3.930   6.667  18.920  0.00  0.00    +0.000 N 
ATOM      9  C   UNL     1       4.543   6.176  17.805  0.00  0.00    +0.000 C 
ATOM     10  O   UNL     1       3.957   5.596  16.910  0.00  0.00    +0.000 OA
ATOM     11  H   UNL     1       4.529   7.003  19.663  0.00  0.00    +0.000 HD
BRANCH   9  12
ATOM     12  O   UNL     1       5.878   6.404  17.832  0.00  0.00    +0.000 OA
BRANCH  12  13
ATOM     13  C   UNL     1       6.730   5.317  18.295  0.00  0.00    +0.000 C 
ATOM     14  C   UNL     1       7.826   5.826  19.247  0.00  0.00    +0.000 C 
ATOM     15  C   UNL     1       5.820   4.368  19.089  0.00  0.00    +0.000 C 
ATOM     16  C   UNL     1       7.311   4.527  17.112  0.00  0.00    +0.000 C 
ENDBRANCH  12  13
ENDBRANCH   9  12
ENDBRANCH   1   8
BRANCH   1  17
ATOM     17  C   UNL     1       1.923   7.809  19.951  0.00  0.00    +0.000 C 
ATOM     18  C   UNL     1       0.763   7.366  20.856  0.00  0.00    +0.000 C 
BRANCH  17  20
ATOM     19  N   UNL     1       0.922  10.128  19.691  0.00  0.00    +0.000 N 
ATOM     20  C   UNL     1       1.396   8.950  19.070  0.00  0.00    +0.000 C 
ATOM     21  O   UNL     1       1.310   8.776  17.850  0.00  0.00    +0.000 OA
BRANCH  19  22
ATOM     22  C   UNL     1       0.337  11.149  18.791  0.00  0.00    +0.000 C 
BRANCH  22  23
ATOM     23  C   UNL     1       0.969  12.547  18.666  0.00  0.00    +0.000 C 
BRANCH  23  25
ATOM     24  C   UNL     1       2.761  13.805  19.513  0.00  0.00    +0.000 C 
ATOM     25  O   UNL     1       2.372  12.560  18.930  0.00  0.00    +0.000 OA
ENDBRANCH  23  25
ENDBRANCH  22  23
ENDBRANCH  19  22
BRANCH  19  26
ATOM     26  C   UNL     1       0.951  10.350  21.151  0.00  0.00    +0.000 C 
BRANCH  26  27
ATOM     27  C   UNL     1      -0.382  10.652  21.867  0.00  0.00    +0.000 C 
ATOM     28  C   UNL     1      -0.565   9.894  23.182  0.00  0.00    +0.000 C 
ATOM     29  C   UNL     1      -0.475  12.160  22.150  0.00  0.00    +0.000 C 
ENDBRANCH  26  27
ENDBRANCH  19  26
ENDBRANCH  17  20
ENDBRANCH   1  17
TORSDOF 11
ENDMDL
MODEL 8
REMARK VINA RESULT:      -6.1      1.491      2.209
REMARK  Name = 
REMARK  18 active torsions:
REMARK  status: ('A' for Active; 'I' for Inactive)
REMARK    1  A    between atoms: C_1  and  O_2
REMARK    2  A    between atoms: O_2  and  C_3
REMARK    3  A    between atoms: C_3  and  C_4
REMARK    4  A    between atoms: C_4  and  N_5
REMARK    5  A    between atoms: N_5  and  C_6
REMARK    6  A    between atoms: C_6  and  C_7
REMARK    7  A    between atoms: C_7  and  C_8
REMARK    8  A    between atoms: C_7  and  C_9
REMARK    9  A    between atoms: C_10  and  C_12
REMARK   10  A    between atoms: C_12  and  C_13
REMARK   11  A    between atoms: C_12  and  C_14
REMARK   12  A    between atoms: C_14  and  N_15
REMARK   13  A    between atoms: C_14  and  C_23
REMARK   14  A    between atoms: C_16  and  O_18
REMARK   15  A    between atoms: O_18  and  C_19
REMARK   16  A    between atoms: C_19  and  C_20
REMARK   17  A    between atoms: C_19  and  C_21
REMARK   18  A    between atoms: C_19  and  C_22
REMARK                            x       y       z     vdW  Elec       q    Type
REMARK                         _______ _______ _______ _____ _____    ______ ____
ROOT
ATOM      1  C   UNL     1       2.620   6.130  19.157  0.00  0.00    +0.000 C 
ENDROOT
BRANCH   1   2
ATOM      2  C   UNL     1       2.147   4.830  19.839  0.00  0.00    +0.000 A 
ATOM      3  C   UNL     1       2.628   4.479  21.108  0.00  0.00    +0.000 A 
ATOM      4  C   UNL     1       2.181   3.312  21.740  0.00  0.00    +0.000 A 
ATOM      5  C   UNL     1       1.238   2.488  21.123  0.00  0.00    +0.000 A 
ATOM      6  C   UNL     1       0.735   2.829  19.874  0.00  0.00    +0.000 A 
ATOM      7  C   UNL     1       1.187   3.985  19.245  0.00  0.00    +0.000 A 
ENDBRANCH   1   2
BRANCH   1   8
ATOM      8  N   UNL     1       4.065   6.050  18.936  0.00  0.00    +0.000 N 
ATOM      9  C   UNL     1       4.631   5.194  18.037  0.00  0.00    +0.000 C 
ATOM     10  O   UNL     1       3.999   4.383  17.383  0.00  0.00    +0.000 OA
ATOM     11  H   UNL     1       4.694   6.579  19.524  0.00  0.00    +0.000 HD
BRANCH   9  12
ATOM     12  O   UNL     1       5.974   5.354  17.978  0.00  0.00    +0.000 OA
BRANCH  12  13
ATOM     13  C   UNL     1       6.507   6.091  16.840  0.00  0.00    +0.000 C 
ATOM     14  C   UNL     1       7.144   5.148  15.805  0.00  0.00    +0.000 C 
ATOM     15  C   UNL     1       5.306   6.779  16.174  0.00  0.00    +0.000 C 
ATOM     16  C   UNL     1       7.480   7.190  17.299  0.00  0.00    +0.000 C 
ENDBRANCH  12  13
ENDBRANCH   9  12
ENDBRANCH   1   8
BRANCH   1  17
ATOM     17  C   UNL     1       2.180   7.423  19.914  0.00  0.00    +0.000 C 
ATOM     18  C   UNL     1       1.089   7.115  20.952  0.00  0.00    +0.000 C 
BRANCH  17  20
ATOM     19  N   UNL     1       1.071   9.677  19.544  0.00  0.00    +0.000 N 
ATOM     20  C   UNL     1       1.619   8.503  18.979  0.00  0.00    +0.000 C 
ATOM     21  O   UNL     1       1.573   8.281  17.765  0.00  0.00    +0.000 OA
BRANCH  19  22
ATOM     22  C   UNL     1       0.458  10.634  18.594  0.00  0.00    +0.000 C 
BRANCH  22  23
ATOM     23  C   UNL     1      -0.997  10.460  18.126  0.00  0.00    +0.000 C 
BRANCH  23  25
ATOM     24  C   UNL     1      -3.106  11.460  17.868  0.00  0.00    +0.000 C 
ATOM     25  O   UNL     1      -1.866  11.500  18.576  0.00  0.00    +0.000 OA
ENDBRANCH  23  25
ENDBRANCH  22  23
ENDBRANCH  19  22
BRANCH  19  26
ATOM     26  C   UNL     1       1.052   9.953  20.995  0.00  0.00    +0.000 C 
BRANCH  26  27
ATOM     27  C   UNL     1      -0.288  10.365  21.639  0.00  0.00    +0.000 C 
ATOM     28  C   UNL     1      -0.552   9.710  22.995  0.00  0.00    +0.000 C 
ATOM     29  C   UNL     1      -0.317  11.892  21.816  0.00  0.00    +0.000 C 
ENDBRANCH  26  27
ENDBRANCH  19  26
ENDBRANCH  17  20
ENDBRANCH   1  17
TORSDOF 11
ENDMDL
MODEL 9
REMARK VINA RESULT:      -6.1      0.836      1.506
REMARK  Name = 
REMARK  18 active torsions:
REMARK  status: ('A' for Active; 'I' for Inactive)
REMARK    1  A    between atoms: C_1  and  O_2
REMARK    2  A    between atoms: O_2  and  C_3
REMARK    3  A    between atoms: C_3  and  C_4
REMARK    4  A    between atoms: C_4  and  N_5
REMARK    5  A    between atoms: N_5  and  C_6
REMARK    6  A    between atoms: C_6  and  C_7
REMARK    7  A    between atoms: C_7  and  C_8
REMARK    8  A    between atoms: C_7  and  C_9
REMARK    9  A    between atoms: C_10  and  C_12
REMARK   10  A    between atoms: C_12  and  C_13
REMARK   11  A    between atoms: C_12  and  C_14
REMARK   12  A    between atoms: C_14  and  N_15
REMARK   13  A    between atoms: C_14  and  C_23
REMARK   14  A    between atoms: C_16  and  O_18
REMARK   15  A    between atoms: O_18  and  C_19
REMARK   16  A    between atoms: C_19  and  C_20
REMARK   17  A    between atoms: C_19  and  C_21
REMARK   18  A    between atoms: C_19  and  C_22
REMARK                            x       y       z     vdW  Elec       q    Type
REMARK                         _______ _______ _______ _____ _____    ______ ____
ROOT
ATOM      1  C   UNL     1       2.423   6.266  19.364  0.00  0.00    +0.000 C 
ENDROOT
BRANCH   1   2
ATOM      2  C   UNL     1       2.027   4.910  19.983  0.00  0.00    +0.000 A 
ATOM      3  C   UNL     1       2.498   4.545  21.252  0.00  0.00    +0.000 A 
ATOM      4  C   UNL     1       2.119   3.325  21.826  0.00  0.00    +0.000 A 
ATOM      5  C   UNL     1       1.255   2.461  21.152  0.00  0.00    +0.000 A 
ATOM      6  C   UNL     1       0.764   2.814  19.901  0.00  0.00    +0.000 A 
ATOM      7  C   UNL     1       1.147   4.023  19.329  0.00  0.00    +0.000 A 
ENDBRANCH   1   2
BRANCH   1   8
ATOM      8  N   UNL     1       3.875   6.296  19.181  0.00  0.00    +0.000 N 
ATOM      9  C   UNL     1       4.531   5.469  18.318  0.00  0.00    +0.000 C 
ATOM     10  O   UNL     1       3.984   4.596  17.668  0.00  0.00    +0.000 OA
ATOM     11  H   UNL     1       4.445   6.887  19.772  0.00  0.00    +0.000 HD
BRANCH   9  12
ATOM     12  O   UNL     1       5.859   5.734  18.288  0.00  0.00    +0.000 OA
BRANCH  12  13
ATOM     13  C   UNL     1       6.437   6.096  17.001  0.00  0.00    +0.000 C 
ATOM     14  C   UNL     1       5.374   6.667  16.046  0.00  0.00    +0.000 C 
ATOM     15  C   UNL     1       7.459   7.206  17.286  0.00  0.00    +0.000 C 
ATOM     16  C   UNL     1       7.195   4.910  16.382  0.00  0.00    +0.000 C 
ENDBRANCH  12  13
ENDBRANCH   9  12
ENDBRANCH   1   8
BRANCH   1  17
ATOM     17  C   UNL     1       1.873   7.494  20.157  0.00  0.00    +0.000 C 
ATOM     18  C   UNL     1       0.526   7.168  20.820  0.00  0.00    +0.000 C 
BRANCH  17  20
ATOM     19  N   UNL     1       1.270   9.945  19.881  0.00  0.00    +0.000 N 
ATOM     20  C   UNL     1       1.653   8.728  19.272  0.00  0.00    +0.000 C 
ATOM     21  O   UNL     1       1.722   8.607  18.044  0.00  0.00    +0.000 OA
BRANCH  19  22
ATOM     22  C   UNL     1       0.977  11.070  18.963  0.00  0.00    +0.000 C 
BRANCH  22  23
ATOM     23  C   UNL     1       1.689  12.425  19.122  0.00  0.00    +0.000 C 
BRANCH  23  25
ATOM     24  C   UNL     1       2.785  14.232  18.101  0.00  0.00    +0.000 C 
ATOM     25  O   UNL     1       2.178  12.957  17.891  0.00  0.00    +0.000 OA
ENDBRANCH  23  25
ENDBRANCH  22  23
ENDBRANCH  19  22
BRANCH  19  26
ATOM     26  C   UNL     1       1.117  10.115  21.341  0.00  0.00    +0.000 C 
BRANCH  26  27
ATOM     27  C   UNL     1      -0.293  10.408  21.894  0.00  0.00    +0.000 C 
ATOM     28  C   UNL     1      -0.598   9.706  23.217  0.00  0.00    +0.000 C 
ATOM     29  C   UNL     1      -0.454  11.924  22.093  0.00  0.00    +0.000 C 
ENDBRANCH  26  27
ENDBRANCH  19  26
ENDBRANCH  17  20
ENDBRANCH   1  17
TORSDOF 11
ENDMDL
