MODEL 1
REMARK VINA RESULT:      -7.2      0.000      0.000
REMARK  Name = 
REMARK  10 active torsions:
REMARK  status: ('A' for Active; 'I' for Inactive)
REMARK    1  A    between atoms: C_1  and  O_2
REMARK    2  A    between atoms: O_2  and  C_3
REMARK    3  A    between atoms: C_8  and  N_9
REMARK    4  A    between atoms: N_12  and  C_13
REMARK    5  A    between atoms: C_13  and  C_14
REMARK    6  A    between atoms: C_14  and  C_15
REMARK    7  A    between atoms: C_15  and  C_16
REMARK    8  A    between atoms: C_16  and  N_17
REMARK    9  A    between atoms: C_18  and  C_20
REMARK   10  A    between atoms: C_21  and  C_22
REMARK                            x       y       z     vdW  Elec       q    Type
REMARK                         _______ _______ _______ _____ _____    ______ ____
ROOT
ATOM      1  C   UNL     1       7.394   6.833  17.296  0.00  0.00    +0.000 C 
ENDROOT
BRANCH   1   5
ATOM      2  N   UNL     1       4.469   4.841  18.152  0.00  0.00    +0.000 N 
ATOM      3  C   UNL     1       5.193   5.680  19.114  0.00  0.00    +0.000 C 
ATOM      4  C   UNL     1       6.692   5.308  19.094  0.00  0.00    +0.000 C 
ATOM      5  N   UNL     1       7.329   5.437  17.753  0.00  0.00    +0.000 NA
ATOM      6  C   UNL     1       6.551   4.599  16.808  0.00  0.00    +0.000 C 
ATOM      7  C   UNL     1       5.021   4.852  16.786  0.00  0.00    +0.000 C 
BRANCH   2  13
ATOM      8  C   UNL     1       3.282   3.138  19.518  0.00  0.00    +0.000 A 
ATOM      9  C   UNL     1       2.100   2.417  19.757  0.00  0.00    +0.000 A 
ATOM     10  C   UNL     1       0.952   2.649  19.006  0.00  0.00    +0.000 A 
ATOM     11  C   UNL     1       0.977   3.603  18.004  0.00  0.00    +0.000 A 
ATOM     12  C   UNL     1       2.150   4.319  17.754  0.00  0.00    +0.000 A 
ATOM     13  C   UNL     1       3.337   4.109  18.482  0.00  0.00    +0.000 A 
BRANCH   8  15
ATOM     14  C   UNL     1       4.856   1.472  20.134  0.00  0.00    +0.000 C 
ATOM     15  O   UNL     1       4.439   2.834  20.205  0.00  0.00    +0.000 OA
ENDBRANCH   8  15
ENDBRANCH   2  13
ENDBRANCH   1   5
BRANCH   1  16
ATOM     16  C   UNL     1       8.146   7.742  18.280  0.00  0.00    +0.000 C 
BRANCH  16  17
ATOM     17  C   UNL     1       8.143   9.217  17.872  0.00  0.00    +0.000 C 
BRANCH  17  18
ATOM     18  C   UNL     1       9.101  10.030  18.734  0.00  0.00    +0.000 C 
BRANCH  18  19
ATOM     19  N   UNL     1       9.143  11.413  18.330  0.00  0.00    +0.000 N 
ATOM     20  C   UNL     1      10.313  12.006  17.934  0.00  0.00    +0.000 C 
ATOM     21  O   UNL     1      11.397  11.437  17.870  0.00  0.00    +0.000 OA
ATOM     22  H   UNL     1       8.270  11.920  18.305  0.00  0.00    +0.000 HD
BRANCH  20  23
ATOM     23  C   UNL     1      10.127  13.433  17.607  0.00  0.00    +0.000 C 
ATOM     24  C   UNL     1       9.778  14.292  18.578  0.00  0.00    +0.000 C 
BRANCH  24  25
ATOM     25  C   UNL     1       9.520  15.687  18.394  0.00  0.00    +0.000 A 
ATOM     26  C   UNL     1       8.279  16.364  18.604  0.00  0.00    +0.000 A 
ATOM     27  C   UNL     1       8.373  17.714  18.343  0.00  0.00    +0.000 A 
ATOM     28  S   UNL     1       9.943  18.166  17.843  0.00  0.00    +0.000 S 
ATOM     29  C   UNL     1      10.507  16.555  17.976  0.00  0.00    +0.000 A 
ENDBRANCH  24  25
ENDBRANCH  20  23
ENDBRANCH  18  19
ENDBRANCH  17  18
ENDBRANCH  16  17
ENDBRANCH   1  16
TORSDOF 9
ENDMDL
MODEL 2
REMARK VINA RESULT:      -7.1      1.389      1.453
REMARK  Name = 
REMARK  10 active torsions:
REMARK  status: ('A' for Active; 'I' for Inactive)
REMARK    1  A    between atoms: C_1  and  O_2
REMARK    2  A    between atoms: O_2  and  C_3
REMARK    3  A    between atoms: C_8  and  N_9
REMARK    4  A    between atoms: N_12  and  C_13
REMARK    5  A    between atoms: C_13  and  C_14
REMARK    6  A    between atoms: C_14  and  C_15
REMARK    7  A    between atoms: C_15  and  C_16
REMARK    8  A    between atoms: C_16  and  N_17
REMARK    9  A    between atoms: C_18  and  C_20
REMARK   10  A    between atoms: C_21  and  C_22
REMARK                            x       y       z     vdW  Elec       q    Type
REMARK                         _______ _______ _______ _____ _____    ______ ____
ROOT
ATOM      1  C   UNL     1       6.846   6.690  17.023  0.00  0.00    +0.000 C 
ENDROOT
BRANCH   1   5
ATOM      2  N   UNL     1       4.153   4.943  18.740  0.00  0.00    +0.000 N 
ATOM      3  C   UNL     1       5.316   5.519  19.424  0.00  0.00    +0.000 C 
ATOM      4  C   UNL     1       6.611   4.982  18.776  0.00  0.00    +0.000 C 
ATOM      5  N   UNL     1       6.715   5.255  17.315  0.00  0.00    +0.000 NA
ATOM      6  C   UNL     1       5.508   4.684  16.669  0.00  0.00    +0.000 C 
ATOM      7  C   UNL     1       4.149   5.116  17.277  0.00  0.00    +0.000 C 
BRANCH   2  13
ATOM      8  C   UNL     1       3.132   2.940  19.796  0.00  0.00    +0.000 A 
ATOM      9  C   UNL     1       2.020   2.368  20.436  0.00  0.00    +0.000 A 
ATOM     10  C   UNL     1       0.888   3.125  20.725  0.00  0.00    +0.000 A 
ATOM     11  C   UNL     1       0.857   4.463  20.372  0.00  0.00    +0.000 A 
ATOM     12  C   UNL     1       1.956   5.037  19.728  0.00  0.00    +0.000 A 
ATOM     13  C   UNL     1       3.116   4.306  19.407  0.00  0.00    +0.000 A 
BRANCH   8  15
ATOM     14  C   UNL     1       4.944   1.584  20.512  0.00  0.00    +0.000 C 
ATOM     15  O   UNL     1       4.208   2.158  19.433  0.00  0.00    +0.000 OA
ENDBRANCH   8  15
ENDBRANCH   2  13
ENDBRANCH   1   5
BRANCH   1  16
ATOM     16  C   UNL     1       7.933   7.369  17.870  0.00  0.00    +0.000 C 
BRANCH  16  17
ATOM     17  C   UNL     1       7.875   8.897  17.825  0.00  0.00    +0.000 C 
BRANCH  17  18
ATOM     18  C   UNL     1       8.852   9.517  18.818  0.00  0.00    +0.000 C 
BRANCH  18  19
ATOM     19  N   UNL     1       9.385  10.766  18.337  0.00  0.00    +0.000 N 
ATOM     20  C   UNL     1      10.037  11.633  19.174  0.00  0.00    +0.000 C 
ATOM     21  O   UNL     1      10.239  11.434  20.366  0.00  0.00    +0.000 OA
ATOM     22  H   UNL     1       9.301  10.962  17.350  0.00  0.00    +0.000 HD
BRANCH  20  23
ATOM     23  C   UNL     1      10.458  12.864  18.476  0.00  0.00    +0.000 C 
ATOM     24  C   UNL     1      10.544  14.015  19.162  0.00  0.00    +0.000 C 
BRANCH  24  25
ATOM     25  C   UNL     1      10.892  15.285  18.604  0.00  0.00    +0.000 A 
ATOM     26  C   UNL     1      10.461  15.818  17.350  0.00  0.00    +0.000 A 
ATOM     27  C   UNL     1      10.974  17.075  17.114  0.00  0.00    +0.000 A 
ATOM     28  S   UNL     1      11.975  17.612  18.392  0.00  0.00    +0.000 S 
ATOM     29  C   UNL     1      11.723  16.163  19.268  0.00  0.00    +0.000 A 
ENDBRANCH  24  25
ENDBRANCH  20  23
ENDBRANCH  18  19
ENDBRANCH  17  18
ENDBRANCH  16  17
ENDBRANCH   1  16
TORSDOF 9
ENDMDL
MODEL 3
REMARK VINA RESULT:      -7.1      1.419      1.494
REMARK  Name = 
REMARK  10 active torsions:
REMARK  status: ('A' for Active; 'I' for Inactive)
REMARK    1  A    between atoms: C_1  and  O_2
REMARK    2  A    between atoms: O_2  and  C_3
REMARK    3  A    between atoms: C_8  and  N_9
REMARK    4  A    between atoms: N_12  and  C_13
REMARK    5  A    between atoms: C_13  and  C_14
REMARK    6  A    between atoms: C_14  and  C_15
REMARK    7  A    between atoms: C_15  and  C_16
REMARK    8  A    between atoms: C_16  and  N_17
REMARK    9  A    between atoms: C_18  and  C_20
REMARK   10  A    between atoms: C_21  and  C_22
REMARK                            x       y       z     vdW  Elec       q    Type
REMARK                         _______ _______ _______ _____ _____    ______ ____
ROOT
ATOM      1  C   UNL     1       7.181   6.163  16.732  0.00  0.00    +0.000 C 
ENDROOT
BRANCH   1   5
ATOM      2  N   UNL     1       4.403   4.805  18.654  0.00  0.00    +0.000 N 
ATOM      3  C   UNL     1       5.662   5.262  19.254  0.00  0.00    +0.000 C 
ATOM      4  C   UNL     1       6.848   4.554  18.562  0.00  0.00    +0.000 C 
ATOM      5  N   UNL     1       6.901   4.764  17.088  0.00  0.00    +0.000 NA
ATOM      6  C   UNL     1       5.602   4.318  16.527  0.00  0.00    +0.000 C 
ATOM      7  C   UNL     1       4.338   4.928  17.187  0.00  0.00    +0.000 C 
BRANCH   2  13
ATOM      8  C   UNL     1       3.220   2.975  19.846  0.00  0.00    +0.000 A 
ATOM      9  C   UNL     1       2.086   2.560  20.564  0.00  0.00    +0.000 A 
ATOM     10  C   UNL     1       1.065   3.453  20.875  0.00  0.00    +0.000 A 
ATOM     11  C   UNL     1       1.167   4.771  20.465  0.00  0.00    +0.000 A 
ATOM     12  C   UNL     1       2.287   5.189  19.744  0.00  0.00    +0.000 A 
ATOM     13  C   UNL     1       3.338   4.318  19.399  0.00  0.00    +0.000 A 
BRANCH   8  15
ATOM     14  C   UNL     1       3.811   1.193  18.393  0.00  0.00    +0.000 C 
ATOM     15  O   UNL     1       4.180   2.060  19.464  0.00  0.00    +0.000 OA
ENDBRANCH   8  15
ENDBRANCH   2  13
ENDBRANCH   1   5
BRANCH   1  16
ATOM     16  C   UNL     1       7.684   6.987  17.927  0.00  0.00    +0.000 C 
BRANCH  16  17
ATOM     17  C   UNL     1       7.956   8.453  17.586  0.00  0.00    +0.000 C 
BRANCH  17  18
ATOM     18  C   UNL     1       8.792   9.127  18.667  0.00  0.00    +0.000 C 
BRANCH  18  19
ATOM     19  N   UNL     1       9.073  10.503  18.347  0.00  0.00    +0.000 N 
ATOM     20  C   UNL     1       9.448  11.399  19.315  0.00  0.00    +0.000 C 
ATOM     21  O   UNL     1       9.593  11.126  20.501  0.00  0.00    +0.000 OA
ATOM     22  H   UNL     1       9.028  10.778  17.377  0.00  0.00    +0.000 HD
BRANCH  20  23
ATOM     23  C   UNL     1       9.642  12.756  18.768  0.00  0.00    +0.000 C 
ATOM     24  C   UNL     1       9.752  13.797  19.607  0.00  0.00    +0.000 C 
BRANCH  24  25
ATOM     25  C   UNL     1       9.895  15.165  19.214  0.00  0.00    +0.000 A 
ATOM     26  C   UNL     1      10.170  16.277  20.068  0.00  0.00    +0.000 A 
ATOM     27  C   UNL     1      10.255  17.462  19.369  0.00  0.00    +0.000 A 
ATOM     28  S   UNL     1       9.999  17.240  17.694  0.00  0.00    +0.000 S 
ATOM     29  C   UNL     1       9.776  15.555  17.897  0.00  0.00    +0.000 A 
ENDBRANCH  24  25
ENDBRANCH  20  23
ENDBRANCH  18  19
ENDBRANCH  17  18
ENDBRANCH  16  17
ENDBRANCH   1  16
TORSDOF 9
ENDMDL
MODEL 4
REMARK VINA RESULT:      -7.0      3.680      4.029
REMARK  Name = 
REMARK  10 active torsions:
REMARK  status: ('A' for Active; 'I' for Inactive)
REMARK    1  A    between atoms: C_1  and  O_2
REMARK    2  A    between atoms: O_2  and  C_3
REMARK    3  A    between atoms: C_8  and  N_9
REMARK    4  A    between atoms: N_12  and  C_13
REMARK    5  A    between atoms: C_13  and  C_14
REMARK    6  A    between atoms: C_14  and  C_15
REMARK    7  A    between atoms: C_15  and  C_16
REMARK    8  A    between atoms: C_16  and  N_17
REMARK    9  A    between atoms: C_18  and  C_20
REMARK   10  A    between atoms: C_21  and  C_22
REMARK                            x       y       z     vdW  Elec       q    Type
REMARK                         _______ _______ _______ _____ _____    ______ ____
ROOT
ATOM      1  C   UNL     1       7.433   7.350  17.459  0.00  0.00    +0.000 C 
ENDROOT
BRANCH   1   5
ATOM      2  N   UNL     1       4.713   5.016  18.097  0.00  0.00    +0.000 N 
ATOM      3  C   UNL     1       5.404   5.768  19.150  0.00  0.00    +0.000 C 
ATOM      4  C   UNL     1       6.926   5.532  19.035  0.00  0.00    +0.000 C 
ATOM      5  N   UNL     1       7.497   5.903  17.710  0.00  0.00    +0.000 NA
ATOM      6  C   UNL     1       6.752   5.145  16.676  0.00  0.00    +0.000 C 
ATOM      7  C   UNL     1       5.208   5.268  16.732  0.00  0.00    +0.000 C 
BRANCH   2  13
ATOM      8  C   UNL     1       3.738   3.006  19.183  0.00  0.00    +0.000 A 
ATOM      9  C   UNL     1       2.625   2.165  19.350  0.00  0.00    +0.000 A 
ATOM     10  C   UNL     1       1.413   2.443  18.725  0.00  0.00    +0.000 A 
ATOM     11  C   UNL     1       1.305   3.564  17.921  0.00  0.00    +0.000 A 
ATOM     12  C   UNL     1       2.408   4.401  17.743  0.00  0.00    +0.000 A 
ATOM     13  C   UNL     1       3.656   4.152  18.348  0.00  0.00    +0.000 A 
BRANCH   8  15
ATOM     14  C   UNL     1       4.922   1.655  20.734  0.00  0.00    +0.000 C 
ATOM     15  O   UNL     1       4.958   2.669  19.732  0.00  0.00    +0.000 OA
ENDBRANCH   8  15
ENDBRANCH   2  13
ENDBRANCH   1   5
BRANCH   1  16
ATOM     16  C   UNL     1       8.352   8.153  18.392  0.00  0.00    +0.000 C 
BRANCH  16  17
ATOM     17  C   UNL     1       8.420   9.642  18.047  0.00  0.00    +0.000 C 
BRANCH  17  18
ATOM     18  C   UNL     1       9.492  10.351  18.867  0.00  0.00    +0.000 C 
BRANCH  18  19
ATOM     19  N   UNL     1       9.087  10.530  20.238  0.00  0.00    +0.000 N 
ATOM     20  C   UNL     1       9.272  11.724  20.886  0.00  0.00    +0.000 C 
ATOM     21  O   UNL     1       9.765  12.724  20.379  0.00  0.00    +0.000 OA
ATOM     22  H   UNL     1       8.621   9.759  20.693  0.00  0.00    +0.000 HD
BRANCH  20  23
ATOM     23  C   UNL     1       8.824  11.665  22.292  0.00  0.00    +0.000 C 
ATOM     24  C   UNL     1       8.600  12.806  22.961  0.00  0.00    +0.000 C 
BRANCH  24  25
ATOM     25  C   UNL     1       8.209  12.896  24.334  0.00  0.00    +0.000 A 
ATOM     26  C   UNL     1       8.468  13.979  25.230  0.00  0.00    +0.000 A 
ATOM     27  C   UNL     1       7.946  13.752  26.486  0.00  0.00    +0.000 A 
ATOM     28  S   UNL     1       7.153  12.242  26.590  0.00  0.00    +0.000 S 
ATOM     29  C   UNL     1       7.503  11.885  24.952  0.00  0.00    +0.000 A 
ENDBRANCH  24  25
ENDBRANCH  20  23
ENDBRANCH  18  19
ENDBRANCH  17  18
ENDBRANCH  16  17
ENDBRANCH   1  16
TORSDOF 9
ENDMDL
MODEL 5
REMARK VINA RESULT:      -6.9      3.694      5.214
REMARK  Name = 
REMARK  10 active torsions:
REMARK  status: ('A' for Active; 'I' for Inactive)
REMARK    1  A    between atoms: C_1  and  O_2
REMARK    2  A    between atoms: O_2  and  C_3
REMARK    3  A    between atoms: C_8  and  N_9
REMARK    4  A    between atoms: N_12  and  C_13
REMARK    5  A    between atoms: C_13  and  C_14
REMARK    6  A    between atoms: C_14  and  C_15
REMARK    7  A    between atoms: C_15  and  C_16
REMARK    8  A    between atoms: C_16  and  N_17
REMARK    9  A    between atoms: C_18  and  C_20
REMARK   10  A    between atoms: C_21  and  C_22
REMARK                            x       y       z     vdW  Elec       q    Type
REMARK                         _______ _______ _______ _____ _____    ______ ____
ROOT
ATOM      1  C   UNL     1       4.334   4.034  19.430  0.00  0.00    +0.000 C 
ENDROOT
BRANCH   1   5
ATOM      2  N   UNL     1       2.396   7.110  19.231  0.00  0.00    +0.000 N 
ATOM      3  C   UNL     1       2.200   6.090  20.267  0.00  0.00    +0.000 C 
ATOM      4  C   UNL     1       1.977   4.715  19.599  0.00  0.00    +0.000 C 
ATOM      5  N   UNL     1       3.086   4.294  18.698  0.00  0.00    +0.000 NA
ATOM      6  C   UNL     1       3.269   5.363  17.687  0.00  0.00    +0.000 C 
ATOM      7  C   UNL     1       3.449   6.797  18.249  0.00  0.00    +0.000 C 
BRANCH   2  13
ATOM      8  C   UNL     1       1.167   8.972  20.323  0.00  0.00    +0.000 A 
ATOM      9  C   UNL     1       0.412  10.148  20.177  0.00  0.00    +0.000 A 
ATOM     10  C   UNL     1       0.161  10.689  18.920  0.00  0.00    +0.000 A 
ATOM     11  C   UNL     1       0.660  10.056  17.796  0.00  0.00    +0.000 A 
ATOM     12  C   UNL     1       1.405   8.882  17.931  0.00  0.00    +0.000 A 
ATOM     13  C   UNL     1       1.673   8.294  19.182  0.00  0.00    +0.000 A 
BRANCH   8  15
ATOM     14  C   UNL     1       1.010   9.229  22.678  0.00  0.00    +0.000 C 
ATOM     15  O   UNL     1       1.330   8.395  21.566  0.00  0.00    +0.000 OA
ENDBRANCH   8  15
ENDBRANCH   2  13
ENDBRANCH   1   5
BRANCH   1  16
ATOM     16  C   UNL     1       5.584   4.382  18.608  0.00  0.00    +0.000 C 
BRANCH  16  17
ATOM     17  C   UNL     1       6.579   5.270  19.357  0.00  0.00    +0.000 C 
BRANCH  17  18
ATOM     18  C   UNL     1       7.765   5.638  18.474  0.00  0.00    +0.000 C 
BRANCH  18  19
ATOM     19  N   UNL     1       8.358   6.891  18.868  0.00  0.00    +0.000 N 
ATOM     20  C   UNL     1       8.118   8.045  18.168  0.00  0.00    +0.000 C 
ATOM     21  O   UNL     1       7.390   8.127  17.186  0.00  0.00    +0.000 OA
ATOM     22  H   UNL     1       8.923   6.900  19.705  0.00  0.00    +0.000 HD
BRANCH  20  23
ATOM     23  C   UNL     1       8.862   9.193  18.723  0.00  0.00    +0.000 C 
ATOM     24  C   UNL     1       8.776  10.389  18.121  0.00  0.00    +0.000 C 
BRANCH  24  25
ATOM     25  C   UNL     1       9.477  11.569  18.523  0.00  0.00    +0.000 A 
ATOM     26  C   UNL     1      10.344  12.368  17.715  0.00  0.00    +0.000 A 
ATOM     27  C   UNL     1      10.854  13.446  18.407  0.00  0.00    +0.000 A 
ATOM     28  S   UNL     1      10.298  13.495  20.022  0.00  0.00    +0.000 S 
ATOM     29  C   UNL     1       9.369  12.074  19.801  0.00  0.00    +0.000 A 
ENDBRANCH  24  25
ENDBRANCH  20  23
ENDBRANCH  18  19
ENDBRANCH  17  18
ENDBRANCH  16  17
ENDBRANCH   1  16
TORSDOF 9
ENDMDL
MODEL 6
REMARK VINA RESULT:      -6.9      3.894     11.829
REMARK  Name = 
REMARK  10 active torsions:
REMARK  status: ('A' for Active; 'I' for Inactive)
REMARK    1  A    between atoms: C_1  and  O_2
REMARK    2  A    between atoms: O_2  and  C_3
REMARK    3  A    between atoms: C_8  and  N_9
REMARK    4  A    between atoms: N_12  and  C_13
REMARK    5  A    between atoms: C_13  and  C_14
REMARK    6  A    between atoms: C_14  and  C_15
REMARK    7  A    between atoms: C_15  and  C_16
REMARK    8  A    between atoms: C_16  and  N_17
REMARK    9  A    between atoms: C_18  and  C_20
REMARK   10  A    between atoms: C_21  and  C_22
REMARK                            x       y       z     vdW  Elec       q    Type
REMARK                         _______ _______ _______ _____ _____    ______ ____
ROOT
ATOM      1  C   UNL     1       9.161  10.296  19.299  0.00  0.00    +0.000 C 
ENDROOT
BRANCH   1   5
ATOM      2  N   UNL     1       9.725  13.828  18.620  0.00  0.00    +0.000 N 
ATOM      3  C   UNL     1       9.370  12.847  17.588  0.00  0.00    +0.000 C 
ATOM      4  C   UNL     1      10.360  11.663  17.643  0.00  0.00    +0.000 C 
ATOM      5  N   UNL     1      10.417  10.984  18.968  0.00  0.00    +0.000 NA
ATOM      6  C   UNL     1      10.749  12.014  19.982  0.00  0.00    +0.000 C 
ATOM      7  C   UNL     1       9.847  13.276  19.980  0.00  0.00    +0.000 C 
BRANCH   2  13
ATOM      8  C   UNL     1       8.947  16.187  18.640  0.00  0.00    +0.000 A 
ATOM      9  C   UNL     1       9.202  17.527  18.303  0.00  0.00    +0.000 A 
ATOM     10  C   UNL     1      10.401  17.903  17.706  0.00  0.00    +0.000 A 
ATOM     11  C   UNL     1      11.357  16.940  17.436  0.00  0.00    +0.000 A 
ATOM     12  C   UNL     1      11.109  15.605  17.761  0.00  0.00    +0.000 A 
ATOM     13  C   UNL     1       9.907  15.178  18.355  0.00  0.00    +0.000 A 
BRANCH   8  15
ATOM     14  C   UNL     1       6.587  16.402  18.506  0.00  0.00    +0.000 C 
ATOM     15  O   UNL     1       7.719  15.814  19.145  0.00  0.00    +0.000 OA
ENDBRANCH   8  15
ENDBRANCH   2  13
ENDBRANCH   1   5
BRANCH   1  16
ATOM     16  C   UNL     1       8.552   9.564  18.093  0.00  0.00    +0.000 C 
BRANCH  16  17
ATOM     17  C   UNL     1       8.257   8.087  18.361  0.00  0.00    +0.000 C 
BRANCH  17  18
ATOM     18  C   UNL     1       7.315   7.512  17.311  0.00  0.00    +0.000 C 
BRANCH  18  19
ATOM     19  N   UNL     1       6.417   6.536  17.873  0.00  0.00    +0.000 N 
ATOM     20  C   UNL     1       6.706   5.196  17.836  0.00  0.00    +0.000 C 
ATOM     21  O   UNL     1       7.725   4.714  17.355  0.00  0.00    +0.000 OA
ATOM     22  H   UNL     1       5.587   6.875  18.336  0.00  0.00    +0.000 HD
BRANCH  20  23
ATOM     23  C   UNL     1       5.628   4.381  18.430  0.00  0.00    +0.000 C 
ATOM     24  C   UNL     1       4.354   4.790  18.319  0.00  0.00    +0.000 C 
BRANCH  24  25
ATOM     25  C   UNL     1       3.220   4.126  18.883  0.00  0.00    +0.000 A 
ATOM     26  C   UNL     1       2.723   4.262  20.216  0.00  0.00    +0.000 A 
ATOM     27  C   UNL     1       1.606   3.486  20.437  0.00  0.00    +0.000 A 
ATOM     28  S   UNL     1       1.158   2.593  19.051  0.00  0.00    +0.000 S 
ATOM     29  C   UNL     1       2.459   3.243  18.147  0.00  0.00    +0.000 A 
ENDBRANCH  24  25
ENDBRANCH  20  23
ENDBRANCH  18  19
ENDBRANCH  17  18
ENDBRANCH  16  17
ENDBRANCH   1  16
TORSDOF 9
ENDMDL
MODEL 7
REMARK VINA RESULT:      -6.9      2.821      3.087
REMARK  Name = 
REMARK  10 active torsions:
REMARK  status: ('A' for Active; 'I' for Inactive)
REMARK    1  A    between atoms: C_1  and  O_2
REMARK    2  A    between atoms: O_2  and  C_3
REMARK    3  A    between atoms: C_8  and  N_9
REMARK    4  A    between atoms: N_12  and  C_13
REMARK    5  A    between atoms: C_13  and  C_14
REMARK    6  A    between atoms: C_14  and  C_15
REMARK    7  A    between atoms: C_15  and  C_16
REMARK    8  A    between atoms: C_16  and  N_17
REMARK    9  A    between atoms: C_18  and  C_20
REMARK   10  A    between atoms: C_21  and  C_22
REMARK                            x       y       z     vdW  Elec       q    Type
REMARK                         _______ _______ _______ _____ _____    ______ ____
ROOT
ATOM      1  C   UNL     1       7.148   7.671  17.179  0.00  0.00    +0.000 C 
ENDROOT
BRANCH   1   5
ATOM      2  N   UNL     1       4.772   5.038  17.999  0.00  0.00    +0.000 N 
ATOM      3  C   UNL     1       5.865   5.453  18.885  0.00  0.00    +0.000 C 
ATOM      4  C   UNL     1       7.201   5.396  18.112  0.00  0.00    +0.000 C 
ATOM      5  N   UNL     1       7.223   6.233  16.880  0.00  0.00    +0.000 NA
ATOM      6  C   UNL     1       6.088   5.802  16.029  0.00  0.00    +0.000 C 
ATOM      7  C   UNL     1       4.701   5.770  16.722  0.00  0.00    +0.000 C 
BRANCH   2  13
ATOM      8  C   UNL     1       2.763   4.246  19.228  0.00  0.00    +0.000 A 
ATOM      9  C   UNL     1       1.901   3.181  19.540  0.00  0.00    +0.000 A 
ATOM     10  C   UNL     1       2.075   1.924  18.968  0.00  0.00    +0.000 A 
ATOM     11  C   UNL     1       3.117   1.720  18.081  0.00  0.00    +0.000 A 
ATOM     12  C   UNL     1       3.984   2.770  17.772  0.00  0.00    +0.000 A 
ATOM     13  C   UNL     1       3.852   4.054  18.335  0.00  0.00    +0.000 A 
BRANCH   8  15
ATOM     14  C   UNL     1       1.554   5.556  20.795  0.00  0.00    +0.000 C 
ATOM     15  O   UNL     1       2.637   5.460  19.871  0.00  0.00    +0.000 OA
ENDBRANCH   8  15
ENDBRANCH   2  13
ENDBRANCH   1   5
BRANCH   1  16
ATOM     16  C   UNL     1       8.279   8.141  18.107  0.00  0.00    +0.000 C 
BRANCH  16  17
ATOM     17  C   UNL     1       8.400   9.663  18.198  0.00  0.00    +0.000 C 
BRANCH  17  18
ATOM     18  C   UNL     1       9.616  10.073  19.020  0.00  0.00    +0.000 C 
BRANCH  18  19
ATOM     19  N   UNL     1       9.266  10.990  20.074  0.00  0.00    +0.000 N 
ATOM     20  C   UNL     1      10.204  11.806  20.653  0.00  0.00    +0.000 C 
ATOM     21  O   UNL     1      11.386  11.846  20.332  0.00  0.00    +0.000 OA
ATOM     22  H   UNL     1       8.294  11.046  20.344  0.00  0.00    +0.000 HD
BRANCH  20  23
ATOM     23  C   UNL     1       9.630  12.627  21.736  0.00  0.00    +0.000 C 
ATOM     24  C   UNL     1       9.821  13.955  21.729  0.00  0.00    +0.000 C 
BRANCH  24  25
ATOM     25  C   UNL     1       9.363  14.862  22.737  0.00  0.00    +0.000 A 
ATOM     26  C   UNL     1       8.239  14.685  23.601  0.00  0.00    +0.000 A 
ATOM     27  C   UNL     1       8.075  15.745  24.466  0.00  0.00    +0.000 A 
ATOM     28  S   UNL     1       9.265  16.951  24.238  0.00  0.00    +0.000 S 
ATOM     29  C   UNL     1      10.006  16.057  22.980  0.00  0.00    +0.000 A 
ENDBRANCH  24  25
ENDBRANCH  20  23
ENDBRANCH  18  19
ENDBRANCH  17  18
ENDBRANCH  16  17
ENDBRANCH   1  16
TORSDOF 9
ENDMDL
MODEL 8
REMARK VINA RESULT:      -6.9      3.814     11.918
REMARK  Name = 
REMARK  10 active torsions:
REMARK  status: ('A' for Active; 'I' for Inactive)
REMARK    1  A    between atoms: C_1  and  O_2
REMARK    2  A    between atoms: O_2  and  C_3
REMARK    3  A    between atoms: C_8  and  N_9
REMARK    4  A    between atoms: N_12  and  C_13
REMARK    5  A    between atoms: C_13  and  C_14
REMARK    6  A    between atoms: C_14  and  C_15
REMARK    7  A    between atoms: C_15  and  C_16
REMARK    8  A    between atoms: C_16  and  N_17
REMARK    9  A    between atoms: C_18  and  C_20
REMARK   10  A    between atoms: C_21  and  C_22
REMARK                            x       y       z     vdW  Elec       q    Type
REMARK                         _______ _______ _______ _____ _____    ______ ____
ROOT
ATOM      1  C   UNL     1       9.112  10.114  18.846  0.00  0.00    +0.000 C 
ENDROOT
BRANCH   1   5
ATOM      2  N   UNL     1      10.131  13.483  19.775  0.00  0.00    +0.000 N 
ATOM      3  C   UNL     1       8.859  13.170  19.114  0.00  0.00    +0.000 C 
ATOM      4  C   UNL     1       9.133  12.354  17.832  0.00  0.00    +0.000 C 
ATOM      5  N   UNL     1       9.887  11.091  18.069  0.00  0.00    +0.000 NA
ATOM      6  C   UNL     1      11.149  11.449  18.762  0.00  0.00    +0.000 C 
ATOM      7  C   UNL     1      10.993  12.317  20.038  0.00  0.00    +0.000 C 
BRANCH   2  13
ATOM      8  C   UNL     1      10.898  15.786  19.249  0.00  0.00    +0.000 A 
ATOM      9  C   UNL     1      11.288  17.049  19.725  0.00  0.00    +0.000 A 
ATOM     10  C   UNL     1      11.270  17.341  21.085  0.00  0.00    +0.000 A 
ATOM     11  C   UNL     1      10.865  16.370  21.984  0.00  0.00    +0.000 A 
ATOM     12  C   UNL     1      10.483  15.110  21.519  0.00  0.00    +0.000 A 
ATOM     13  C   UNL     1      10.497  14.767  20.154  0.00  0.00    +0.000 A 
BRANCH   8  15
ATOM     14  C   UNL     1      12.333  15.220  17.445  0.00  0.00    +0.000 C 
ATOM     15  O   UNL     1      11.009  15.479  17.908  0.00  0.00    +0.000 OA
ENDBRANCH   8  15
ENDBRANCH   2  13
ENDBRANCH   1   5
BRANCH   1  16
ATOM     16  C   UNL     1       8.123   9.320  17.978  0.00  0.00    +0.000 C 
BRANCH  16  17
ATOM     17  C   UNL     1       8.187   7.809  18.208  0.00  0.00    +0.000 C 
BRANCH  17  18
ATOM     18  C   UNL     1       7.443   7.051  17.115  0.00  0.00    +0.000 C 
BRANCH  18  19
ATOM     19  N   UNL     1       6.450   6.161  17.661  0.00  0.00    +0.000 N 
ATOM     20  C   UNL     1       6.770   4.885  18.047  0.00  0.00    +0.000 C 
ATOM     21  O   UNL     1       7.893   4.398  17.985  0.00  0.00    +0.000 OA
ATOM     22  H   UNL     1       5.517   6.524  17.792  0.00  0.00    +0.000 HD
BRANCH  20  23
ATOM     23  C   UNL     1       5.591   4.142  18.534  0.00  0.00    +0.000 C 
ATOM     24  C   UNL     1       4.407   4.768  18.622  0.00  0.00    +0.000 C 
BRANCH  24  25
ATOM     25  C   UNL     1       3.199   4.186  19.118  0.00  0.00    +0.000 A 
ATOM     26  C   UNL     1       2.665   2.904  18.781  0.00  0.00    +0.000 A 
ATOM     27  C   UNL     1       1.484   2.641  19.443  0.00  0.00    +0.000 A 
ATOM     28  S   UNL     1       1.017   3.931  20.462  0.00  0.00    +0.000 S 
ATOM     29  C   UNL     1       2.395   4.847  20.022  0.00  0.00    +0.000 A 
ENDBRANCH  24  25
ENDBRANCH  20  23
ENDBRANCH  18  19
ENDBRANCH  17  18
ENDBRANCH  16  17
ENDBRANCH   1  16
TORSDOF 9
ENDMDL
MODEL 9
REMARK VINA RESULT:      -6.9      3.259      5.170
REMARK  Name = 
REMARK  10 active torsions:
REMARK  status: ('A' for Active; 'I' for Inactive)
REMARK    1  A    between atoms: C_1  and  O_2
REMARK    2  A    between atoms: O_2  and  C_3
REMARK    3  A    between atoms: C_8  and  N_9
REMARK    4  A    between atoms: N_12  and  C_13
REMARK    5  A    between atoms: C_13  and  C_14
REMARK    6  A    between atoms: C_14  and  C_15
REMARK    7  A    between atoms: C_15  and  C_16
REMARK    8  A    between atoms: C_16  and  N_17
REMARK    9  A    between atoms: C_18  and  C_20
REMARK   10  A    between atoms: C_21  and  C_22
REMARK                            x       y       z     vdW  Elec       q    Type
REMARK                         _______ _______ _______ _____ _____    ______ ____
ROOT
ATOM      1  C   UNL     1       4.939   3.609  17.280  0.00  0.00    +0.000 C 
ENDROOT
BRANCH   1   5
ATOM      2  N   UNL     1       2.875   6.050  19.023  0.00  0.00    +0.000 N 
ATOM      3  C   UNL     1       4.134   5.519  19.556  0.00  0.00    +0.000 C 
ATOM      4  C   UNL     1       4.082   3.975  19.556  0.00  0.00    +0.000 C 
ATOM      5  N   UNL     1       3.827   3.379  18.215  0.00  0.00    +0.000 NA
ATOM      6  C   UNL     1       2.564   3.964  17.701  0.00  0.00    +0.000 C 
ATOM      7  C   UNL     1       2.487   5.512  17.706  0.00  0.00    +0.000 C 
BRANCH   2  13
ATOM      8  C   UNL     1       1.891   8.324  19.203  0.00  0.00    +0.000 A 
ATOM      9  C   UNL     1       1.133   9.237  19.955  0.00  0.00    +0.000 A 
ATOM     10  C   UNL     1       0.563   8.869  21.170  0.00  0.00    +0.000 A 
ATOM     11  C   UNL     1       0.749   7.583  21.646  0.00  0.00    +0.000 A 
ATOM     12  C   UNL     1       1.507   6.671  20.908  0.00  0.00    +0.000 A 
ATOM     13  C   UNL     1       2.111   7.004  19.681  0.00  0.00    +0.000 A 
BRANCH   8  15
ATOM     14  C   UNL     1       2.275  10.072  17.643  0.00  0.00    +0.000 C 
ATOM     15  O   UNL     1       2.528   8.727  18.048  0.00  0.00    +0.000 OA
ENDBRANCH   8  15
ENDBRANCH   2  13
ENDBRANCH   1   5
BRANCH   1  16
ATOM     16  C   UNL     1       4.502   4.370  16.019  0.00  0.00    +0.000 C 
BRANCH  16  17
ATOM     17  C   UNL     1       5.457   5.500  15.628  0.00  0.00    +0.000 C 
BRANCH  17  18
ATOM     18  C   UNL     1       6.646   5.572  16.578  0.00  0.00    +0.000 C 
BRANCH  18  19
ATOM     19  N   UNL     1       7.128   6.921  16.732  0.00  0.00    +0.000 N 
ATOM     20  C   UNL     1       7.777   7.322  17.871  0.00  0.00    +0.000 C 
ATOM     21  O   UNL     1       8.018   6.597  18.829  0.00  0.00    +0.000 OA
ATOM     22  H   UNL     1       7.012   7.552  15.953  0.00  0.00    +0.000 HD
BRANCH  20  23
ATOM     23  C   UNL     1       8.142   8.752  17.826  0.00  0.00    +0.000 C 
ATOM     24  C   UNL     1       8.848   9.285  18.835  0.00  0.00    +0.000 C 
BRANCH  24  25
ATOM     25  C   UNL     1       9.228  10.660  18.942  0.00  0.00    +0.000 A 
ATOM     26  C   UNL     1       9.895  11.281  20.043  0.00  0.00    +0.000 A 
ATOM     27  C   UNL     1      10.122  12.623  19.824  0.00  0.00    +0.000 A 
ATOM     28  S   UNL     1       9.532  13.136  18.304  0.00  0.00    +0.000 S 
ATOM     29  C   UNL     1       8.971  11.562  17.932  0.00  0.00    +0.000 A 
ENDBRANCH  24  25
ENDBRANCH  20  23
ENDBRANCH  18  19
ENDBRANCH  17  18
ENDBRANCH  16  17
ENDBRANCH   1  16
TORSDOF 9
ENDMDL
