MODEL 1
REMARK VINA RESULT:      -6.4      0.000      0.000
REMARK  Name = 
REMARK  7 active torsions:
REMARK  status: ('A' for Active; 'I' for Inactive)
REMARK    1  A    between atoms: C_1  and  O_2
REMARK    2  A    between atoms: O_2  and  C_3
REMARK    3  A    between atoms: C_6  and  N_7
REMARK    4  A    between atoms: N_13  and  C_14
REMARK    5  A    between atoms: N_16  and  C_17
REMARK    6  A    between atoms: C_19  and  O_20
REMARK    7  A    between atoms: O_20  and  C_21
REMARK                            x       y       z     vdW  Elec       q    Type
REMARK                         _______ _______ _______ _____ _____    ______ ____
ROOT
ATOM      1  N   UNL     1      -0.696  10.789  20.550  0.00  0.00    +0.000 N 
ATOM      2  C   UNL     1      -0.248  11.139  19.184  0.00  0.00    +0.000 C 
ATOM      3  C   UNL     1       1.240  10.811  18.944  0.00  0.00    +0.000 C 
ATOM      4  N   UNL     1       1.585   9.458  19.403  0.00  0.00    +0.000 N 
ATOM      5  C   UNL     1       2.022   8.528  18.481  0.00  0.00    +0.000 C 
ATOM      6  O   UNL     1       2.148   8.784  17.286  0.00  0.00    +0.000 OA
ATOM      7  N   UNL     1       2.340   7.292  18.976  0.00  0.00    +0.000 N 
ATOM      8  C   UNL     1       1.228   9.238  20.813  0.00  0.00    +0.000 C 
ATOM      9  C   UNL     1      -0.287   9.449  21.021  0.00  0.00    +0.000 C 
ATOM     10  H   UNL     1       1.917   7.024  19.844  0.00  0.00    +0.000 HD
ENDROOT
BRANCH   1  14
ATOM     11  C   UNL     1      -1.343  13.790  23.461  0.00  0.00    +0.000 A 
ATOM     12  C   UNL     1      -0.426  13.974  22.430  0.00  0.00    +0.000 A 
ATOM     13  C   UNL     1      -0.238  12.975  21.468  0.00  0.00    +0.000 A 
ATOM     14  C   UNL     1      -0.934  11.757  21.516  0.00  0.00    +0.000 A 
ATOM     15  C   UNL     1      -1.825  11.581  22.580  0.00  0.00    +0.000 A 
ATOM     16  C   UNL     1      -2.035  12.588  23.540  0.00  0.00    +0.000 A 
BRANCH  11  18
ATOM     17  C   UNL     1      -2.728  15.018  24.923  0.00  0.00    +0.000 C 
ATOM     18  O   UNL     1      -1.441  14.821  24.352  0.00  0.00    +0.000 OA
ENDBRANCH  11  18
ENDBRANCH   1  14
BRANCH   7  19
ATOM     19  C   UNL     1       2.711   6.183  18.087  0.00  0.00    +0.000 C 
ATOM     20  C   UNL     1       4.198   6.162  17.673  0.00  0.00    +0.000 C 
ATOM     21  N   UNL     1       4.783   4.971  18.315  0.00  0.00    +0.000 NA
ATOM     22  C   UNL     1       5.942   4.467  17.588  0.00  0.00    +0.000 C 
ATOM     23  C   UNL     1       3.699   3.988  18.360  0.00  0.00    +0.000 C 
ATOM     24  C   UNL     1       2.476   4.813  18.763  0.00  0.00    +0.000 C 
BRANCH  24  25
ATOM     25  O   UNL     1       1.289   4.161  18.301  0.00  0.00    +0.000 OA
ATOM     26  C   UNL     1       1.266   2.765  18.557  0.00  0.00    +0.000 C 
ENDBRANCH  24  25
ENDBRANCH   7  19
TORSDOF 4
ENDMDL
MODEL 2
REMARK VINA RESULT:      -6.4      0.437      1.047
REMARK  Name = 
REMARK  7 active torsions:
REMARK  status: ('A' for Active; 'I' for Inactive)
REMARK    1  A    between atoms: C_1  and  O_2
REMARK    2  A    between atoms: O_2  and  C_3
REMARK    3  A    between atoms: C_6  and  N_7
REMARK    4  A    between atoms: N_13  and  C_14
REMARK    5  A    between atoms: N_16  and  C_17
REMARK    6  A    between atoms: C_19  and  O_20
REMARK    7  A    between atoms: O_20  and  C_21
REMARK                            x       y       z     vdW  Elec       q    Type
REMARK                         _______ _______ _______ _____ _____    ______ ____
ROOT
ATOM      1  N   UNL     1      -0.807  10.912  20.751  0.00  0.00    +0.000 N 
ATOM      2  C   UNL     1      -0.493  11.181  19.331  0.00  0.00    +0.000 C 
ATOM      3  C   UNL     1       0.986  10.913  18.987  0.00  0.00    +0.000 C 
ATOM      4  N   UNL     1       1.446   9.618  19.509  0.00  0.00    +0.000 N 
ATOM      5  C   UNL     1       1.860   8.646  18.620  0.00  0.00    +0.000 C 
ATOM      6  O   UNL     1       1.872   8.817  17.404  0.00  0.00    +0.000 OA
ATOM      7  N   UNL     1       2.288   7.468  19.173  0.00  0.00    +0.000 N 
ATOM      8  C   UNL     1       1.220   9.486  20.956  0.00  0.00    +0.000 C 
ATOM      9  C   UNL     1      -0.283   9.634  21.278  0.00  0.00    +0.000 C 
ATOM     10  H   UNL     1       1.953   7.245  20.090  0.00  0.00    +0.000 HD
ENDROOT
BRANCH   1  14
ATOM     11  C   UNL     1      -1.540  13.990  23.560  0.00  0.00    +0.000 A 
ATOM     12  C   UNL     1      -2.342  12.853  23.513  0.00  0.00    +0.000 A 
ATOM     13  C   UNL     1      -2.073  11.840  22.586  0.00  0.00    +0.000 A 
ATOM     14  C   UNL     1      -1.019  11.936  21.664  0.00  0.00    +0.000 A 
ATOM     15  C   UNL     1      -0.247  13.102  21.708  0.00  0.00    +0.000 A 
ATOM     16  C   UNL     1      -0.498  14.117  22.651  0.00  0.00    +0.000 A 
BRANCH  11  18
ATOM     17  C   UNL     1      -3.287  15.011  24.773  0.00  0.00    +0.000 C 
ATOM     18  O   UNL     1      -1.896  14.922  24.493  0.00  0.00    +0.000 OA
ENDBRANCH  11  18
ENDBRANCH   1  14
BRANCH   7  19
ATOM     19  C   UNL     1       2.648   6.317  18.335  0.00  0.00    +0.000 C 
ATOM     20  C   UNL     1       4.099   6.336  17.807  0.00  0.00    +0.000 C 
ATOM     21  N   UNL     1       4.792   5.224  18.480  0.00  0.00    +0.000 NA
ATOM     22  C   UNL     1       5.918   4.723  17.699  0.00  0.00    +0.000 C 
ATOM     23  C   UNL     1       3.769   4.196  18.678  0.00  0.00    +0.000 C 
ATOM     24  C   UNL     1       2.538   4.989  19.120  0.00  0.00    +0.000 C 
BRANCH  24  25
ATOM     25  O   UNL     1       1.355   4.251  18.800  0.00  0.00    +0.000 OA
ATOM     26  C   UNL     1       0.950   3.349  19.819  0.00  0.00    +0.000 C 
ENDBRANCH  24  25
ENDBRANCH   7  19
TORSDOF 4
ENDMDL
MODEL 3
REMARK VINA RESULT:      -6.4      2.160      9.102
REMARK  Name = 
REMARK  7 active torsions:
REMARK  status: ('A' for Active; 'I' for Inactive)
REMARK    1  A    between atoms: C_1  and  O_2
REMARK    2  A    between atoms: O_2  and  C_3
REMARK    3  A    between atoms: C_6  and  N_7
REMARK    4  A    between atoms: N_13  and  C_14
REMARK    5  A    between atoms: N_16  and  C_17
REMARK    6  A    between atoms: C_19  and  O_20
REMARK    7  A    between atoms: O_20  and  C_21
REMARK                            x       y       z     vdW  Elec       q    Type
REMARK                         _______ _______ _______ _____ _____    ______ ____
ROOT
ATOM      1  N   UNL     1       2.179   7.887  19.484  0.00  0.00    +0.000 N 
ATOM      2  C   UNL     1       2.089   8.739  18.278  0.00  0.00    +0.000 C 
ATOM      3  C   UNL     1       0.729   9.457  18.157  0.00  0.00    +0.000 C 
ATOM      4  N   UNL     1       0.328  10.092  19.420  0.00  0.00    +0.000 N 
ATOM      5  C   UNL     1       0.182  11.464  19.464  0.00  0.00    +0.000 C 
ATOM      6  O   UNL     1       0.362  12.185  18.485  0.00  0.00    +0.000 OA
ATOM      7  N   UNL     1      -0.206  11.991  20.667  0.00  0.00    +0.000 N 
ATOM      8  C   UNL     1       0.314   9.143  20.544  0.00  0.00    +0.000 C 
ATOM      9  C   UNL     1       1.713   8.520  20.736  0.00  0.00    +0.000 C 
ATOM     10  H   UNL     1      -0.013  11.448  21.487  0.00  0.00    +0.000 HD
ENDROOT
BRANCH   1  14
ATOM     11  C   UNL     1       2.005   3.672  19.166  0.00  0.00    +0.000 A 
ATOM     12  C   UNL     1       2.323   4.464  18.066  0.00  0.00    +0.000 A 
ATOM     13  C   UNL     1       2.390   5.855  18.196  0.00  0.00    +0.000 A 
ATOM     14  C   UNL     1       2.119   6.502  19.412  0.00  0.00    +0.000 A 
ATOM     15  C   UNL     1       1.769   5.689  20.495  0.00  0.00    +0.000 A 
ATOM     16  C   UNL     1       1.719   4.287  20.378  0.00  0.00    +0.000 A 
BRANCH  11  18
ATOM     17  C   UNL     1       3.085   1.779  18.262  0.00  0.00    +0.000 C 
ATOM     18  O   UNL     1       1.955   2.328  18.929  0.00  0.00    +0.000 OA
ENDBRANCH  11  18
ENDBRANCH   1  14
BRANCH   7  19
ATOM     19  C   UNL     1      -0.289  13.442  20.875  0.00  0.00    +0.000 C 
ATOM     20  C   UNL     1      -1.272  13.876  21.985  0.00  0.00    +0.000 C 
ATOM     21  N   UNL     1      -0.443  14.434  23.068  0.00  0.00    +0.000 NA
ATOM     22  C   UNL     1      -1.174  15.402  23.877  0.00  0.00    +0.000 C 
ATOM     23  C   UNL     1       0.707  15.043  22.397  0.00  0.00    +0.000 C 
ATOM     24  C   UNL     1       1.073  14.030  21.312  0.00  0.00    +0.000 C 
BRANCH  24  25
ATOM     25  O   UNL     1       1.755  14.700  20.247  0.00  0.00    +0.000 OA
ATOM     26  C   UNL     1       2.995  14.103  19.897  0.00  0.00    +0.000 C 
ENDBRANCH  24  25
ENDBRANCH   7  19
TORSDOF 4
ENDMDL
MODEL 4
REMARK VINA RESULT:      -6.4      2.530      3.950
REMARK  Name = 
REMARK  7 active torsions:
REMARK  status: ('A' for Active; 'I' for Inactive)
REMARK    1  A    between atoms: C_1  and  O_2
REMARK    2  A    between atoms: O_2  and  C_3
REMARK    3  A    between atoms: C_6  and  N_7
REMARK    4  A    between atoms: N_13  and  C_14
REMARK    5  A    between atoms: N_16  and  C_17
REMARK    6  A    between atoms: C_19  and  O_20
REMARK    7  A    between atoms: O_20  and  C_21
REMARK                            x       y       z     vdW  Elec       q    Type
REMARK                         _______ _______ _______ _____ _____    ______ ____
ROOT
ATOM      1  N   UNL     1       1.233   9.880  19.652  0.00  0.00    +0.000 N 
ATOM      2  C   UNL     1       1.578   8.889  20.694  0.00  0.00    +0.000 C 
ATOM      3  C   UNL     1       1.484   7.435  20.187  0.00  0.00    +0.000 C 
ATOM      4  N   UNL     1       2.155   7.261  18.891  0.00  0.00    +0.000 N 
ATOM      5  C   UNL     1       3.239   6.410  18.807  0.00  0.00    +0.000 C 
ATOM      6  O   UNL     1       3.666   5.777  19.770  0.00  0.00    +0.000 OA
ATOM      7  N   UNL     1       3.810   6.282  17.569  0.00  0.00    +0.000 N 
ATOM      8  C   UNL     1       1.657   8.197  17.872  0.00  0.00    +0.000 C 
ATOM      9  C   UNL     1       1.867   9.654  18.336  0.00  0.00    +0.000 C 
ATOM     10  H   UNL     1       3.670   7.033  16.921  0.00  0.00    +0.000 HD
ENDROOT
BRANCH   1  14
ATOM     11  C   UNL     1      -2.417  12.017  19.791  0.00  0.00    +0.000 A 
ATOM     12  C   UNL     1      -1.522  12.050  20.857  0.00  0.00    +0.000 A 
ATOM     13  C   UNL     1      -0.314  11.348  20.785  0.00  0.00    +0.000 A 
ATOM     14  C   UNL     1       0.031  10.574  19.666  0.00  0.00    +0.000 A 
ATOM     15  C   UNL     1      -0.898  10.529  18.620  0.00  0.00    +0.000 A 
ATOM     16  C   UNL     1      -2.107  11.248  18.676  0.00  0.00    +0.000 A 
BRANCH  11  18
ATOM     17  C   UNL     1      -4.708  12.230  19.272  0.00  0.00    +0.000 C 
ATOM     18  O   UNL     1      -3.571  12.725  19.968  0.00  0.00    +0.000 OA
ENDBRANCH  11  18
ENDBRANCH   1  14
BRANCH   7  19
ATOM     19  C   UNL     1       5.035   5.496  17.369  0.00  0.00    +0.000 C 
ATOM     20  C   UNL     1       4.945   4.446  16.240  0.00  0.00    +0.000 C 
ATOM     21  N   UNL     1       5.858   4.908  15.180  0.00  0.00    +0.000 NA
ATOM     22  C   UNL     1       6.353   3.808  14.361  0.00  0.00    +0.000 C 
ATOM     23  C   UNL     1       6.944   5.596  15.881  0.00  0.00    +0.000 C 
ATOM     24  C   UNL     1       6.226   6.396  16.968  0.00  0.00    +0.000 C 
BRANCH  24  25
ATOM     25  O   UNL     1       7.127   6.641  18.052  0.00  0.00    +0.000 OA
ATOM     26  C   UNL     1       7.141   5.610  19.028  0.00  0.00    +0.000 C 
ENDBRANCH  24  25
ENDBRANCH   7  19
TORSDOF 4
ENDMDL
MODEL 5
REMARK VINA RESULT:      -6.3      1.975      9.416
REMARK  Name = 
REMARK  7 active torsions:
REMARK  status: ('A' for Active; 'I' for Inactive)
REMARK    1  A    between atoms: C_1  and  O_2
REMARK    2  A    between atoms: O_2  and  C_3
REMARK    3  A    between atoms: C_6  and  N_7
REMARK    4  A    between atoms: N_13  and  C_14
REMARK    5  A    between atoms: N_16  and  C_17
REMARK    6  A    between atoms: C_19  and  O_20
REMARK    7  A    between atoms: O_20  and  C_21
REMARK                            x       y       z     vdW  Elec       q    Type
REMARK                         _______ _______ _______ _____ _____    ______ ____
ROOT
ATOM      1  N   UNL     1       1.898   8.219  19.785  0.00  0.00    +0.000 N 
ATOM      2  C   UNL     1       1.702   9.193  18.689  0.00  0.00    +0.000 C 
ATOM      3  C   UNL     1       0.244   9.685  18.584  0.00  0.00    +0.000 C 
ATOM      4  N   UNL     1      -0.299  10.077  19.892  0.00  0.00    +0.000 N 
ATOM      5  C   UNL     1      -0.679  11.389  20.095  0.00  0.00    +0.000 C 
ATOM      6  O   UNL     1      -0.594  12.249  19.223  0.00  0.00    +0.000 OA
ATOM      7  N   UNL     1      -1.190  11.683  21.331  0.00  0.00    +0.000 N 
ATOM      8  C   UNL     1      -0.188   9.001  20.889  0.00  0.00    +0.000 C 
ATOM      9  C   UNL     1       1.290   8.598  21.078  0.00  0.00    +0.000 C 
ATOM     10  H   UNL     1      -0.934  11.078  22.088  0.00  0.00    +0.000 HD
ENDROOT
BRANCH   1  14
ATOM     11  C   UNL     1       2.433   4.072  19.137  0.00  0.00    +0.000 A 
ATOM     12  C   UNL     1       2.022   4.560  20.375  0.00  0.00    +0.000 A 
ATOM     13  C   UNL     1       1.837   5.934  20.563  0.00  0.00    +0.000 A 
ATOM     14  C   UNL     1       2.077   6.864  19.540  0.00  0.00    +0.000 A 
ATOM     15  C   UNL     1       2.521   6.354  18.315  0.00  0.00    +0.000 A 
ATOM     16  C   UNL     1       2.691   4.972  18.111  0.00  0.00    +0.000 A 
BRANCH  11  18
ATOM     17  C   UNL     1       2.688   2.183  17.748  0.00  0.00    +0.000 C 
ATOM     18  O   UNL     1       2.595   2.718  19.063  0.00  0.00    +0.000 OA
ENDBRANCH  11  18
ENDBRANCH   1  14
BRANCH   7  19
ATOM     19  C   UNL     1      -1.527  13.061  21.711  0.00  0.00    +0.000 C 
ATOM     20  C   UNL     1      -3.020  13.293  22.026  0.00  0.00    +0.000 C 
ATOM     21  N   UNL     1      -3.092  13.579  23.470  0.00  0.00    +0.000 NA
ATOM     22  C   UNL     1      -4.257  14.387  23.815  0.00  0.00    +0.000 C 
ATOM     23  C   UNL     1      -1.840  14.268  23.789  0.00  0.00    +0.000 C 
ATOM     24  C   UNL     1      -0.786  13.490  22.999  0.00  0.00    +0.000 C 
BRANCH  24  25
ATOM     25  O   UNL     1       0.336  14.339  22.738  0.00  0.00    +0.000 OA
ATOM     26  C   UNL     1      -0.005  15.553  22.086  0.00  0.00    +0.000 C 
ENDBRANCH  24  25
ENDBRANCH   7  19
TORSDOF 4
ENDMDL
MODEL 6
REMARK VINA RESULT:      -6.3      2.077      9.299
REMARK  Name = 
REMARK  7 active torsions:
REMARK  status: ('A' for Active; 'I' for Inactive)
REMARK    1  A    between atoms: C_1  and  O_2
REMARK    2  A    between atoms: O_2  and  C_3
REMARK    3  A    between atoms: C_6  and  N_7
REMARK    4  A    between atoms: N_13  and  C_14
REMARK    5  A    between atoms: N_16  and  C_17
REMARK    6  A    between atoms: C_19  and  O_20
REMARK    7  A    between atoms: O_20  and  C_21
REMARK                            x       y       z     vdW  Elec       q    Type
REMARK                         _______ _______ _______ _____ _____    ______ ____
ROOT
ATOM      1  N   UNL     1       2.053   7.987  19.691  0.00  0.00    +0.000 N 
ATOM      2  C   UNL     1       2.071   8.862  18.499  0.00  0.00    +0.000 C 
ATOM      3  C   UNL     1       0.716   9.554  18.248  0.00  0.00    +0.000 C 
ATOM      4  N   UNL     1       0.170  10.155  19.473  0.00  0.00    +0.000 N 
ATOM      5  C   UNL     1      -0.011  11.523  19.526  0.00  0.00    +0.000 C 
ATOM      6  O   UNL     1       0.255  12.266  18.585  0.00  0.00    +0.000 OA
ATOM      7  N   UNL     1      -0.535  12.016  20.691  0.00  0.00    +0.000 N 
ATOM      8  C   UNL     1       0.058   9.182  20.571  0.00  0.00    +0.000 C 
ATOM      9  C   UNL     1       1.443   8.584  20.898  0.00  0.00    +0.000 C 
ATOM     10  H   UNL     1      -0.418  11.461  21.516  0.00  0.00    +0.000 HD
ENDROOT
BRANCH   1  14
ATOM     11  C   UNL     1       2.002   3.777  19.278  0.00  0.00    +0.000 A 
ATOM     12  C   UNL     1       2.347   4.601  18.210  0.00  0.00    +0.000 A 
ATOM     13  C   UNL     1       2.372   5.990  18.372  0.00  0.00    +0.000 A 
ATOM     14  C   UNL     1       2.032   6.603  19.588  0.00  0.00    +0.000 A 
ATOM     15  C   UNL     1       1.657   5.758  20.638  0.00  0.00    +0.000 A 
ATOM     16  C   UNL     1       1.648   4.358  20.489  0.00  0.00    +0.000 A 
BRANCH  11  18
ATOM     17  C   UNL     1       2.642   2.050  17.804  0.00  0.00    +0.000 C 
ATOM     18  O   UNL     1       1.997   2.438  19.011  0.00  0.00    +0.000 OA
ENDBRANCH  11  18
ENDBRANCH   1  14
BRANCH   7  19
ATOM     19  C   UNL     1      -0.673  13.461  20.916  0.00  0.00    +0.000 C 
ATOM     20  C   UNL     1      -2.120  13.990  20.820  0.00  0.00    +0.000 C 
ATOM     21  N   UNL     1      -2.491  14.411  22.183  0.00  0.00    +0.000 NA
ATOM     22  C   UNL     1      -3.519  15.446  22.179  0.00  0.00    +0.000 C 
ATOM     23  C   UNL     1      -1.246  14.884  22.792  0.00  0.00    +0.000 C 
ATOM     24  C   UNL     1      -0.207  13.859  22.336  0.00  0.00    +0.000 C 
BRANCH  24  25
ATOM     25  O   UNL     1       1.091  14.460  22.346  0.00  0.00    +0.000 OA
ATOM     26  C   UNL     1       1.218  15.562  21.459  0.00  0.00    +0.000 C 
ENDBRANCH  24  25
ENDBRANCH   7  19
TORSDOF 4
ENDMDL
MODEL 7
REMARK VINA RESULT:      -6.3      2.035      9.488
REMARK  Name = 
REMARK  7 active torsions:
REMARK  status: ('A' for Active; 'I' for Inactive)
REMARK    1  A    between atoms: C_1  and  O_2
REMARK    2  A    between atoms: O_2  and  C_3
REMARK    3  A    between atoms: C_6  and  N_7
REMARK    4  A    between atoms: N_13  and  C_14
REMARK    5  A    between atoms: N_16  and  C_17
REMARK    6  A    between atoms: C_19  and  O_20
REMARK    7  A    between atoms: O_20  and  C_21
REMARK                            x       y       z     vdW  Elec       q    Type
REMARK                         _______ _______ _______ _____ _____    ______ ____
ROOT
ATOM      1  N   UNL     1       1.760   8.664  19.833  0.00  0.00    +0.000 N 
ATOM      2  C   UNL     1       1.424   9.609  18.746  0.00  0.00    +0.000 C 
ATOM      3  C   UNL     1      -0.074   9.979  18.722  0.00  0.00    +0.000 C 
ATOM      4  N   UNL     1      -0.573  10.337  20.057  0.00  0.00    +0.000 N 
ATOM      5  C   UNL     1      -1.047  11.615  20.275  0.00  0.00    +0.000 C 
ATOM      6  O   UNL     1      -1.083  12.471  19.395  0.00  0.00    +0.000 OA
ATOM      7  N   UNL     1      -1.510  11.878  21.537  0.00  0.00    +0.000 N 
ATOM      8  C   UNL     1      -0.317   9.283  21.051  0.00  0.00    +0.000 C 
ATOM      9  C   UNL     1       1.198   9.004  21.157  0.00  0.00    +0.000 C 
ATOM     10  H   UNL     1      -1.163  11.304  22.280  0.00  0.00    +0.000 HD
ENDROOT
BRANCH   1  14
ATOM     11  C   UNL     1       2.617   4.609  18.983  0.00  0.00    +0.000 A 
ATOM     12  C   UNL     1       2.798   5.599  18.022  0.00  0.00    +0.000 A 
ATOM     13  C   UNL     1       2.524   6.936  18.328  0.00  0.00    +0.000 A 
ATOM     14  C   UNL     1       2.037   7.326  19.586  0.00  0.00    +0.000 A 
ATOM     15  C   UNL     1       1.830   6.310  20.525  0.00  0.00    +0.000 A 
ATOM     16  C   UNL     1       2.123   4.965  20.232  0.00  0.00    +0.000 A 
BRANCH  11  18
ATOM     17  C   UNL     1       3.879   3.223  17.551  0.00  0.00    +0.000 C 
ATOM     18  O   UNL     1       2.902   3.336  18.579  0.00  0.00    +0.000 OA
ENDBRANCH  11  18
ENDBRANCH   1  14
BRANCH   7  19
ATOM     19  C   UNL     1      -1.937  13.228  21.929  0.00  0.00    +0.000 C 
ATOM     20  C   UNL     1      -3.467  13.415  22.021  0.00  0.00    +0.000 C 
ATOM     21  N   UNL     1      -3.767  13.621  23.448  0.00  0.00    +0.000 NA
ATOM     22  C   UNL     1      -4.992  14.388  23.649  0.00  0.00    +0.000 C 
ATOM     23  C   UNL     1      -2.597  14.315  23.991  0.00  0.00    +0.000 C 
ATOM     24  C   UNL     1      -1.415  13.600  23.336  0.00  0.00    +0.000 C 
BRANCH  24  25
ATOM     25  O   UNL     1      -0.289  14.482  23.294  0.00  0.00    +0.000 OA
ATOM     26  C   UNL     1      -0.633  15.855  23.404  0.00  0.00    +0.000 C 
ENDBRANCH  24  25
ENDBRANCH   7  19
TORSDOF 4
ENDMDL
MODEL 8
REMARK VINA RESULT:      -6.2      2.013      9.245
REMARK  Name = 
REMARK  7 active torsions:
REMARK  status: ('A' for Active; 'I' for Inactive)
REMARK    1  A    between atoms: C_1  and  O_2
REMARK    2  A    between atoms: O_2  and  C_3
REMARK    3  A    between atoms: C_6  and  N_7
REMARK    4  A    between atoms: N_13  and  C_14
REMARK    5  A    between atoms: N_16  and  C_17
REMARK    6  A    between atoms: C_19  and  O_20
REMARK    7  A    between atoms: O_20  and  C_21
REMARK                            x       y       z     vdW  Elec       q    Type
REMARK                         _______ _______ _______ _____ _____    ______ ____
ROOT
ATOM      1  N   UNL     1       1.833   8.498  19.776  0.00  0.00    +0.000 N 
ATOM      2  C   UNL     1       1.602   9.464  18.680  0.00  0.00    +0.000 C 
ATOM      3  C   UNL     1       0.135   9.935  18.602  0.00  0.00    +0.000 C 
ATOM      4  N   UNL     1      -0.388  10.325  19.919  0.00  0.00    +0.000 N 
ATOM      5  C   UNL     1      -0.782  11.632  20.124  0.00  0.00    +0.000 C 
ATOM      6  O   UNL     1      -0.726  12.490  19.246  0.00  0.00    +0.000 OA
ATOM      7  N   UNL     1      -1.272  11.926  21.368  0.00  0.00    +0.000 N 
ATOM      8  C   UNL     1      -0.241   9.255  20.918  0.00  0.00    +0.000 C 
ATOM      9  C   UNL     1       1.246   8.875  21.079  0.00  0.00    +0.000 C 
ATOM     10  H   UNL     1      -0.992  11.328  22.122  0.00  0.00    +0.000 HD
ENDROOT
BRANCH   1  14
ATOM     11  C   UNL     1       2.439   4.394  18.945  0.00  0.00    +0.000 A 
ATOM     12  C   UNL     1       2.672   5.366  17.976  0.00  0.00    +0.000 A 
ATOM     13  C   UNL     1       2.480   6.719  18.277  0.00  0.00    +0.000 A 
ATOM     14  C   UNL     1       2.027   7.145  19.535  0.00  0.00    +0.000 A 
ATOM     15  C   UNL     1       1.767   6.148  20.482  0.00  0.00    +0.000 A 
ATOM     16  C   UNL     1       1.977   4.786  20.195  0.00  0.00    +0.000 A 
BRANCH  11  18
ATOM     17  C   UNL     1       2.009   2.108  19.337  0.00  0.00    +0.000 C 
ATOM     18  O   UNL     1       2.645   3.104  18.546  0.00  0.00    +0.000 OA
ENDBRANCH  11  18
ENDBRANCH   1  14
BRANCH   7  19
ATOM     19  C   UNL     1      -1.621  13.301  21.748  0.00  0.00    +0.000 C 
ATOM     20  C   UNL     1      -2.845  13.418  22.682  0.00  0.00    +0.000 C 
ATOM     21  N   UNL     1      -2.326  13.894  23.976  0.00  0.00    +0.000 NA
ATOM     22  C   UNL     1      -3.336  14.616  24.742  0.00  0.00    +0.000 C 
ATOM     23  C   UNL     1      -1.185  14.748  23.642  0.00  0.00    +0.000 C 
ATOM     24  C   UNL     1      -0.471  13.981  22.528  0.00  0.00    +0.000 C 
BRANCH  24  25
ATOM     25  O   UNL     1       0.278  14.897  21.724  0.00  0.00    +0.000 OA
ATOM     26  C   UNL     1       1.588  14.446  21.413  0.00  0.00    +0.000 C 
ENDBRANCH  24  25
ENDBRANCH   7  19
TORSDOF 4
ENDMDL
MODEL 9
REMARK VINA RESULT:      -6.1      2.251      3.217
REMARK  Name = 
REMARK  7 active torsions:
REMARK  status: ('A' for Active; 'I' for Inactive)
REMARK    1  A    between atoms: C_1  and  O_2
REMARK    2  A    between atoms: O_2  and  C_3
REMARK    3  A    between atoms: C_6  and  N_7
REMARK    4  A    between atoms: N_13  and  C_14
REMARK    5  A    between atoms: N_16  and  C_17
REMARK    6  A    between atoms: C_19  and  O_20
REMARK    7  A    between atoms: O_20  and  C_21
REMARK                            x       y       z     vdW  Elec       q    Type
REMARK                         _______ _______ _______ _____ _____    ______ ____
ROOT
ATOM      1  N   UNL     1      -0.402  10.405  19.261  0.00  0.00    +0.000 N 
ATOM      2  C   UNL     1       0.174   9.856  18.014  0.00  0.00    +0.000 C 
ATOM      3  C   UNL     1       1.622   9.357  18.197  0.00  0.00    +0.000 C 
ATOM      4  N   UNL     1       1.766   8.515  19.393  0.00  0.00    +0.000 N 
ATOM      5  C   UNL     1       2.145   7.195  19.243  0.00  0.00    +0.000 C 
ATOM      6  O   UNL     1       2.379   6.691  18.147  0.00  0.00    +0.000 OA
ATOM      7  N   UNL     1       2.273   6.471  20.397  0.00  0.00    +0.000 N 
ATOM      8  C   UNL     1       1.294   9.189  20.612  0.00  0.00    +0.000 C 
ATOM      9  C   UNL     1      -0.193   9.576  20.467  0.00  0.00    +0.000 C 
ATOM     10  H   UNL     1       1.765   6.792  21.198  0.00  0.00    +0.000 HD
ENDROOT
BRANCH   1  14
ATOM     11  C   UNL     1      -0.866  14.578  19.781  0.00  0.00    +0.000 A 
ATOM     12  C   UNL     1       0.049  14.064  18.866  0.00  0.00    +0.000 A 
ATOM     13  C   UNL     1       0.176  12.681  18.698  0.00  0.00    +0.000 A 
ATOM     14  C   UNL     1      -0.580  11.768  19.450  0.00  0.00    +0.000 A 
ATOM     15  C   UNL     1      -1.469  12.306  20.387  0.00  0.00    +0.000 A 
ATOM     16  C   UNL     1      -1.618  13.697  20.548  0.00  0.00    +0.000 A 
BRANCH  11  18
ATOM     17  C   UNL     1      -0.559  16.647  18.690  0.00  0.00    +0.000 C 
ATOM     18  O   UNL     1      -0.903  15.940  19.875  0.00  0.00    +0.000 OA
ENDBRANCH  11  18
ENDBRANCH   1  14
BRANCH   7  19
ATOM     19  C   UNL     1       2.562   5.031  20.368  0.00  0.00    +0.000 C 
ATOM     20  C   UNL     1       1.319   4.131  20.190  0.00  0.00    +0.000 C 
ATOM     21  N   UNL     1       1.451   3.513  18.859  0.00  0.00    +0.000 NA
ATOM     22  C   UNL     1       0.749   2.238  18.772  0.00  0.00    +0.000 C 
ATOM     23  C   UNL     1       2.892   3.355  18.650  0.00  0.00    +0.000 C 
ATOM     24  C   UNL     1       3.482   4.662  19.182  0.00  0.00    +0.000 C 
BRANCH  24  25
ATOM     25  O   UNL     1       4.839   4.444  19.579  0.00  0.00    +0.000 OA
ATOM     26  C   UNL     1       5.755   5.371  19.015  0.00  0.00    +0.000 C 
ENDBRANCH  24  25
ENDBRANCH   7  19
TORSDOF 4
ENDMDL
