MODEL 1
REMARK VINA RESULT:      -7.3      0.000      0.000
REMARK  Name = 
REMARK  4 active torsions:
REMARK  status: ('A' for Active; 'I' for Inactive)
REMARK    1  A    between atoms: C_2  and  C_4
REMARK    2  A    between atoms: C_8  and  C_9
REMARK    3  A    between atoms: C_15  and  C_16
REMARK    4  A    between atoms: C_16  and  C_17
REMARK                            x       y       z     vdW  Elec       q    Type
REMARK                         _______ _______ _______ _____ _____    ______ ____
ROOT
ATOM      1  C   UNL     1       3.049   4.555  18.780  0.00  0.00    +0.000 C 
ATOM      2  C   UNL     1       2.231   3.959  19.922  0.00  0.00    +0.000 C 
ATOM      3  S   UNL     1       1.713   5.353  20.957  0.00  0.00    +0.000 S 
ATOM      4  C   UNL     1       2.095   6.549  19.761  0.00  0.00    +0.000 A 
ATOM      5  C   UNL     1       1.827   7.875  19.830  0.00  0.00    +0.000 A 
ATOM      6  C   UNL     1       2.264   8.722  18.700  0.00  0.00    +0.000 A 
ATOM      7  C   UNL     1       3.038   8.193  17.734  0.00  0.00    +0.000 A 
ATOM      8  C   UNL     1       3.415   6.764  17.744  0.00  0.00    +0.000 A 
ATOM      9  O   UNL     1       4.168   6.327  16.881  0.00  0.00    +0.000 OA
ATOM     10  N   UNL     1       2.778   5.995  18.695  0.00  0.00    +0.000 N 
ENDROOT
BRANCH   5  11
ATOM     11  C   UNL     1       1.123   8.416  21.017  0.00  0.00    +0.000 A 
ATOM     12  C   UNL     1      -0.269   8.287  21.136  0.00  0.00    +0.000 A 
ATOM     13  C   UNL     1      -0.936   8.815  22.243  0.00  0.00    +0.000 A 
ATOM     14  C   UNL     1      -0.221   9.469  23.245  0.00  0.00    +0.000 A 
ATOM     15  C   UNL     1       1.164   9.597  23.140  0.00  0.00    +0.000 A 
ATOM     16  C   UNL     1       1.833   9.077  22.030  0.00  0.00    +0.000 A 
ENDBRANCH   5  11
BRANCH   1  18
ATOM     17  N   UNL     1       3.672   3.334  16.714  0.00  0.00    +0.000 N 
ATOM     18  C   UNL     1       2.651   3.797  17.501  0.00  0.00    +0.000 C 
ATOM     19  O   UNL     1       1.498   3.765  17.084  0.00  0.00    +0.000 OA
ATOM     20  H   UNL     1       3.392   2.762  15.926  0.00  0.00    +0.000 HD
ATOM     21  H   UNL     1       4.577   3.141  17.124  0.00  0.00    +0.000 HD
ENDBRANCH   1  18
BRANCH   6  22
ATOM     22  C   UNL     1       1.769  10.154  18.559  0.00  0.00    +0.000 C 
BRANCH  22  23
ATOM     23  C   UNL     1       0.261  10.309  18.455  0.00  0.00    +0.000 A 
ATOM     24  C   UNL     1      -0.406   9.550  17.472  0.00  0.00    +0.000 A 
ATOM     25  C   UNL     1      -1.778   9.661  17.284  0.00  0.00    +0.000 A 
ATOM     26  C   UNL     1      -2.505  10.562  18.050  0.00  0.00    +0.000 A 
ATOM     27  C   UNL     1      -1.880  11.336  19.036  0.00  0.00    +0.000 A 
ATOM     28  C   UNL     1      -2.632  12.281  19.754  0.00  0.00    +0.000 A 
ATOM     29  C   UNL     1      -2.053  13.044  20.765  0.00  0.00    +0.000 A 
ATOM     30  C   UNL     1      -0.729  12.826  21.110  0.00  0.00    +0.000 A 
ATOM     31  C   UNL     1       0.036  11.903  20.392  0.00  0.00    +0.000 A 
ATOM     32  C   UNL     1      -0.495  11.175  19.299  0.00  0.00    +0.000 A 
ENDBRANCH  22  23
ENDBRANCH   6  22
TORSDOF 4
ENDMDL
MODEL 2
REMARK VINA RESULT:      -6.9      5.432      8.737
REMARK  Name = 
REMARK  4 active torsions:
REMARK  status: ('A' for Active; 'I' for Inactive)
REMARK    1  A    between atoms: C_2  and  C_4
REMARK    2  A    between atoms: C_8  and  C_9
REMARK    3  A    between atoms: C_15  and  C_16
REMARK    4  A    between atoms: C_16  and  C_17
REMARK                            x       y       z     vdW  Elec       q    Type
REMARK                         _______ _______ _______ _____ _____    ______ ____
ROOT
ATOM      1  C   UNL     1      -6.825  13.073  20.975  0.00  0.00    +0.000 C 
ATOM      2  C   UNL     1      -7.581  12.026  20.163  0.00  0.00    +0.000 C 
ATOM      3  S   UNL     1      -6.461  11.506  18.837  0.00  0.00    +0.000 S 
ATOM      4  C   UNL     1      -5.055  12.198  19.579  0.00  0.00    +0.000 A 
ATOM      5  C   UNL     1      -3.774  12.068  19.159  0.00  0.00    +0.000 A 
ATOM      6  C   UNL     1      -2.725  12.767  19.932  0.00  0.00    +0.000 A 
ATOM      7  C   UNL     1      -3.080  13.621  20.910  0.00  0.00    +0.000 A 
ATOM      8  C   UNL     1      -4.497  13.835  21.272  0.00  0.00    +0.000 A 
ATOM      9  O   UNL     1      -4.789  14.663  22.127  0.00  0.00    +0.000 OA
ATOM     10  N   UNL     1      -5.393  12.977  20.669  0.00  0.00    +0.000 N 
ENDROOT
BRANCH   5  11
ATOM     11  C   UNL     1      -3.478  11.248  17.959  0.00  0.00    +0.000 A 
ATOM     12  C   UNL     1      -3.605  11.798  16.675  0.00  0.00    +0.000 A 
ATOM     13  C   UNL     1      -3.348  11.021  15.545  0.00  0.00    +0.000 A 
ATOM     14  C   UNL     1      -2.952   9.691  15.684  0.00  0.00    +0.000 A 
ATOM     15  C   UNL     1      -2.816   9.136  16.956  0.00  0.00    +0.000 A 
ATOM     16  C   UNL     1      -3.081   9.909  18.089  0.00  0.00    +0.000 A 
ENDBRANCH   5  11
BRANCH   1  18
ATOM     17  N   UNL     1      -7.582  13.863  23.200  0.00  0.00    +0.000 N 
ATOM     18  C   UNL     1      -7.137  12.802  22.457  0.00  0.00    +0.000 C 
ATOM     19  O   UNL     1      -6.829  11.754  23.017  0.00  0.00    +0.000 OA
ATOM     20  H   UNL     1      -7.867  13.647  24.148  0.00  0.00    +0.000 HD
ATOM     21  H   UNL     1      -8.051  14.636  22.744  0.00  0.00    +0.000 HD
ENDBRANCH   1  18
BRANCH   6  22
ATOM     22  C   UNL     1      -1.252  12.458  19.708  0.00  0.00    +0.000 C 
BRANCH  22  23
ATOM     23  C   UNL     1      -0.713  11.278  20.498  0.00  0.00    +0.000 A 
ATOM     24  C   UNL     1      -1.052  11.197  21.864  0.00  0.00    +0.000 A 
ATOM     25  C   UNL     1      -0.569  10.172  22.668  0.00  0.00    +0.000 A 
ATOM     26  C   UNL     1       0.295   9.228  22.130  0.00  0.00    +0.000 A 
ATOM     27  C   UNL     1       0.659   9.274  20.777  0.00  0.00    +0.000 A 
ATOM     28  C   UNL     1       1.581   8.339  20.277  0.00  0.00    +0.000 A 
ATOM     29  C   UNL     1       1.940   8.332  18.932  0.00  0.00    +0.000 A 
ATOM     30  C   UNL     1       1.334   9.221  18.060  0.00  0.00    +0.000 A 
ATOM     31  C   UNL     1       0.429  10.168  18.547  0.00  0.00    +0.000 A 
ATOM     32  C   UNL     1       0.109  10.264  19.923  0.00  0.00    +0.000 A 
ENDBRANCH  22  23
ENDBRANCH   6  22
TORSDOF 4
ENDMDL
MODEL 3
REMARK VINA RESULT:      -6.5      5.331      8.417
REMARK  Name = 
REMARK  4 active torsions:
REMARK  status: ('A' for Active; 'I' for Inactive)
REMARK    1  A    between atoms: C_2  and  C_4
REMARK    2  A    between atoms: C_8  and  C_9
REMARK    3  A    between atoms: C_15  and  C_16
REMARK    4  A    between atoms: C_16  and  C_17
REMARK                            x       y       z     vdW  Elec       q    Type
REMARK                         _______ _______ _______ _____ _____    ______ ____
ROOT
ATOM      1  C   UNL     1      -6.719  12.848  18.775  0.00  0.00    +0.000 C 
ATOM      2  C   UNL     1      -7.466  13.734  19.768  0.00  0.00    +0.000 C 
ATOM      3  S   UNL     1      -6.447  13.790  21.264  0.00  0.00    +0.000 S 
ATOM      4  C   UNL     1      -5.034  13.160  20.481  0.00  0.00    +0.000 A 
ATOM      5  C   UNL     1      -3.796  13.047  21.018  0.00  0.00    +0.000 A 
ATOM      6  C   UNL     1      -2.735  12.456  20.174  0.00  0.00    +0.000 A 
ATOM      7  C   UNL     1      -3.058  11.912  18.986  0.00  0.00    +0.000 A 
ATOM      8  C   UNL     1      -4.444  11.943  18.474  0.00  0.00    +0.000 A 
ATOM      9  O   UNL     1      -4.715  11.389  17.415  0.00  0.00    +0.000 OA
ATOM     10  N   UNL     1      -5.323  12.715  19.205  0.00  0.00    +0.000 N 
ENDROOT
BRANCH   5  11
ATOM     11  C   UNL     1      -3.557  13.509  22.406  0.00  0.00    +0.000 A 
ATOM     12  C   UNL     1      -3.888  12.688  23.494  0.00  0.00    +0.000 A 
ATOM     13  C   UNL     1      -3.683  13.130  24.802  0.00  0.00    +0.000 A 
ATOM     14  C   UNL     1      -3.137  14.392  25.037  0.00  0.00    +0.000 A 
ATOM     15  C   UNL     1      -2.799  15.214  23.963  0.00  0.00    +0.000 A 
ATOM     16  C   UNL     1      -3.011  14.777  22.653  0.00  0.00    +0.000 A 
ENDBRANCH   5  11
BRANCH   1  18
ATOM     17  N   UNL     1      -6.459  14.815  17.288  0.00  0.00    +0.000 N 
ATOM     18  C   UNL     1      -6.857  13.508  17.392  0.00  0.00    +0.000 C 
ATOM     19  O   UNL     1      -7.467  12.983  16.467  0.00  0.00    +0.000 OA
ATOM     20  H   UNL     1      -6.473  15.204  16.353  0.00  0.00    +0.000 HD
ATOM     21  H   UNL     1      -5.767  15.183  17.929  0.00  0.00    +0.000 HD
ENDBRANCH   1  18
BRANCH   6  22
ATOM     22  C   UNL     1      -1.272  12.544  20.582  0.00  0.00    +0.000 C 
BRANCH  22  23
ATOM     23  C   UNL     1      -0.675  11.257  21.125  0.00  0.00    +0.000 A 
ATOM     24  C   UNL     1      -0.878  10.967  22.490  0.00  0.00    +0.000 A 
ATOM     25  C   UNL     1      -0.334   9.831  23.075  0.00  0.00    +0.000 A 
ATOM     26  C   UNL     1       0.458   8.980  22.315  0.00  0.00    +0.000 A 
ATOM     27  C   UNL     1       0.686   9.233  20.956  0.00  0.00    +0.000 A 
ATOM     28  C   UNL     1       1.540   8.386  20.229  0.00  0.00    +0.000 A 
ATOM     29  C   UNL     1       1.763   8.584  18.869  0.00  0.00    +0.000 A 
ATOM     30  C   UNL     1       1.087   9.597  18.208  0.00  0.00    +0.000 A 
ATOM     31  C   UNL     1       0.250  10.458  18.923  0.00  0.00    +0.000 A 
ATOM     32  C   UNL     1       0.069  10.342  20.322  0.00  0.00    +0.000 A 
ENDBRANCH  22  23
ENDBRANCH   6  22
TORSDOF 4
ENDMDL
MODEL 4
REMARK VINA RESULT:      -6.4      8.480     11.035
REMARK  Name = 
REMARK  4 active torsions:
REMARK  status: ('A' for Active; 'I' for Inactive)
REMARK    1  A    between atoms: C_2  and  C_4
REMARK    2  A    between atoms: C_8  and  C_9
REMARK    3  A    between atoms: C_15  and  C_16
REMARK    4  A    between atoms: C_16  and  C_17
REMARK                            x       y       z     vdW  Elec       q    Type
REMARK                         _______ _______ _______ _____ _____    ______ ____
ROOT
ATOM      1  C   UNL     1       3.004  16.090  20.630  0.00  0.00    +0.000 C 
ATOM      2  C   UNL     1       3.457  16.611  21.991  0.00  0.00    +0.000 C 
ATOM      3  S   UNL     1       5.162  16.039  22.211  0.00  0.00    +0.000 S 
ATOM      4  C   UNL     1       5.376  15.627  20.540  0.00  0.00    +0.000 A 
ATOM      5  C   UNL     1       6.527  15.230  19.948  0.00  0.00    +0.000 A 
ATOM      6  C   UNL     1       6.479  14.904  18.507  0.00  0.00    +0.000 A 
ATOM      7  C   UNL     1       5.290  14.856  17.877  0.00  0.00    +0.000 A 
ATOM      8  C   UNL     1       4.030  15.180  18.579  0.00  0.00    +0.000 A 
ATOM      9  O   UNL     1       2.960  15.071  17.992  0.00  0.00    +0.000 OA
ATOM     10  N   UNL     1       4.183  15.700  19.847  0.00  0.00    +0.000 N 
ENDROOT
BRANCH   5  11
ATOM     11  C   UNL     1       7.768  15.136  20.753  0.00  0.00    +0.000 A 
ATOM     12  C   UNL     1       8.601  16.254  20.906  0.00  0.00    +0.000 A 
ATOM     13  C   UNL     1       9.781  16.161  21.646  0.00  0.00    +0.000 A 
ATOM     14  C   UNL     1      10.136  14.955  22.249  0.00  0.00    +0.000 A 
ATOM     15  C   UNL     1       9.312  13.838  22.109  0.00  0.00    +0.000 A 
ATOM     16  C   UNL     1       8.135  13.926  21.362  0.00  0.00    +0.000 A 
ENDBRANCH   5  11
BRANCH   1  18
ATOM     17  N   UNL     1       0.942  16.892  19.510  0.00  0.00    +0.000 N 
ATOM     18  C   UNL     1       2.193  17.216  19.966  0.00  0.00    +0.000 C 
ATOM     19  O   UNL     1       2.686  18.300  19.671  0.00  0.00    +0.000 OA
ATOM     20  H   UNL     1       0.390  17.665  19.158  0.00  0.00    +0.000 HD
ATOM     21  H   UNL     1       0.438  16.120  19.929  0.00  0.00    +0.000 HD
ENDBRANCH   1  18
BRANCH   6  22
ATOM     22  C   UNL     1       7.757  14.721  17.703  0.00  0.00    +0.000 C 
BRANCH  22  23
ATOM     23  C   UNL     1       8.430  13.368  17.858  0.00  0.00    +0.000 A 
ATOM     24  C   UNL     1       7.680  12.223  17.518  0.00  0.00    +0.000 A 
ATOM     25  C   UNL     1       8.205  10.946  17.667  0.00  0.00    +0.000 A 
ATOM     26  C   UNL     1       9.478  10.785  18.197  0.00  0.00    +0.000 A 
ATOM     27  C   UNL     1      10.255  11.897  18.550  0.00  0.00    +0.000 A 
ATOM     28  C   UNL     1      11.516  11.700  19.139  0.00  0.00    +0.000 A 
ATOM     29  C   UNL     1      12.331  12.778  19.471  0.00  0.00    +0.000 A 
ATOM     30  C   UNL     1      11.919  14.064  19.163  0.00  0.00    +0.000 A 
ATOM     31  C   UNL     1      10.660  14.276  18.594  0.00  0.00    +0.000 A 
ATOM     32  C   UNL     1       9.768  13.210  18.326  0.00  0.00    +0.000 A 
ENDBRANCH  22  23
ENDBRANCH   6  22
TORSDOF 4
ENDMDL
MODEL 5
REMARK VINA RESULT:      -6.4      8.350     10.710
REMARK  Name = 
REMARK  4 active torsions:
REMARK  status: ('A' for Active; 'I' for Inactive)
REMARK    1  A    between atoms: C_2  and  C_4
REMARK    2  A    between atoms: C_8  and  C_9
REMARK    3  A    between atoms: C_15  and  C_16
REMARK    4  A    between atoms: C_16  and  C_17
REMARK                            x       y       z     vdW  Elec       q    Type
REMARK                         _______ _______ _______ _____ _____    ______ ____
ROOT
ATOM      1  C   UNL     1       2.353  14.944  20.511  0.00  0.00    +0.000 C 
ATOM      2  C   UNL     1       2.617  15.311  21.968  0.00  0.00    +0.000 C 
ATOM      3  S   UNL     1       4.397  15.099  22.231  0.00  0.00    +0.000 S 
ATOM      4  C   UNL     1       4.770  15.037  20.538  0.00  0.00    +0.000 A 
ATOM      5  C   UNL     1       6.005  15.010  19.984  0.00  0.00    +0.000 A 
ATOM      6  C   UNL     1       6.093  14.933  18.510  0.00  0.00    +0.000 A 
ATOM      7  C   UNL     1       4.974  14.733  17.788  0.00  0.00    +0.000 A 
ATOM      8  C   UNL     1       3.646  14.647  18.430  0.00  0.00    +0.000 A 
ATOM      9  O   UNL     1       2.655  14.407  17.751  0.00  0.00    +0.000 OA
ATOM     10  N   UNL     1       3.622  14.963  19.773  0.00  0.00    +0.000 N 
ENDROOT
BRANCH   5  11
ATOM     11  C   UNL     1       7.200  15.055  20.860  0.00  0.00    +0.000 A 
ATOM     12  C   UNL     1       7.781  16.285  21.204  0.00  0.00    +0.000 A 
ATOM     13  C   UNL     1       8.919  16.327  22.012  0.00  0.00    +0.000 A 
ATOM     14  C   UNL     1       9.482  15.145  22.491  0.00  0.00    +0.000 A 
ATOM     15  C   UNL     1       8.908  13.918  22.161  0.00  0.00    +0.000 A 
ATOM     16  C   UNL     1       7.775  13.872  21.346  0.00  0.00    +0.000 A 
ENDBRANCH   5  11
BRANCH   1  18
ATOM     17  N   UNL     1       0.223  15.453  19.348  0.00  0.00    +0.000 N 
ATOM     18  C   UNL     1       1.333  15.961  19.970  0.00  0.00    +0.000 C 
ATOM     19  O   UNL     1       1.567  17.163  19.910  0.00  0.00    +0.000 OA
ATOM     20  H   UNL     1      -0.478  16.132  19.079  0.00  0.00    +0.000 HD
ATOM     21  H   UNL     1      -0.103  14.522  19.580  0.00  0.00    +0.000 HD
ENDBRANCH   1  18
BRANCH   6  22
ATOM     22  C   UNL     1       7.411  15.177  17.791  0.00  0.00    +0.000 C 
BRANCH  22  23
ATOM     23  C   UNL     1       8.463  14.099  17.988  0.00  0.00    +0.000 A 
ATOM     24  C   UNL     1       8.106  12.772  17.670  0.00  0.00    +0.000 A 
ATOM     25  C   UNL     1       8.994  11.721  17.858  0.00  0.00    +0.000 A 
ATOM     26  C   UNL     1      10.246  11.970  18.405  0.00  0.00    +0.000 A 
ATOM     27  C   UNL     1      10.639  13.274  18.737  0.00  0.00    +0.000 A 
ATOM     28  C   UNL     1      11.888  13.485  19.344  0.00  0.00    +0.000 A 
ATOM     29  C   UNL     1      12.328  14.768  19.656  0.00  0.00    +0.000 A 
ATOM     30  C   UNL     1      11.548  15.860  19.310  0.00  0.00    +0.000 A 
ATOM     31  C   UNL     1      10.295  15.662  18.724  0.00  0.00    +0.000 A 
ATOM     32  C   UNL     1       9.777  14.369  18.474  0.00  0.00    +0.000 A 
ENDBRANCH  22  23
ENDBRANCH   6  22
TORSDOF 4
ENDMDL
MODEL 6
REMARK VINA RESULT:      -6.2      1.293      2.243
REMARK  Name = 
REMARK  4 active torsions:
REMARK  status: ('A' for Active; 'I' for Inactive)
REMARK    1  A    between atoms: C_2  and  C_4
REMARK    2  A    between atoms: C_8  and  C_9
REMARK    3  A    between atoms: C_15  and  C_16
REMARK    4  A    between atoms: C_16  and  C_17
REMARK                            x       y       z     vdW  Elec       q    Type
REMARK                         _______ _______ _______ _____ _____    ______ ____
ROOT
ATOM      1  C   UNL     1       3.805   5.196  18.719  0.00  0.00    +0.000 C 
ATOM      2  C   UNL     1       3.328   4.499  19.991  0.00  0.00    +0.000 C 
ATOM      3  S   UNL     1       2.506   5.769  20.988  0.00  0.00    +0.000 S 
ATOM      4  C   UNL     1       2.378   6.897  19.677  0.00  0.00    +0.000 A 
ATOM      5  C   UNL     1       1.720   8.081  19.692  0.00  0.00    +0.000 A 
ATOM      6  C   UNL     1       1.759   8.903  18.464  0.00  0.00    +0.000 A 
ATOM      7  C   UNL     1       2.561   8.537  17.447  0.00  0.00    +0.000 A 
ATOM      8  C   UNL     1       3.364   7.297  17.503  0.00  0.00    +0.000 A 
ATOM      9  O   UNL     1       4.127   7.022  16.585  0.00  0.00    +0.000 OA
ATOM     10  N   UNL     1       3.093   6.471  18.574  0.00  0.00    +0.000 N 
ENDROOT
BRANCH   5  11
ATOM     11  C   UNL     1       1.001   8.501  20.919  0.00  0.00    +0.000 A 
ATOM     12  C   UNL     1      -0.367   8.230  21.067  0.00  0.00    +0.000 A 
ATOM     13  C   UNL     1      -1.050   8.645  22.212  0.00  0.00    +0.000 A 
ATOM     14  C   UNL     1      -0.373   9.324  23.224  0.00  0.00    +0.000 A 
ATOM     15  C   UNL     1       0.989   9.592  23.090  0.00  0.00    +0.000 A 
ATOM     16  C   UNL     1       1.673   9.186  21.942  0.00  0.00    +0.000 A 
ENDBRANCH   5  11
BRANCH   1  18
ATOM     17  N   UNL     1       4.584   3.986  16.700  0.00  0.00    +0.000 N 
ATOM     18  C   UNL     1       3.540   4.229  17.552  0.00  0.00    +0.000 C 
ATOM     19  O   UNL     1       2.414   3.836  17.262  0.00  0.00    +0.000 OA
ATOM     20  H   UNL     1       4.418   3.281  15.992  0.00  0.00    +0.000 HD
ATOM     21  H   UNL     1       5.537   4.095  17.027  0.00  0.00    +0.000 HD
ENDBRANCH   1  18
BRANCH   6  22
ATOM     22  C   UNL     1       0.833  10.097  18.292  0.00  0.00    +0.000 C 
BRANCH  22  23
ATOM     23  C   UNL     1       1.408  11.429  18.741  0.00  0.00    +0.000 A 
ATOM     24  C   UNL     1       2.542  11.914  18.059  0.00  0.00    +0.000 A 
ATOM     25  C   UNL     1       3.154  13.104  18.431  0.00  0.00    +0.000 A 
ATOM     26  C   UNL     1       2.666  13.816  19.519  0.00  0.00    +0.000 A 
ATOM     27  C   UNL     1       1.542  13.367  20.226  0.00  0.00    +0.000 A 
ATOM     28  C   UNL     1       1.109  14.076  21.359  0.00  0.00    +0.000 A 
ATOM     29  C   UNL     1      -0.024  13.682  22.065  0.00  0.00    +0.000 A 
ATOM     30  C   UNL     1      -0.771  12.607  21.611  0.00  0.00    +0.000 A 
ATOM     31  C   UNL     1      -0.341  11.881  20.496  0.00  0.00    +0.000 A 
ATOM     32  C   UNL     1       0.855  12.198  19.808  0.00  0.00    +0.000 A 
ENDBRANCH  22  23
ENDBRANCH   6  22
TORSDOF 4
ENDMDL
MODEL 7
REMARK VINA RESULT:      -6.2      2.562      4.400
REMARK  Name = 
REMARK  4 active torsions:
REMARK  status: ('A' for Active; 'I' for Inactive)
REMARK    1  A    between atoms: C_2  and  C_4
REMARK    2  A    between atoms: C_8  and  C_9
REMARK    3  A    between atoms: C_15  and  C_16
REMARK    4  A    between atoms: C_16  and  C_17
REMARK                            x       y       z     vdW  Elec       q    Type
REMARK                         _______ _______ _______ _____ _____    ______ ____
ROOT
ATOM      1  C   UNL     1       6.533   5.087  16.658  0.00  0.00    +0.000 C 
ATOM      2  C   UNL     1       6.430   3.592  16.946  0.00  0.00    +0.000 C 
ATOM      3  S   UNL     1       5.063   3.394  18.120  0.00  0.00    +0.000 S 
ATOM      4  C   UNL     1       4.430   4.985  17.847  0.00  0.00    +0.000 A 
ATOM      5  C   UNL     1       3.274   5.489  18.341  0.00  0.00    +0.000 A 
ATOM      6  C   UNL     1       2.934   6.887  18.000  0.00  0.00    +0.000 A 
ATOM      7  C   UNL     1       3.838   7.651  17.359  0.00  0.00    +0.000 A 
ATOM      8  C   UNL     1       5.145   7.109  16.933  0.00  0.00    +0.000 A 
ATOM      9  O   UNL     1       5.968   7.846  16.403  0.00  0.00    +0.000 OA
ATOM     10  N   UNL     1       5.289   5.744  17.077  0.00  0.00    +0.000 N 
ENDROOT
BRANCH   5  11
ATOM     11  C   UNL     1       2.411   4.636  19.193  0.00  0.00    +0.000 A 
ATOM     12  C   UNL     1       2.601   4.598  20.582  0.00  0.00    +0.000 A 
ATOM     13  C   UNL     1       1.802   3.780  21.383  0.00  0.00    +0.000 A 
ATOM     14  C   UNL     1       0.801   2.999  20.807  0.00  0.00    +0.000 A 
ATOM     15  C   UNL     1       0.599   3.034  19.428  0.00  0.00    +0.000 A 
ATOM     16  C   UNL     1       1.402   3.846  18.623  0.00  0.00    +0.000 A 
ENDBRANCH   5  11
BRANCH   1  18
ATOM     17  N   UNL     1       5.906   4.657  14.298  0.00  0.00    +0.000 N 
ATOM     18  C   UNL     1       6.808   5.236  15.152  0.00  0.00    +0.000 C 
ATOM     19  O   UNL     1       7.867   5.672  14.713  0.00  0.00    +0.000 OA
ATOM     20  H   UNL     1       6.055   4.840  13.313  0.00  0.00    +0.000 HD
ATOM     21  H   UNL     1       4.951   4.508  14.599  0.00  0.00    +0.000 HD
ENDBRANCH   1  18
BRANCH   6  22
ATOM     22  C   UNL     1       1.545   7.444  18.271  0.00  0.00    +0.000 C 
BRANCH  22  23
ATOM     23  C   UNL     1       1.436   8.341  19.492  0.00  0.00    +0.000 A 
ATOM     24  C   UNL     1       1.299   7.720  20.750  0.00  0.00    +0.000 A 
ATOM     25  C   UNL     1       1.155   8.467  21.912  0.00  0.00    +0.000 A 
ATOM     26  C   UNL     1       1.105   9.852  21.835  0.00  0.00    +0.000 A 
ATOM     27  C   UNL     1       1.234  10.509  20.604  0.00  0.00    +0.000 A 
ATOM     28  C   UNL     1       1.120  11.909  20.551  0.00  0.00    +0.000 A 
ATOM     29  C   UNL     1       1.277  12.599  19.353  0.00  0.00    +0.000 A 
ATOM     30  C   UNL     1       1.611  11.902  18.203  0.00  0.00    +0.000 A 
ATOM     31  C   UNL     1       1.709  10.508  18.237  0.00  0.00    +0.000 A 
ATOM     32  C   UNL     1       1.467   9.766  19.418  0.00  0.00    +0.000 A 
ENDBRANCH  22  23
ENDBRANCH   6  22
TORSDOF 4
ENDMDL
MODEL 8
REMARK VINA RESULT:      -6.2      4.383      7.821
REMARK  Name = 
REMARK  4 active torsions:
REMARK  status: ('A' for Active; 'I' for Inactive)
REMARK    1  A    between atoms: C_2  and  C_4
REMARK    2  A    between atoms: C_8  and  C_9
REMARK    3  A    between atoms: C_15  and  C_16
REMARK    4  A    between atoms: C_16  and  C_17
REMARK                            x       y       z     vdW  Elec       q    Type
REMARK                         _______ _______ _______ _____ _____    ______ ____
ROOT
ATOM      1  C   UNL     1      -1.786  14.162  21.930  0.00  0.00    +0.000 C 
ATOM      2  C   UNL     1      -3.267  13.890  21.681  0.00  0.00    +0.000 C 
ATOM      3  S   UNL     1      -3.362  12.996  20.109  0.00  0.00    +0.000 S 
ATOM      4  C   UNL     1      -1.671  12.611  20.078  0.00  0.00    +0.000 A 
ATOM      5  C   UNL     1      -1.042  11.807  19.189  0.00  0.00    +0.000 A 
ATOM      6  C   UNL     1       0.419  11.635  19.335  0.00  0.00    +0.000 A 
ATOM      7  C   UNL     1       1.090  12.389  20.225  0.00  0.00    +0.000 A 
ATOM      8  C   UNL     1       0.392  13.349  21.106  0.00  0.00    +0.000 A 
ATOM      9  O   UNL     1       1.039  14.061  21.865  0.00  0.00    +0.000 OA
ATOM     10  N   UNL     1      -0.985  13.280  21.074  0.00  0.00    +0.000 N 
ENDROOT
BRANCH   5  11
ATOM     11  C   UNL     1      -1.827  11.146  18.119  0.00  0.00    +0.000 A 
ATOM     12  C   UNL     1      -2.431   9.901  18.350  0.00  0.00    +0.000 A 
ATOM     13  C   UNL     1      -3.153   9.267  17.337  0.00  0.00    +0.000 A 
ATOM     14  C   UNL     1      -3.288   9.873  16.088  0.00  0.00    +0.000 A 
ATOM     15  C   UNL     1      -2.697  11.113  15.850  0.00  0.00    +0.000 A 
ATOM     16  C   UNL     1      -1.966  11.746  16.859  0.00  0.00    +0.000 A 
ENDBRANCH   5  11
BRANCH   1  18
ATOM     17  N   UNL     1      -1.099  15.003  24.159  0.00  0.00    +0.000 N 
ATOM     18  C   UNL     1      -1.534  13.928  23.430  0.00  0.00    +0.000 C 
ATOM     19  O   UNL     1      -1.525  12.809  23.932  0.00  0.00    +0.000 OA
ATOM     20  H   UNL     1      -1.024  14.854  25.158  0.00  0.00    +0.000 HD
ATOM     21  H   UNL     1      -1.315  15.943  23.849  0.00  0.00    +0.000 HD
ENDBRANCH   1  18
BRANCH   6  22
ATOM     22  C   UNL     1       1.159  10.549  18.568  0.00  0.00    +0.000 C 
BRANCH  22  23
ATOM     23  C   UNL     1       1.310   9.228  19.305  0.00  0.00    +0.000 A 
ATOM     24  C   UNL     1       0.582   9.060  20.500  0.00  0.00    +0.000 A 
ATOM     25  C   UNL     1       0.692   7.900  21.255  0.00  0.00    +0.000 A 
ATOM     26  C   UNL     1       1.565   6.898  20.851  0.00  0.00    +0.000 A 
ATOM     27  C   UNL     1       2.309   7.027  19.670  0.00  0.00    +0.000 A 
ATOM     28  C   UNL     1       3.227   6.023  19.319  0.00  0.00    +0.000 A 
ATOM     29  C   UNL     1       3.959   6.099  18.138  0.00  0.00    +0.000 A 
ATOM     30  C   UNL     1       3.737   7.151  17.264  0.00  0.00    +0.000 A 
ATOM     31  C   UNL     1       2.840   8.166  17.610  0.00  0.00    +0.000 A 
ATOM     32  C   UNL     1       2.146   8.168  18.843  0.00  0.00    +0.000 A 
ENDBRANCH  22  23
ENDBRANCH   6  22
TORSDOF 4
ENDMDL
MODEL 9
REMARK VINA RESULT:      -6.2      4.594      7.364
REMARK  Name = 
REMARK  4 active torsions:
REMARK  status: ('A' for Active; 'I' for Inactive)
REMARK    1  A    between atoms: C_2  and  C_4
REMARK    2  A    between atoms: C_8  and  C_9
REMARK    3  A    between atoms: C_15  and  C_16
REMARK    4  A    between atoms: C_16  and  C_17
REMARK                            x       y       z     vdW  Elec       q    Type
REMARK                         _______ _______ _______ _____ _____    ______ ____
ROOT
ATOM      1  C   UNL     1       0.230  11.891  19.203  0.00  0.00    +0.000 C 
ATOM      2  C   UNL     1       0.953  12.366  20.460  0.00  0.00    +0.000 C 
ATOM      3  S   UNL     1      -0.271  13.277  21.436  0.00  0.00    +0.000 S 
ATOM      4  C   UNL     1      -1.627  12.665  20.545  0.00  0.00    +0.000 A 
ATOM      5  C   UNL     1      -2.936  12.855  20.836  0.00  0.00    +0.000 A 
ATOM      6  C   UNL     1      -3.934  12.258  19.923  0.00  0.00    +0.000 A 
ATOM      7  C   UNL     1      -3.525  11.695  18.770  0.00  0.00    +0.000 A 
ATOM      8  C   UNL     1      -2.092  11.606  18.420  0.00  0.00    +0.000 A 
ATOM      9  O   UNL     1      -1.757  11.140  17.337  0.00  0.00    +0.000 OA
ATOM     10  N   UNL     1      -1.219  11.969  19.424  0.00  0.00    +0.000 N 
ENDROOT
BRANCH   5  11
ATOM     11  C   UNL     1      -3.311  13.642  22.035  0.00  0.00    +0.000 A 
ATOM     12  C   UNL     1      -3.531  15.024  21.936  0.00  0.00    +0.000 A 
ATOM     13  C   UNL     1      -3.863  15.770  23.068  0.00  0.00    +0.000 A 
ATOM     14  C   UNL     1      -3.990  15.143  24.307  0.00  0.00    +0.000 A 
ATOM     15  C   UNL     1      -3.781  13.769  24.416  0.00  0.00    +0.000 A 
ATOM     16  C   UNL     1      -3.439  13.021  23.286  0.00  0.00    +0.000 A 
ENDBRANCH   5  11
BRANCH   1  18
ATOM     17  N   UNL     1       1.168  10.196  17.656  0.00  0.00    +0.000 N 
ATOM     18  C   UNL     1       0.714  10.458  18.922  0.00  0.00    +0.000 C 
ATOM     19  O   UNL     1       0.533   9.533  19.707  0.00  0.00    +0.000 OA
ATOM     20  H   UNL     1       1.565   9.274  17.515  0.00  0.00    +0.000 HD
ATOM     21  H   UNL     1       1.538  10.948  17.088  0.00  0.00    +0.000 HD
ENDBRANCH   1  18
BRANCH   6  22
ATOM     22  C   UNL     1      -5.403  12.179  20.312  0.00  0.00    +0.000 C 
BRANCH  22  23
ATOM     23  C   UNL     1      -6.113  13.518  20.424  0.00  0.00    +0.000 A 
ATOM     24  C   UNL     1      -6.106  14.357  19.291  0.00  0.00    +0.000 A 
ATOM     25  C   UNL     1      -6.698  15.613  19.320  0.00  0.00    +0.000 A 
ATOM     26  C   UNL     1      -7.275  16.072  20.496  0.00  0.00    +0.000 A 
ATOM     27  C   UNL     1      -7.301  15.271  21.645  0.00  0.00    +0.000 A 
ATOM     28  C   UNL     1      -7.840  15.786  22.836  0.00  0.00    +0.000 A 
ATOM     29  C   UNL     1      -7.915  15.008  23.988  0.00  0.00    +0.000 A 
ATOM     30  C   UNL     1      -7.506  13.685  23.945  0.00  0.00    +0.000 A 
ATOM     31  C   UNL     1      -6.951  13.165  22.772  0.00  0.00    +0.000 A 
ATOM     32  C   UNL     1      -6.777  13.953  21.609  0.00  0.00    +0.000 A 
ENDBRANCH  22  23
ENDBRANCH   6  22
TORSDOF 4
ENDMDL
