MODEL 1
REMARK VINA RESULT:      -6.1      0.000      0.000
REMARK  Name = 
REMARK  4 active torsions:
REMARK  status: ('A' for Active; 'I' for Inactive)
REMARK    1  A    between atoms: C_5  and  S_6
REMARK    2  A    between atoms: S_6  and  S_7
REMARK    3  A    between atoms: S_7  and  S_8
REMARK    4  A    between atoms: S_8  and  C_9
REMARK                            x       y       z     vdW  Elec       q    Type
REMARK                         _______ _______ _______ _____ _____    ______ ____
ROOT
ATOM      1  S   UNL     1       2.303   4.236  18.205  0.00  0.00    +0.000 S 
ENDROOT
BRANCH   1   2
ATOM      2  S   UNL     1       2.880   5.300  19.866  0.00  0.00    +0.000 S 
BRANCH   2   7
ATOM      3 CL   UNL     1       0.647  11.050  18.605  0.00  0.00    +0.000 Cl
ATOM      4  C   UNL     1       1.260   9.484  18.969  0.00  0.00    +0.000 A 
ATOM      5  C   UNL     1       1.166   8.986  20.267  0.00  0.00    +0.000 A 
ATOM      6  C   UNL     1       1.662   7.713  20.563  0.00  0.00    +0.000 A 
ATOM      7  C   UNL     1       2.244   6.934  19.556  0.00  0.00    +0.000 A 
ATOM      8  C   UNL     1       2.341   7.450  18.257  0.00  0.00    +0.000 A 
ATOM      9  C   UNL     1       1.847   8.723  17.961  0.00  0.00    +0.000 A 
ENDBRANCH   2   7
ENDBRANCH   1   2
BRANCH   1  10
ATOM     10  S   UNL     1       4.026   3.422  17.434  0.00  0.00    +0.000 S 
BRANCH  10  11
ATOM     11  C   UNL     1       5.196   4.762  17.520  0.00  0.00    +0.000 A 
ATOM     12  C   UNL     1       6.285   4.750  18.397  0.00  0.00    +0.000 A 
ATOM     13  C   UNL     1       7.170   5.832  18.434  0.00  0.00    +0.000 A 
ATOM     14  C   UNL     1       6.970   6.922  17.587  0.00  0.00    +0.000 A 
ATOM     15 CL   UNL     1       8.059   8.253  17.634  0.00  0.00    +0.000 Cl
ATOM     16  C   UNL     1       5.896   6.939  16.702  0.00  0.00    +0.000 A 
ATOM     17  C   UNL     1       5.012   5.860  16.667  0.00  0.00    +0.000 A 
ENDBRANCH  10  11
ENDBRANCH   1  10
TORSDOF 4
ENDMDL
MODEL 2
REMARK VINA RESULT:      -6.0      1.460      5.415
REMARK  Name = 
REMARK  4 active torsions:
REMARK  status: ('A' for Active; 'I' for Inactive)
REMARK    1  A    between atoms: C_5  and  S_6
REMARK    2  A    between atoms: S_6  and  S_7
REMARK    3  A    between atoms: S_7  and  S_8
REMARK    4  A    between atoms: S_8  and  C_9
REMARK                            x       y       z     vdW  Elec       q    Type
REMARK                         _______ _______ _______ _____ _____    ______ ____
ROOT
ATOM      1  S   UNL     1       1.289   3.341  19.492  0.00  0.00    +0.000 S 
ENDROOT
BRANCH   1   2
ATOM      2  S   UNL     1       2.849   2.138  18.907  0.00  0.00    +0.000 S 
BRANCH   2   7
ATOM      3 CL   UNL     1       7.142   6.187  16.711  0.00  0.00    +0.000 Cl
ATOM      4  C   UNL     1       5.956   5.087  17.297  0.00  0.00    +0.000 A 
ATOM      5  C   UNL     1       4.956   4.625  16.444  0.00  0.00    +0.000 A 
ATOM      6  C   UNL     1       3.993   3.730  16.919  0.00  0.00    +0.000 A 
ATOM      7  C   UNL     1       4.038   3.289  18.246  0.00  0.00    +0.000 A 
ATOM      8  C   UNL     1       5.042   3.768  19.097  0.00  0.00    +0.000 A 
ATOM      9  C   UNL     1       6.004   4.664  18.623  0.00  0.00    +0.000 A 
ENDBRANCH   2   7
ENDBRANCH   1   2
BRANCH   1  10
ATOM     10  S   UNL     1       2.061   4.605  20.918  0.00  0.00    +0.000 S 
BRANCH  10  11
ATOM     11  C   UNL     1       1.989   6.205  20.140  0.00  0.00    +0.000 A 
ATOM     12  C   UNL     1       1.465   7.329  20.786  0.00  0.00    +0.000 A 
ATOM     13  C   UNL     1       1.422   8.562  20.128  0.00  0.00    +0.000 A 
ATOM     14  C   UNL     1       1.910   8.673  18.828  0.00  0.00    +0.000 A 
ATOM     15 CL   UNL     1       1.855  10.190  18.019  0.00  0.00    +0.000 Cl
ATOM     16  C   UNL     1       2.445   7.563  18.179  0.00  0.00    +0.000 A 
ATOM     17  C   UNL     1       2.487   6.333  18.835  0.00  0.00    +0.000 A 
ENDBRANCH  10  11
ENDBRANCH   1  10
TORSDOF 4
ENDMDL
MODEL 3
REMARK VINA RESULT:      -6.0      0.591      5.373
REMARK  Name = 
REMARK  4 active torsions:
REMARK  status: ('A' for Active; 'I' for Inactive)
REMARK    1  A    between atoms: C_5  and  S_6
REMARK    2  A    between atoms: S_6  and  S_7
REMARK    3  A    between atoms: S_7  and  S_8
REMARK    4  A    between atoms: S_8  and  C_9
REMARK                            x       y       z     vdW  Elec       q    Type
REMARK                         _______ _______ _______ _____ _____    ______ ____
ROOT
ATOM      1  S   UNL     1       1.893   3.929  18.803  0.00  0.00    +0.000 S 
ENDROOT
BRANCH   1   2
ATOM      2  S   UNL     1       3.567   2.997  18.058  0.00  0.00    +0.000 S 
BRANCH   2   7
ATOM      3 CL   UNL     1       7.667   7.734  17.439  0.00  0.00    +0.000 Cl
ATOM      4  C   UNL     1       6.560   6.430  17.619  0.00  0.00    +0.000 A 
ATOM      5  C   UNL     1       6.656   5.586  18.724  0.00  0.00    +0.000 A 
ATOM      6  C   UNL     1       5.755   4.527  18.872  0.00  0.00    +0.000 A 
ATOM      7  C   UNL     1       4.753   4.319  17.918  0.00  0.00    +0.000 A 
ATOM      8  C   UNL     1       4.673   5.168  16.807  0.00  0.00    +0.000 A 
ATOM      9  C   UNL     1       5.574   6.225  16.657  0.00  0.00    +0.000 A 
ENDBRANCH   2   7
ENDBRANCH   1   2
BRANCH   1  10
ATOM     10  S   UNL     1       2.553   5.111  20.350  0.00  0.00    +0.000 S 
BRANCH  10  11
ATOM     11  C   UNL     1       2.129   6.760  19.826  0.00  0.00    +0.000 A 
ATOM     12  C   UNL     1       2.441   7.243  18.552  0.00  0.00    +0.000 A 
ATOM     13  C   UNL     1       2.096   8.550  18.192  0.00  0.00    +0.000 A 
ATOM     14  C   UNL     1       1.432   9.369  19.103  0.00  0.00    +0.000 A 
ATOM     15 CL   UNL     1       1.009  10.977  18.659  0.00  0.00    +0.000 Cl
ATOM     16  C   UNL     1       1.107   8.894  20.371  0.00  0.00    +0.000 A 
ATOM     17  C   UNL     1       1.453   7.591  20.730  0.00  0.00    +0.000 A 
ENDBRANCH  10  11
ENDBRANCH   1  10
TORSDOF 4
ENDMDL
MODEL 4
REMARK VINA RESULT:      -5.9      1.190      1.392
REMARK  Name = 
REMARK  4 active torsions:
REMARK  status: ('A' for Active; 'I' for Inactive)
REMARK    1  A    between atoms: C_5  and  S_6
REMARK    2  A    between atoms: S_6  and  S_7
REMARK    3  A    between atoms: S_7  and  S_8
REMARK    4  A    between atoms: S_8  and  C_9
REMARK                            x       y       z     vdW  Elec       q    Type
REMARK                         _______ _______ _______ _____ _____    ______ ____
ROOT
ATOM      1  S   UNL     1       1.510   3.372  19.045  0.00  0.00    +0.000 S 
ENDROOT
BRANCH   1   2
ATOM      2  S   UNL     1       1.963   4.562  20.659  0.00  0.00    +0.000 S 
BRANCH   2   7
ATOM      3 CL   UNL     1       1.868  10.323  18.123  0.00  0.00    +0.000 Cl
ATOM      4  C   UNL     1       1.895   8.758  18.834  0.00  0.00    +0.000 A 
ATOM      5  C   UNL     1       1.452   8.582  20.143  0.00  0.00    +0.000 A 
ATOM      6  C   UNL     1       1.471   7.309  20.721  0.00  0.00    +0.000 A 
ATOM      7  C   UNL     1       1.927   6.210  19.984  0.00  0.00    +0.000 A 
ATOM      8  C   UNL     1       2.380   6.401  18.672  0.00  0.00    +0.000 A 
ATOM      9  C   UNL     1       2.362   7.673  18.095  0.00  0.00    +0.000 A 
ENDBRANCH   2   7
ENDBRANCH   1   2
BRANCH   1  10
ATOM     10  S   UNL     1       3.230   2.331  18.616  0.00  0.00    +0.000 S 
BRANCH  10  11
ATOM     11  C   UNL     1       4.412   3.612  18.246  0.00  0.00    +0.000 A 
ATOM     12  C   UNL     1       5.236   4.175  19.225  0.00  0.00    +0.000 A 
ATOM     13  C   UNL     1       6.141   5.186  18.886  0.00  0.00    +0.000 A 
ATOM     14  C   UNL     1       6.227   5.627  17.566  0.00  0.00    +0.000 A 
ATOM     15 CL   UNL     1       7.340   6.871  17.151  0.00  0.00    +0.000 Cl
ATOM     16  C   UNL     1       5.420   5.065  16.582  0.00  0.00    +0.000 A 
ATOM     17  C   UNL     1       4.515   4.057  16.921  0.00  0.00    +0.000 A 
ENDBRANCH  10  11
ENDBRANCH   1  10
TORSDOF 4
ENDMDL
MODEL 5
REMARK VINA RESULT:      -5.8      2.047      2.501
REMARK  Name = 
REMARK  4 active torsions:
REMARK  status: ('A' for Active; 'I' for Inactive)
REMARK    1  A    between atoms: C_5  and  S_6
REMARK    2  A    between atoms: S_6  and  S_7
REMARK    3  A    between atoms: S_7  and  S_8
REMARK    4  A    between atoms: S_8  and  C_9
REMARK                            x       y       z     vdW  Elec       q    Type
REMARK                         _______ _______ _______ _____ _____    ______ ____
ROOT
ATOM      1  S   UNL     1       2.367   1.913  19.466  0.00  0.00    +0.000 S 
ENDROOT
BRANCH   1   2
ATOM      2  S   UNL     1       1.215   3.229  20.546  0.00  0.00    +0.000 S 
BRANCH   2   7
ATOM      3 CL   UNL     1       2.533   8.763  17.849  0.00  0.00    +0.000 Cl
ATOM      4  C   UNL     1       2.184   7.257  18.601  0.00  0.00    +0.000 A 
ATOM      5  C   UNL     1       2.220   7.150  19.990  0.00  0.00    +0.000 A 
ATOM      6  C   UNL     1       1.934   5.926  20.603  0.00  0.00    +0.000 A 
ATOM      7  C   UNL     1       1.604   4.811  19.825  0.00  0.00    +0.000 A 
ATOM      8  C   UNL     1       1.581   4.928  18.429  0.00  0.00    +0.000 A 
ATOM      9  C   UNL     1       1.868   6.151  17.816  0.00  0.00    +0.000 A 
ENDBRANCH   2   7
ENDBRANCH   1   2
BRANCH   1  10
ATOM     10  S   UNL     1       4.319   2.421  19.864  0.00  0.00    +0.000 S 
BRANCH  10  11
ATOM     11  C   UNL     1       4.696   3.638  18.620  0.00  0.00    +0.000 A 
ATOM     12  C   UNL     1       5.272   4.874  18.932  0.00  0.00    +0.000 A 
ATOM     13  C   UNL     1       5.539   5.801  17.920  0.00  0.00    +0.000 A 
ATOM     14  C   UNL     1       5.239   5.488  16.595  0.00  0.00    +0.000 A 
ATOM     15 CL   UNL     1       5.567   6.629  15.350  0.00  0.00    +0.000 Cl
ATOM     16  C   UNL     1       4.676   4.256  16.271  0.00  0.00    +0.000 A 
ATOM     17  C   UNL     1       4.408   3.332  17.282  0.00  0.00    +0.000 A 
ENDBRANCH  10  11
ENDBRANCH   1  10
TORSDOF 4
ENDMDL
MODEL 6
REMARK VINA RESULT:      -5.8      1.527      4.988
REMARK  Name = 
REMARK  4 active torsions:
REMARK  status: ('A' for Active; 'I' for Inactive)
REMARK    1  A    between atoms: C_5  and  S_6
REMARK    2  A    between atoms: S_6  and  S_7
REMARK    3  A    between atoms: S_7  and  S_8
REMARK    4  A    between atoms: S_8  and  C_9
REMARK                            x       y       z     vdW  Elec       q    Type
REMARK                         _______ _______ _______ _____ _____    ______ ____
ROOT
ATOM      1  S   UNL     1       1.713   2.491  18.435  0.00  0.00    +0.000 S 
ENDROOT
BRANCH   1   2
ATOM      2  S   UNL     1       3.668   1.859  18.373  0.00  0.00    +0.000 S 
BRANCH   2   7
ATOM      3 CL   UNL     1       6.851   7.184  17.300  0.00  0.00    +0.000 Cl
ATOM      4  C   UNL     1       5.992   5.727  17.609  0.00  0.00    +0.000 A 
ATOM      5  C   UNL     1       5.872   5.256  18.916  0.00  0.00    +0.000 A 
ATOM      6  C   UNL     1       5.172   4.072  19.169  0.00  0.00    +0.000 A 
ATOM      7  C   UNL     1       4.584   3.365  18.114  0.00  0.00    +0.000 A 
ATOM      8  C   UNL     1       4.721   3.842  16.804  0.00  0.00    +0.000 A 
ATOM      9  C   UNL     1       5.422   5.024  16.551  0.00  0.00    +0.000 A 
ENDBRANCH   2   7
ENDBRANCH   1   2
BRANCH   1  10
ATOM     10  S   UNL     1       1.534   3.591  20.163  0.00  0.00    +0.000 S 
BRANCH  10  11
ATOM     11  C   UNL     1       1.776   5.269  19.617  0.00  0.00    +0.000 A 
ATOM     12  C   UNL     1       1.782   6.351  20.503  0.00  0.00    +0.000 A 
ATOM     13  C   UNL     1       1.966   7.651  20.024  0.00  0.00    +0.000 A 
ATOM     14  C   UNL     1       2.153   7.868  18.659  0.00  0.00    +0.000 A 
ATOM     15 CL   UNL     1       2.378   9.469  18.071  0.00  0.00    +0.000 Cl
ATOM     16  C   UNL     1       2.161   6.798  17.770  0.00  0.00    +0.000 A 
ATOM     17  C   UNL     1       1.975   5.500  18.248  0.00  0.00    +0.000 A 
ENDBRANCH  10  11
ENDBRANCH   1  10
TORSDOF 4
ENDMDL
MODEL 7
REMARK VINA RESULT:      -5.7      0.476      1.265
REMARK  Name = 
REMARK  4 active torsions:
REMARK  status: ('A' for Active; 'I' for Inactive)
REMARK    1  A    between atoms: C_5  and  S_6
REMARK    2  A    between atoms: S_6  and  S_7
REMARK    3  A    between atoms: S_7  and  S_8
REMARK    4  A    between atoms: S_8  and  C_9
REMARK                            x       y       z     vdW  Elec       q    Type
REMARK                         _______ _______ _______ _____ _____    ______ ____
ROOT
ATOM      1  S   UNL     1       1.930   4.213  18.794  0.00  0.00    +0.000 S 
ENDROOT
BRANCH   1   2
ATOM      2  S   UNL     1       2.972   5.545  19.963  0.00  0.00    +0.000 S 
BRANCH   2   7
ATOM      3 CL   UNL     1       0.284  11.113  18.780  0.00  0.00    +0.000 Cl
ATOM      4  C   UNL     1       1.016   9.587  19.084  0.00  0.00    +0.000 A 
ATOM      5  C   UNL     1       1.668   8.912  18.054  0.00  0.00    +0.000 A 
ATOM      6  C   UNL     1       2.265   7.672  18.301  0.00  0.00    +0.000 A 
ATOM      7  C   UNL     1       2.218   7.113  19.582  0.00  0.00    +0.000 A 
ATOM      8  C   UNL     1       1.550   7.796  20.607  0.00  0.00    +0.000 A 
ATOM      9  C   UNL     1       0.952   9.034  20.361  0.00  0.00    +0.000 A 
ENDBRANCH   2   7
ENDBRANCH   1   2
BRANCH   1  10
ATOM     10  S   UNL     1       3.264   3.550  17.377  0.00  0.00    +0.000 S 
BRANCH  10  11
ATOM     11  C   UNL     1       4.644   4.663  17.549  0.00  0.00    +0.000 A 
ATOM     12  C   UNL     1       5.675   4.439  18.467  0.00  0.00    +0.000 A 
ATOM     13  C   UNL     1       6.733   5.349  18.571  0.00  0.00    +0.000 A 
ATOM     14  C   UNL     1       6.761   6.477  17.752  0.00  0.00    +0.000 A 
ATOM     15 CL   UNL     1       8.062   7.596  17.883  0.00  0.00    +0.000 Cl
ATOM     16  C   UNL     1       5.746   6.703  16.828  0.00  0.00    +0.000 A 
ATOM     17  C   UNL     1       4.690   5.796  16.725  0.00  0.00    +0.000 A 
ENDBRANCH  10  11
ENDBRANCH   1  10
TORSDOF 4
ENDMDL
MODEL 8
REMARK VINA RESULT:      -5.7      0.448      5.586
REMARK  Name = 
REMARK  4 active torsions:
REMARK  status: ('A' for Active; 'I' for Inactive)
REMARK    1  A    between atoms: C_5  and  S_6
REMARK    2  A    between atoms: S_6  and  S_7
REMARK    3  A    between atoms: S_7  and  S_8
REMARK    4  A    between atoms: S_8  and  C_9
REMARK                            x       y       z     vdW  Elec       q    Type
REMARK                         _______ _______ _______ _____ _____    ______ ____
ROOT
ATOM      1  S   UNL     1       2.354   4.493  18.437  0.00  0.00    +0.000 S 
ENDROOT
BRANCH   1   2
ATOM      2  S   UNL     1       4.183   3.573  18.252  0.00  0.00    +0.000 S 
BRANCH   2   7
ATOM      3 CL   UNL     1       8.288   8.292  17.534  0.00  0.00    +0.000 Cl
ATOM      4  C   UNL     1       7.152   7.015  17.724  0.00  0.00    +0.000 A 
ATOM      5  C   UNL     1       5.967   7.025  16.991  0.00  0.00    +0.000 A 
ATOM      6  C   UNL     1       5.044   5.986  17.143  0.00  0.00    +0.000 A 
ATOM      7  C   UNL     1       5.311   4.933  18.024  0.00  0.00    +0.000 A 
ATOM      8  C   UNL     1       6.501   4.939  18.764  0.00  0.00    +0.000 A 
ATOM      9  C   UNL     1       7.423   5.978  18.613  0.00  0.00    +0.000 A 
ENDBRANCH   2   7
ENDBRANCH   1   2
BRANCH   1  10
ATOM     10  S   UNL     1       2.389   5.448  20.257  0.00  0.00    +0.000 S 
BRANCH  10  11
ATOM     11  C   UNL     1       1.957   7.128  19.856  0.00  0.00    +0.000 A 
ATOM     12  C   UNL     1       1.333   7.980  20.772  0.00  0.00    +0.000 A 
ATOM     13  C   UNL     1       1.004   9.289  20.405  0.00  0.00    +0.000 A 
ATOM     14  C   UNL     1       1.308   9.747  19.124  0.00  0.00    +0.000 A 
ATOM     15 CL   UNL     1       0.903  11.357  18.673  0.00  0.00    +0.000 Cl
ATOM     16  C   UNL     1       1.940   8.912  18.207  0.00  0.00    +0.000 A 
ATOM     17  C   UNL     1       2.266   7.605  18.574  0.00  0.00    +0.000 A 
ENDBRANCH  10  11
ENDBRANCH   1  10
TORSDOF 4
ENDMDL
MODEL 9
REMARK VINA RESULT:      -5.7      3.430      7.810
REMARK  Name = 
REMARK  4 active torsions:
REMARK  status: ('A' for Active; 'I' for Inactive)
REMARK    1  A    between atoms: C_5  and  S_6
REMARK    2  A    between atoms: S_6  and  S_7
REMARK    3  A    between atoms: S_7  and  S_8
REMARK    4  A    between atoms: S_8  and  C_9
REMARK                            x       y       z     vdW  Elec       q    Type
REMARK                         _______ _______ _______ _____ _____    ______ ____
ROOT
ATOM      1  S   UNL     1       1.798   8.721  18.062  0.00  0.00    +0.000 S 
ENDROOT
BRANCH   1   2
ATOM      2  S   UNL     1       2.478   7.095  19.120  0.00  0.00    +0.000 S 
BRANCH   2   7
ATOM      3 CL   UNL     1       6.003   3.906  14.992  0.00  0.00    +0.000 Cl
ATOM      4  C   UNL     1       5.054   4.792  16.121  0.00  0.00    +0.000 A 
ATOM      5  C   UNL     1       5.209   6.173  16.226  0.00  0.00    +0.000 A 
ATOM      6  C   UNL     1       4.436   6.893  17.141  0.00  0.00    +0.000 A 
ATOM      7  C   UNL     1       3.502   6.232  17.946  0.00  0.00    +0.000 A 
ATOM      8  C   UNL     1       3.363   4.842  17.838  0.00  0.00    +0.000 A 
ATOM      9  C   UNL     1       4.136   4.121  16.925  0.00  0.00    +0.000 A 
ENDBRANCH   2   7
ENDBRANCH   1   2
BRANCH   1  10
ATOM     10  S   UNL     1       0.990   9.998  19.456  0.00  0.00    +0.000 S 
BRANCH  10  11
ATOM     11  C   UNL     1      -0.578  10.455  18.745  0.00  0.00    +0.000 A 
ATOM     12  C   UNL     1      -1.426  11.392  19.343  0.00  0.00    +0.000 A 
ATOM     13  C   UNL     1      -2.652  11.709  18.750  0.00  0.00    +0.000 A 
ATOM     14  C   UNL     1      -3.025  11.095  17.555  0.00  0.00    +0.000 A 
ATOM     15 CL   UNL     1      -4.534  11.485  16.828  0.00  0.00    +0.000 Cl
ATOM     16  C   UNL     1      -2.183  10.169  16.946  0.00  0.00    +0.000 A 
ATOM     17  C   UNL     1      -0.961   9.852  17.538  0.00  0.00    +0.000 A 
ENDBRANCH  10  11
ENDBRANCH   1  10
TORSDOF 4
ENDMDL
