MODEL 1
REMARK VINA RESULT:      -7.0      0.000      0.000
REMARK  Name = 
REMARK  2 active torsions:
REMARK  status: ('A' for Active; 'I' for Inactive)
REMARK    1  A    between atoms: C_2  and  C_3
REMARK    2  A    between atoms: C_7  and  C_8
REMARK                            x       y       z     vdW  Elec       q    Type
REMARK                         _______ _______ _______ _____ _____    ______ ____
ROOT
ATOM      1  C   UNL     1       5.512   4.999  15.875  0.00  0.00    +0.000 A 
ATOM      2  C   UNL     1       5.444   6.243  16.491  0.00  0.00    +0.000 A 
ATOM      3  N   UNL     1       4.516   6.585  17.418  0.00  0.00    +0.000 NA
ATOM      4  C   UNL     1       3.605   5.643  17.741  0.00  0.00    +0.000 A 
ATOM      5  C   UNL     1       3.556   4.367  17.189  0.00  0.00    +0.000 A 
ATOM      6  C   UNL     1       4.572   4.046  16.275  0.00  0.00    +0.000 A 
ENDROOT
BRANCH   5   7
ATOM      7  C   UNL     1       2.527   3.346  17.612  0.00  0.00    +0.000 C 
ATOM      8  C   UNL     1       1.446   3.835  18.611  0.00  0.00    +0.000 C 
ATOM      9  C   UNL     1       1.444   2.742  19.683  0.00  0.00    +0.000 C 
ATOM     10  C   UNL     1       2.700   2.868  20.550  0.00  0.00    +0.000 C 
ATOM     11  C   UNL     1       3.795   2.340  19.622  0.00  0.00    +0.000 C 
ATOM     12  C   UNL     1       3.032   2.062  18.319  0.00  0.00    +0.000 C 
ATOM     13  N   UNL     1       1.752   1.556  18.864  0.00  0.00    +0.000 NA
ATOM     14  H   UNL     1       1.918   0.747  19.464  0.00  0.00    +0.000 HD
ENDBRANCH   5   7
BRANCH   1  16
ATOM     15  C   UNL     1       6.351   3.986  13.774  0.00  0.00    +0.000 C 
ATOM     16  C   UNL     1       6.553   4.714  14.881  0.00  0.00    +0.000 C 
ENDBRANCH   1  16
TORSDOF 2
ENDMDL
MODEL 2
REMARK VINA RESULT:      -6.9      1.466      1.626
REMARK  Name = 
REMARK  2 active torsions:
REMARK  status: ('A' for Active; 'I' for Inactive)
REMARK    1  A    between atoms: C_2  and  C_3
REMARK    2  A    between atoms: C_7  and  C_8
REMARK                            x       y       z     vdW  Elec       q    Type
REMARK                         _______ _______ _______ _____ _____    ______ ____
ROOT
ATOM      1  C   UNL     1       6.431   4.599  16.037  0.00  0.00    +0.000 A 
ATOM      2  C   UNL     1       7.227   4.600  17.176  0.00  0.00    +0.000 A 
ATOM      3  N   UNL     1       6.748   4.556  18.442  0.00  0.00    +0.000 NA
ATOM      4  C   UNL     1       5.405   4.518  18.581  0.00  0.00    +0.000 A 
ATOM      5  C   UNL     1       4.500   4.524  17.525  0.00  0.00    +0.000 A 
ATOM      6  C   UNL     1       5.051   4.516  16.235  0.00  0.00    +0.000 A 
ENDROOT
BRANCH   5   7
ATOM      7  C   UNL     1       3.007   4.452  17.745  0.00  0.00    +0.000 C 
ATOM      8  C   UNL     1       2.509   4.763  19.180  0.00  0.00    +0.000 C 
ATOM      9  C   UNL     1       1.556   3.602  19.475  0.00  0.00    +0.000 C 
ATOM     10  C   UNL     1       2.362   2.326  19.731  0.00  0.00    +0.000 C 
ATOM     11  C   UNL     1       2.830   1.945  18.326  0.00  0.00    +0.000 C 
ATOM     12  C   UNL     1       2.301   3.101  17.466  0.00  0.00    +0.000 C 
ATOM     13  N   UNL     1       1.004   3.354  18.132  0.00  0.00    +0.000 NA
ATOM     14  H   UNL     1       0.436   2.505  18.135  0.00  0.00    +0.000 HD
ENDBRANCH   5   7
BRANCH   1  16
ATOM     15  C   UNL     1       6.518   4.046  13.622  0.00  0.00    +0.000 C 
ATOM     16  C   UNL     1       7.037   4.647  14.701  0.00  0.00    +0.000 C 
ENDBRANCH   1  16
TORSDOF 2
ENDMDL
MODEL 3
REMARK VINA RESULT:      -6.9      1.711      2.549
REMARK  Name = 
REMARK  2 active torsions:
REMARK  status: ('A' for Active; 'I' for Inactive)
REMARK    1  A    between atoms: C_2  and  C_3
REMARK    2  A    between atoms: C_7  and  C_8
REMARK                            x       y       z     vdW  Elec       q    Type
REMARK                         _______ _______ _______ _____ _____    ______ ____
ROOT
ATOM      1  C   UNL     1       5.857   4.209  14.855  0.00  0.00    +0.000 A 
ATOM      2  C   UNL     1       7.099   4.764  15.142  0.00  0.00    +0.000 A 
ATOM      3  N   UNL     1       7.547   5.027  16.393  0.00  0.00    +0.000 NA
ATOM      4  C   UNL     1       6.712   4.729  17.411  0.00  0.00    +0.000 A 
ATOM      5  C   UNL     1       5.441   4.182  17.259  0.00  0.00    +0.000 A 
ATOM      6  C   UNL     1       5.049   3.880  15.946  0.00  0.00    +0.000 A 
ENDROOT
BRANCH   5   7
ATOM      7  C   UNL     1       4.564   3.844  18.441  0.00  0.00    +0.000 C 
ATOM      8  C   UNL     1       3.494   2.747  18.208  0.00  0.00    +0.000 C 
ATOM      9  C   UNL     1       2.219   3.380  18.773  0.00  0.00    +0.000 C 
ATOM     10  C   UNL     1       1.716   4.465  17.817  0.00  0.00    +0.000 C 
ATOM     11  C   UNL     1       2.713   5.600  18.053  0.00  0.00    +0.000 C 
ATOM     12  C   UNL     1       3.704   4.981  19.050  0.00  0.00    +0.000 C 
ATOM     13  N   UNL     1       2.777   4.177  19.879  0.00  0.00    +0.000 NA
ATOM     14  H   UNL     1       2.055   4.775  20.282  0.00  0.00    +0.000 HD
ENDBRANCH   5   7
BRANCH   1  16
ATOM     15  C   UNL     1       6.285   3.514  12.514  0.00  0.00    +0.000 C 
ATOM     16  C   UNL     1       5.453   3.958  13.467  0.00  0.00    +0.000 C 
ENDBRANCH   1  16
TORSDOF 2
ENDMDL
MODEL 4
REMARK VINA RESULT:      -6.8      1.623      1.886
REMARK  Name = 
REMARK  2 active torsions:
REMARK  status: ('A' for Active; 'I' for Inactive)
REMARK    1  A    between atoms: C_2  and  C_3
REMARK    2  A    between atoms: C_7  and  C_8
REMARK                            x       y       z     vdW  Elec       q    Type
REMARK                         _______ _______ _______ _____ _____    ______ ____
ROOT
ATOM      1  C   UNL     1       5.246   4.584  16.505  0.00  0.00    +0.000 A 
ATOM      2  C   UNL     1       6.336   4.556  17.366  0.00  0.00    +0.000 A 
ATOM      3  N   UNL     1       6.240   4.571  18.718  0.00  0.00    +0.000 NA
ATOM      4  C   UNL     1       4.995   4.625  19.237  0.00  0.00    +0.000 A 
ATOM      5  C   UNL     1       3.826   4.669  18.486  0.00  0.00    +0.000 A 
ATOM      6  C   UNL     1       3.979   4.597  17.093  0.00  0.00    +0.000 A 
ENDROOT
BRANCH   5   7
ATOM      7  C   UNL     1       2.458   4.701  19.127  0.00  0.00    +0.000 C 
ATOM      8  C   UNL     1       2.423   4.955  20.656  0.00  0.00    +0.000 C 
ATOM      9  C   UNL     1       1.489   3.856  21.168  0.00  0.00    +0.000 C 
ATOM     10  C   UNL     1       2.210   2.506  21.128  0.00  0.00    +0.000 C 
ATOM     11  C   UNL     1       2.219   2.182  19.634  0.00  0.00    +0.000 C 
ATOM     12  C   UNL     1       1.578   3.431  19.011  0.00  0.00    +0.000 C 
ATOM     13  N   UNL     1       0.555   3.741  20.035  0.00  0.00    +0.000 NA
ATOM     14  H   UNL     1      -0.065   2.942  20.169  0.00  0.00    +0.000 HD
ENDBRANCH   5   7
BRANCH   1  16
ATOM     15  C   UNL     1       6.628   4.364  14.458  0.00  0.00    +0.000 C 
ATOM     16  C   UNL     1       5.443   4.564  15.050  0.00  0.00    +0.000 C 
ENDBRANCH   1  16
TORSDOF 2
ENDMDL
MODEL 5
REMARK VINA RESULT:      -6.8      2.619      5.350
REMARK  Name = 
REMARK  2 active torsions:
REMARK  status: ('A' for Active; 'I' for Inactive)
REMARK    1  A    between atoms: C_2  and  C_3
REMARK    2  A    between atoms: C_7  and  C_8
REMARK                            x       y       z     vdW  Elec       q    Type
REMARK                         _______ _______ _______ _____ _____    ______ ____
ROOT
ATOM      1  C   UNL     1       2.774   5.706  19.652  0.00  0.00    +0.000 A 
ATOM      2  C   UNL     1       2.188   6.963  19.572  0.00  0.00    +0.000 A 
ATOM      3  N   UNL     1       2.499   7.892  18.636  0.00  0.00    +0.000 NA
ATOM      4  C   UNL     1       3.450   7.554  17.739  0.00  0.00    +0.000 A 
ATOM      5  C   UNL     1       4.121   6.335  17.717  0.00  0.00    +0.000 A 
ATOM      6  C   UNL     1       3.722   5.390  18.675  0.00  0.00    +0.000 A 
ENDROOT
BRANCH   5   7
ATOM      7  C   UNL     1       5.157   6.005  16.669  0.00  0.00    +0.000 C 
ATOM      8  C   UNL     1       5.521   4.506  16.514  0.00  0.00    +0.000 C 
ATOM      9  C   UNL     1       7.051   4.518  16.524  0.00  0.00    +0.000 C 
ATOM     10  C   UNL     1       7.556   4.779  17.946  0.00  0.00    +0.000 C 
ATOM     11  C   UNL     1       7.269   6.270  18.127  0.00  0.00    +0.000 C 
ATOM     12  C   UNL     1       6.561   6.643  16.817  0.00  0.00    +0.000 C 
ATOM     13  N   UNL     1       7.319   5.805  15.859  0.00  0.00    +0.000 NA
ATOM     14  H   UNL     1       8.314   6.026  15.907  0.00  0.00    +0.000 HD
ENDBRANCH   5   7
BRANCH   1  16
ATOM     15  C   UNL     1       1.269   4.004  20.645  0.00  0.00    +0.000 C 
ATOM     16  C   UNL     1       2.375   4.760  20.701  0.00  0.00    +0.000 C 
ENDBRANCH   1  16
TORSDOF 2
ENDMDL
MODEL 6
REMARK VINA RESULT:      -6.7      2.043      3.354
REMARK  Name = 
REMARK  2 active torsions:
REMARK  status: ('A' for Active; 'I' for Inactive)
REMARK    1  A    between atoms: C_2  and  C_3
REMARK    2  A    between atoms: C_7  and  C_8
REMARK                            x       y       z     vdW  Elec       q    Type
REMARK                         _______ _______ _______ _____ _____    ______ ____
ROOT
ATOM      1  C   UNL     1       6.197   3.939  13.602  0.00  0.00    +0.000 A 
ATOM      2  C   UNL     1       7.249   4.845  13.662  0.00  0.00    +0.000 A 
ATOM      3  N   UNL     1       7.646   5.481  14.791  0.00  0.00    +0.000 NA
ATOM      4  C   UNL     1       6.953   5.206  15.917  0.00  0.00    +0.000 A 
ATOM      5  C   UNL     1       5.875   4.331  15.989  0.00  0.00    +0.000 A 
ATOM      6  C   UNL     1       5.540   3.658  14.803  0.00  0.00    +0.000 A 
ENDROOT
BRANCH   5   7
ATOM      7  C   UNL     1       5.156   4.043  17.286  0.00  0.00    +0.000 C 
ATOM      8  C   UNL     1       3.655   3.671  17.170  0.00  0.00    +0.000 C 
ATOM      9  C   UNL     1       2.994   4.573  18.215  0.00  0.00    +0.000 C 
ATOM     10  C   UNL     1       2.961   6.016  17.705  0.00  0.00    +0.000 C 
ATOM     11  C   UNL     1       4.420   6.450  17.853  0.00  0.00    +0.000 C 
ATOM     12  C   UNL     1       5.107   5.169  18.349  0.00  0.00    +0.000 C 
ATOM     13  N   UNL     1       4.053   4.630  19.237  0.00  0.00    +0.000 NA
ATOM     14  H   UNL     1       3.812   5.313  19.956  0.00  0.00    +0.000 HD
ENDBRANCH   5   7
BRANCH   1  16
ATOM     15  C   UNL     1       4.620   3.370  11.776  0.00  0.00    +0.000 C 
ATOM     16  C   UNL     1       5.836   3.295  12.334  0.00  0.00    +0.000 C 
ENDBRANCH   1  16
TORSDOF 2
ENDMDL
MODEL 7
REMARK VINA RESULT:      -6.6      1.260      1.353
REMARK  Name = 
REMARK  2 active torsions:
REMARK  status: ('A' for Active; 'I' for Inactive)
REMARK    1  A    between atoms: C_2  and  C_3
REMARK    2  A    between atoms: C_7  and  C_8
REMARK                            x       y       z     vdW  Elec       q    Type
REMARK                         _______ _______ _______ _____ _____    ______ ____
ROOT
ATOM      1  C   UNL     1       6.057   4.390  16.193  0.00  0.00    +0.000 A 
ATOM      2  C   UNL     1       6.713   4.641  17.392  0.00  0.00    +0.000 A 
ATOM      3  N   UNL     1       6.180   4.411  18.616  0.00  0.00    +0.000 NA
ATOM      4  C   UNL     1       4.925   3.914  18.647  0.00  0.00    +0.000 A 
ATOM      5  C   UNL     1       4.157   3.632  17.522  0.00  0.00    +0.000 A 
ATOM      6  C   UNL     1       4.777   3.837  16.280  0.00  0.00    +0.000 A 
ENDROOT
BRANCH   5   7
ATOM      7  C   UNL     1       2.767   3.050  17.621  0.00  0.00    +0.000 C 
ATOM      8  C   UNL     1       1.620   4.057  17.893  0.00  0.00    +0.000 C 
ATOM      9  C   UNL     1       0.847   3.400  19.039  0.00  0.00    +0.000 C 
ATOM     10  C   UNL     1       1.644   3.530  20.340  0.00  0.00    +0.000 C 
ATOM     11  C   UNL     1       2.763   2.507  20.144  0.00  0.00    +0.000 C 
ATOM     12  C   UNL     1       2.505   1.990  18.721  0.00  0.00    +0.000 C 
ATOM     13  N   UNL     1       1.025   1.976  18.708  0.00  0.00    +0.000 NA
ATOM     14  H   UNL     1       0.670   1.391  19.466  0.00  0.00    +0.000 HD
ENDBRANCH   5   7
BRANCH   1  16
ATOM     15  C   UNL     1       6.397   4.057  13.759  0.00  0.00    +0.000 C 
ATOM     16  C   UNL     1       6.713   4.669  14.909  0.00  0.00    +0.000 C 
ENDBRANCH   1  16
TORSDOF 2
ENDMDL
MODEL 8
REMARK VINA RESULT:      -6.6      1.054      1.252
REMARK  Name = 
REMARK  2 active torsions:
REMARK  status: ('A' for Active; 'I' for Inactive)
REMARK    1  A    between atoms: C_2  and  C_3
REMARK    2  A    between atoms: C_7  and  C_8
REMARK                            x       y       z     vdW  Elec       q    Type
REMARK                         _______ _______ _______ _____ _____    ______ ____
ROOT
ATOM      1  C   UNL     1       4.900   4.623  16.434  0.00  0.00    +0.000 A 
ATOM      2  C   UNL     1       5.206   5.967  16.612  0.00  0.00    +0.000 A 
ATOM      3  N   UNL     1       4.486   6.818  17.382  0.00  0.00    +0.000 NA
ATOM      4  C   UNL     1       3.401   6.305  18.001  0.00  0.00    +0.000 A 
ATOM      5  C   UNL     1       2.981   4.984  17.896  0.00  0.00    +0.000 A 
ATOM      6  C   UNL     1       3.792   4.133  17.130  0.00  0.00    +0.000 A 
ENDROOT
BRANCH   5   7
ATOM      7  C   UNL     1       1.772   4.462  18.636  0.00  0.00    +0.000 C 
ATOM      8  C   UNL     1       1.586   4.971  20.089  0.00  0.00    +0.000 C 
ATOM      9  C   UNL     1       1.322   3.685  20.876  0.00  0.00    +0.000 C 
ATOM     10  C   UNL     1       2.626   2.896  21.024  0.00  0.00    +0.000 C 
ATOM     11  C   UNL     1       2.824   2.322  19.621  0.00  0.00    +0.000 C 
ATOM     12  C   UNL     1       1.653   2.930  18.836  0.00  0.00    +0.000 C 
ATOM     13  N   UNL     1       0.594   2.893  19.870  0.00  0.00    +0.000 NA
ATOM     14  H   UNL     1       0.459   1.938  20.204  0.00  0.00    +0.000 HD
ENDBRANCH   5   7
BRANCH   1  16
ATOM     15  C   UNL     1       6.204   4.145  14.381  0.00  0.00    +0.000 C 
ATOM     16  C   UNL     1       5.738   3.772  15.580  0.00  0.00    +0.000 C 
ENDBRANCH   1  16
TORSDOF 2
ENDMDL
MODEL 9
REMARK VINA RESULT:      -6.6      1.840      5.520
REMARK  Name = 
REMARK  2 active torsions:
REMARK  status: ('A' for Active; 'I' for Inactive)
REMARK    1  A    between atoms: C_2  and  C_3
REMARK    2  A    between atoms: C_7  and  C_8
REMARK                            x       y       z     vdW  Elec       q    Type
REMARK                         _______ _______ _______ _____ _____    ______ ____
ROOT
ATOM      1  C   UNL     1       2.146   3.728  19.528  0.00  0.00    +0.000 A 
ATOM      2  C   UNL     1       1.481   3.435  18.344  0.00  0.00    +0.000 A 
ATOM      3  N   UNL     1       2.078   3.373  17.129  0.00  0.00    +0.000 NA
ATOM      4  C   UNL     1       3.404   3.625  17.091  0.00  0.00    +0.000 A 
ATOM      5  C   UNL     1       4.181   3.942  18.200  0.00  0.00    +0.000 A 
ATOM      6  C   UNL     1       3.524   3.939  19.440  0.00  0.00    +0.000 A 
ENDROOT
BRANCH   5   7
ATOM      7  C   UNL     1       5.668   4.186  18.098  0.00  0.00    +0.000 C 
ATOM      8  C   UNL     1       6.249   5.278  19.033  0.00  0.00    +0.000 C 
ATOM      9  C   UNL     1       7.102   6.127  18.086  0.00  0.00    +0.000 C 
ATOM     10  C   UNL     1       6.192   6.978  17.197  0.00  0.00    +0.000 C 
ATOM     11  C   UNL     1       5.634   5.948  16.214  0.00  0.00    +0.000 C 
ATOM     12  C   UNL     1       6.234   4.631  16.726  0.00  0.00    +0.000 C 
ATOM     13  N   UNL     1       7.575   5.096  17.146  0.00  0.00    +0.000 NA
ATOM     14  H   UNL     1       8.061   5.531  16.361  0.00  0.00    +0.000 HD
ENDBRANCH   5   7
BRANCH   1  16
ATOM     15  C   UNL     1       1.439   2.788  21.711  0.00  0.00    +0.000 C 
ATOM     16  C   UNL     1       1.418   3.773  20.802  0.00  0.00    +0.000 C 
ENDBRANCH   1  16
TORSDOF 2
ENDMDL
