MODEL 1
REMARK VINA RESULT:      -8.5      0.000      0.000
REMARK  Name = 
REMARK  4 active torsions:
REMARK  status: ('A' for Active; 'I' for Inactive)
REMARK    1  A    between atoms: C_1  and  C_2
REMARK    2  A    between atoms: C_2  and  N_3
REMARK    3  A    between atoms: C_2  and  C_16
REMARK    4  A    between atoms: N_3  and  C_4
REMARK                            x       y       z     vdW  Elec       q    Type
REMARK                         _______ _______ _______ _____ _____    ______ ____
ROOT
ATOM      1  N   UNL     1       3.763   6.300  18.236  0.00  0.00    +0.000 NA
ATOM      2  H   UNL     1       4.526   6.976  18.306  0.00  0.00    +0.000 HD
ENDROOT
BRANCH   1   3
ATOM      3  C   UNL     1       4.362   4.955  18.199  0.00  0.00    +0.000 C 
ATOM      4  C   UNL     1       5.264   4.611  19.407  0.00  0.00    +0.000 C 
ATOM      5  N   UNL     1       6.277   5.692  19.568  0.00  0.00    +0.000 NA
ATOM      6  S   UNL     1       7.470   5.610  18.366  0.00  0.00    +0.000 S 
ATOM      7  O   UNL     1       8.328   4.514  18.752  0.00  0.00    +0.000 OA
ATOM      8  O   UNL     1       7.973   6.952  18.180  0.00  0.00    +0.000 OA
ATOM      9  C   UNL     1       6.593   5.113  16.909  0.00  0.00    +0.000 A 
ATOM     10  C   UNL     1       7.350   4.964  15.740  0.00  0.00    +0.000 A 
ATOM     11  C   UNL     1       6.728   4.556  14.564  0.00  0.00    +0.000 A 
ATOM     12  C   UNL     1       5.355   4.315  14.553  0.00  0.00    +0.000 A 
ATOM     13  C   UNL     1       4.601   4.464  15.722  0.00  0.00    +0.000 A 
ATOM     14  C   UNL     1       5.211   4.844  16.928  0.00  0.00    +0.000 A 
ATOM     15  H   UNL     1       6.751   5.606  20.469  0.00  0.00    +0.000 HD
ENDBRANCH   1   3
BRANCH   1  17
ATOM     16  C   UNL     1       1.881   5.419  19.687  0.00  0.00    +0.000 C 
ATOM     17  C   UNL     1       2.783   6.606  19.294  0.00  0.00    +0.000 C 
BRANCH  17  18
ATOM     18  C   UNL     1       2.050   7.937  19.103  0.00  0.00    +0.000 A 
ATOM     19  C   UNL     1       1.998   8.518  17.819  0.00  0.00    +0.000 A 
ATOM     20  C   UNL     1       1.332   9.717  17.587  0.00  0.00    +0.000 A 
ATOM     21  C   UNL     1       0.693  10.364  18.635  0.00  0.00    +0.000 A 
ATOM     22  C   UNL     1       0.717   9.830  19.929  0.00  0.00    +0.000 A 
ATOM     23  C   UNL     1       0.048  10.513  20.959  0.00  0.00    +0.000 A 
ATOM     24  C   UNL     1       0.043  10.019  22.260  0.00  0.00    +0.000 A 
ATOM     25  C   UNL     1       0.719   8.844  22.548  0.00  0.00    +0.000 A 
ATOM     26  C   UNL     1       1.395   8.158  21.533  0.00  0.00    +0.000 A 
ATOM     27  C   UNL     1       1.407   8.615  20.190  0.00  0.00    +0.000 A 
ENDBRANCH  17  18
ENDBRANCH   1  17
TORSDOF 3
ENDMDL
MODEL 2
REMARK VINA RESULT:      -7.9      3.894      6.400
REMARK  Name = 
REMARK  4 active torsions:
REMARK  status: ('A' for Active; 'I' for Inactive)
REMARK    1  A    between atoms: C_1  and  C_2
REMARK    2  A    between atoms: C_2  and  N_3
REMARK    3  A    between atoms: C_2  and  C_16
REMARK    4  A    between atoms: N_3  and  C_4
REMARK                            x       y       z     vdW  Elec       q    Type
REMARK                         _______ _______ _______ _____ _____    ______ ____
ROOT
ATOM      1  N   UNL     1       1.744   3.768  17.423  0.00  0.00    +0.000 NA
ATOM      2  H   UNL     1       1.972   3.481  16.469  0.00  0.00    +0.000 HD
ENDROOT
BRANCH   1   3
ATOM      3  C   UNL     1       1.467   2.549  18.201  0.00  0.00    +0.000 C 
ATOM      4  C   UNL     1       0.300   2.670  19.208  0.00  0.00    +0.000 C 
ATOM      5  N   UNL     1       0.535   3.864  20.067  0.00  0.00    +0.000 NA
ATOM      6  S   UNL     1       1.774   3.589  21.192  0.00  0.00    +0.000 S 
ATOM      7  O   UNL     1       1.184   2.756  22.215  0.00  0.00    +0.000 OA
ATOM      8  O   UNL     1       2.365   4.873  21.492  0.00  0.00    +0.000 OA
ATOM      9  C   UNL     1       2.952   2.600  20.314  0.00  0.00    +0.000 A 
ATOM     10  C   UNL     1       4.101   2.216  21.017  0.00  0.00    +0.000 A 
ATOM     11  C   UNL     1       5.058   1.422  20.395  0.00  0.00    +0.000 A 
ATOM     12  C   UNL     1       4.876   1.026  19.070  0.00  0.00    +0.000 A 
ATOM     13  C   UNL     1       3.728   1.409  18.369  0.00  0.00    +0.000 A 
ATOM     14  C   UNL     1       2.732   2.185  18.985  0.00  0.00    +0.000 A 
ATOM     15  H   UNL     1      -0.308   4.094  20.598  0.00  0.00    +0.000 HD
ENDBRANCH   1   3
BRANCH   1  17
ATOM     16  C   UNL     1       2.349   6.136  18.096  0.00  0.00    +0.000 C 
ATOM     17  C   UNL     1       2.806   4.677  17.893  0.00  0.00    +0.000 C 
BRANCH  17  18
ATOM     18  C   UNL     1       4.140   4.516  17.158  0.00  0.00    +0.000 A 
ATOM     19  C   UNL     1       4.139   4.109  15.808  0.00  0.00    +0.000 A 
ATOM     20  C   UNL     1       5.320   3.963  15.090  0.00  0.00    +0.000 A 
ATOM     21  C   UNL     1       6.537   4.227  15.702  0.00  0.00    +0.000 A 
ATOM     22  C   UNL     1       6.593   4.630  17.041  0.00  0.00    +0.000 A 
ATOM     23  C   UNL     1       7.845   4.897  17.621  0.00  0.00    +0.000 A 
ATOM     24  C   UNL     1       7.949   5.303  18.947  0.00  0.00    +0.000 A 
ATOM     25  C   UNL     1       6.802   5.434  19.714  0.00  0.00    +0.000 A 
ATOM     26  C   UNL     1       5.549   5.164  19.152  0.00  0.00    +0.000 A 
ATOM     27  C   UNL     1       5.397   4.769  17.799  0.00  0.00    +0.000 A 
ENDBRANCH  17  18
ENDBRANCH   1  17
TORSDOF 3
ENDMDL
MODEL 3
REMARK VINA RESULT:      -7.7      2.657      3.767
REMARK  Name = 
REMARK  4 active torsions:
REMARK  status: ('A' for Active; 'I' for Inactive)
REMARK    1  A    between atoms: C_1  and  C_2
REMARK    2  A    between atoms: C_2  and  N_3
REMARK    3  A    between atoms: C_2  and  C_16
REMARK    4  A    between atoms: N_3  and  C_4
REMARK                            x       y       z     vdW  Elec       q    Type
REMARK                         _______ _______ _______ _____ _____    ______ ____
ROOT
ATOM      1  N   UNL     1       2.154   7.043  19.073  0.00  0.00    +0.000 NA
ATOM      2  H   UNL     1       1.524   6.521  19.687  0.00  0.00    +0.000 HD
ENDROOT
BRANCH   1   3
ATOM      3  C   UNL     1       2.487   6.174  17.932  0.00  0.00    +0.000 C 
ATOM      4  C   UNL     1       1.634   4.889  17.823  0.00  0.00    +0.000 C 
ATOM      5  N   UNL     1       1.680   4.174  19.129  0.00  0.00    +0.000 NA
ATOM      6  S   UNL     1       3.182   3.427  19.376  0.00  0.00    +0.000 S 
ATOM      7  O   UNL     1       3.167   2.250  18.537  0.00  0.00    +0.000 OA
ATOM      8  O   UNL     1       3.385   3.350  20.805  0.00  0.00    +0.000 OA
ATOM      9  C   UNL     1       4.356   4.558  18.684  0.00  0.00    +0.000 A 
ATOM     10  C   UNL     1       5.704   4.186  18.751  0.00  0.00    +0.000 A 
ATOM     11  C   UNL     1       6.678   5.019  18.208  0.00  0.00    +0.000 A 
ATOM     12  C   UNL     1       6.306   6.225  17.617  0.00  0.00    +0.000 A 
ATOM     13  C   UNL     1       4.959   6.596  17.549  0.00  0.00    +0.000 A 
ATOM     14  C   UNL     1       3.955   5.757  18.062  0.00  0.00    +0.000 A 
ATOM     15  H   UNL     1       0.970   3.440  19.159  0.00  0.00    +0.000 HD
ENDBRANCH   1   3
BRANCH   1  17
ATOM     16  C   UNL     1       2.388   9.279  17.903  0.00  0.00    +0.000 C 
ATOM     17  C   UNL     1       1.542   8.358  18.803  0.00  0.00    +0.000 C 
BRANCH  17  18
ATOM     18  C   UNL     1       0.943   9.036  20.038  0.00  0.00    +0.000 A 
ATOM     19  C   UNL     1       1.354   8.621  21.321  0.00  0.00    +0.000 A 
ATOM     20  C   UNL     1       0.854   9.214  22.475  0.00  0.00    +0.000 A 
ATOM     21  C   UNL     1      -0.068  10.246  22.376  0.00  0.00    +0.000 A 
ATOM     22  C   UNL     1      -0.512  10.693  21.126  0.00  0.00    +0.000 A 
ATOM     23  C   UNL     1      -1.439  11.748  21.070  0.00  0.00    +0.000 A 
ATOM     24  C   UNL     1      -1.906  12.227  19.850  0.00  0.00    +0.000 A 
ATOM     25  C   UNL     1      -1.461  11.648  18.673  0.00  0.00    +0.000 A 
ATOM     26  C   UNL     1      -0.544  10.592  18.714  0.00  0.00    +0.000 A 
ATOM     27  C   UNL     1      -0.026  10.088  19.934  0.00  0.00    +0.000 A 
ENDBRANCH  17  18
ENDBRANCH   1  17
TORSDOF 3
ENDMDL
MODEL 4
REMARK VINA RESULT:      -7.6      2.044      2.522
REMARK  Name = 
REMARK  4 active torsions:
REMARK  status: ('A' for Active; 'I' for Inactive)
REMARK    1  A    between atoms: C_1  and  C_2
REMARK    2  A    between atoms: C_2  and  N_3
REMARK    3  A    between atoms: C_2  and  C_16
REMARK    4  A    between atoms: N_3  and  C_4
REMARK                            x       y       z     vdW  Elec       q    Type
REMARK                         _______ _______ _______ _____ _____    ______ ____
ROOT
ATOM      1  N   UNL     1       2.984   6.349  19.691  0.00  0.00    +0.000 NA
ATOM      2  H   UNL     1       3.458   5.655  20.273  0.00  0.00    +0.000 HD
ENDROOT
BRANCH   1   3
ATOM      3  C   UNL     1       2.608   5.690  18.429  0.00  0.00    +0.000 C 
ATOM      4  C   UNL     1       1.887   4.332  18.593  0.00  0.00    +0.000 C 
ATOM      5  N   UNL     1       2.709   3.461  19.478  0.00  0.00    +0.000 NA
ATOM      6  S   UNL     1       4.090   2.887  18.679  0.00  0.00    +0.000 S 
ATOM      7  O   UNL     1       3.617   1.841  17.801  0.00  0.00    +0.000 OA
ATOM      8  O   UNL     1       5.094   2.647  19.690  0.00  0.00    +0.000 OA
ATOM      9  C   UNL     1       4.604   4.243  17.662  0.00  0.00    +0.000 A 
ATOM     10  C   UNL     1       5.745   4.042  16.875  0.00  0.00    +0.000 A 
ATOM     11  C   UNL     1       6.193   5.058  16.037  0.00  0.00    +0.000 A 
ATOM     12  C   UNL     1       5.513   6.275  15.999  0.00  0.00    +0.000 A 
ATOM     13  C   UNL     1       4.373   6.475  16.785  0.00  0.00    +0.000 A 
ATOM     14  C   UNL     1       3.884   5.453  17.615  0.00  0.00    +0.000 A 
ATOM     15  H   UNL     1       2.172   2.644  19.775  0.00  0.00    +0.000 HD
ENDBRANCH   1   3
BRANCH   1  17
ATOM     16  C   UNL     1       0.756   6.035  20.859  0.00  0.00    +0.000 C 
ATOM     17  C   UNL     1       1.924   6.976  20.502  0.00  0.00    +0.000 C 
BRANCH  17  18
ATOM     18  C   UNL     1       1.505   8.368  20.017  0.00  0.00    +0.000 A 
ATOM     19  C   UNL     1       1.822   8.765  18.702  0.00  0.00    +0.000 A 
ATOM     20  C   UNL     1       1.452  10.010  18.206  0.00  0.00    +0.000 A 
ATOM     21  C   UNL     1       0.746  10.891  19.014  0.00  0.00    +0.000 A 
ATOM     22  C   UNL     1       0.410  10.547  20.328  0.00  0.00    +0.000 A 
ATOM     23  C   UNL     1      -0.313  11.464  21.108  0.00  0.00    +0.000 A 
ATOM     24  C   UNL     1      -0.672  11.165  22.419  0.00  0.00    +0.000 A 
ATOM     25  C   UNL     1      -0.299   9.948  22.968  0.00  0.00    +0.000 A 
ATOM     26  C   UNL     1       0.428   9.028  22.205  0.00  0.00    +0.000 A 
ATOM     27  C   UNL     1       0.795   9.285  20.859  0.00  0.00    +0.000 A 
ENDBRANCH  17  18
ENDBRANCH   1  17
TORSDOF 3
ENDMDL
MODEL 5
REMARK VINA RESULT:      -7.5      1.933      2.572
REMARK  Name = 
REMARK  4 active torsions:
REMARK  status: ('A' for Active; 'I' for Inactive)
REMARK    1  A    between atoms: C_1  and  C_2
REMARK    2  A    between atoms: C_2  and  N_3
REMARK    3  A    between atoms: C_2  and  C_16
REMARK    4  A    between atoms: N_3  and  C_4
REMARK                            x       y       z     vdW  Elec       q    Type
REMARK                         _______ _______ _______ _____ _____    ______ ____
ROOT
ATOM      1  N   UNL     1       3.231   6.451  19.107  0.00  0.00    +0.000 NA
ATOM      2  H   UNL     1       3.693   7.248  18.664  0.00  0.00    +0.000 HD
ENDROOT
BRANCH   1   3
ATOM      3  C   UNL     1       4.278   5.504  19.525  0.00  0.00    +0.000 C 
ATOM      4  C   UNL     1       5.713   5.889  19.096  0.00  0.00    +0.000 C 
ATOM      5  N   UNL     1       5.718   6.149  17.629  0.00  0.00    +0.000 NA
ATOM      6  S   UNL     1       5.598   4.709  16.742  0.00  0.00    +0.000 S 
ATOM      7  O   UNL     1       6.909   4.105  16.812  0.00  0.00    +0.000 OA
ATOM      8  O   UNL     1       4.971   5.041  15.482  0.00  0.00    +0.000 OA
ATOM      9  C   UNL     1       4.494   3.699  17.690  0.00  0.00    +0.000 A 
ATOM     10  C   UNL     1       4.211   2.426  17.180  0.00  0.00    +0.000 A 
ATOM     11  C   UNL     1       3.368   1.572  17.884  0.00  0.00    +0.000 A 
ATOM     12  C   UNL     1       2.798   1.996  19.084  0.00  0.00    +0.000 A 
ATOM     13  C   UNL     1       3.082   3.268  19.593  0.00  0.00    +0.000 A 
ATOM     14  C   UNL     1       3.955   4.135  18.916  0.00  0.00    +0.000 A 
ATOM     15  H   UNL     1       6.590   6.603  17.349  0.00  0.00    +0.000 HD
ENDBRANCH   1   3
BRANCH   1  17
ATOM     16  C   UNL     1       1.355   5.913  20.725  0.00  0.00    +0.000 C 
ATOM     17  C   UNL     1       2.304   6.972  20.129  0.00  0.00    +0.000 C 
BRANCH  17  18
ATOM     18  C   UNL     1       1.636   8.297  19.752  0.00  0.00    +0.000 A 
ATOM     19  C   UNL     1       1.711   8.754  18.421  0.00  0.00    +0.000 A 
ATOM     20  C   UNL     1       1.109   9.941  18.021  0.00  0.00    +0.000 A 
ATOM     21  C   UNL     1       0.407  10.703  18.944  0.00  0.00    +0.000 A 
ATOM     22  C   UNL     1       0.305  10.296  20.280  0.00  0.00    +0.000 A 
ATOM     23  C   UNL     1      -0.423  11.091  21.181  0.00  0.00    +0.000 A 
ATOM     24  C   UNL     1      -0.553  10.726  22.517  0.00  0.00    +0.000 A 
ATOM     25  C   UNL     1       0.055   9.566  22.970  0.00  0.00    +0.000 A 
ATOM     26  C   UNL     1       0.789   8.768  22.086  0.00  0.00    +0.000 A 
ATOM     27  C   UNL     1       0.929   9.093  20.712  0.00  0.00    +0.000 A 
ENDBRANCH  17  18
ENDBRANCH   1  17
TORSDOF 3
ENDMDL
MODEL 6
REMARK VINA RESULT:      -7.4      5.252      8.092
REMARK  Name = 
REMARK  4 active torsions:
REMARK  status: ('A' for Active; 'I' for Inactive)
REMARK    1  A    between atoms: C_1  and  C_2
REMARK    2  A    between atoms: C_2  and  N_3
REMARK    3  A    between atoms: C_2  and  C_16
REMARK    4  A    between atoms: N_3  and  C_4
REMARK                            x       y       z     vdW  Elec       q    Type
REMARK                         _______ _______ _______ _____ _____    ______ ____
ROOT
ATOM      1  N   UNL     1      -0.182   9.278  20.569  0.00  0.00    +0.000 NA
ATOM      2  H   UNL     1      -0.631   9.697  21.386  0.00  0.00    +0.000 HD
ENDROOT
BRANCH   1   3
ATOM      3  C   UNL     1       0.132  10.363  19.626  0.00  0.00    +0.000 C 
ATOM      4  C   UNL     1       0.538  11.702  20.285  0.00  0.00    +0.000 C 
ATOM      5  N   UNL     1      -0.507  12.080  21.277  0.00  0.00    +0.000 NA
ATOM      6  S   UNL     1      -1.920  12.625  20.516  0.00  0.00    +0.000 S 
ATOM      7  O   UNL     1      -1.620  13.965  20.065  0.00  0.00    +0.000 OA
ATOM      8  O   UNL     1      -3.018  12.344  21.412  0.00  0.00    +0.000 OA
ATOM      9  C   UNL     1      -2.069  11.600  19.078  0.00  0.00    +0.000 A 
ATOM     10  C   UNL     1      -3.170  11.838  18.247  0.00  0.00    +0.000 A 
ATOM     11  C   UNL     1      -3.337  11.083  17.091  0.00  0.00    +0.000 A 
ATOM     12  C   UNL     1      -2.416  10.085  16.775  0.00  0.00    +0.000 A 
ATOM     13  C   UNL     1      -1.315   9.849  17.606  0.00  0.00    +0.000 A 
ATOM     14  C   UNL     1      -1.108  10.619  18.763  0.00  0.00    +0.000 A 
ATOM     15  H   UNL     1      -0.174  12.840  21.874  0.00  0.00    +0.000 HD
ENDBRANCH   1   3
BRANCH   1  17
ATOM     16  C   UNL     1       1.746   9.023  22.196  0.00  0.00    +0.000 C 
ATOM     17  C   UNL     1       0.918   8.418  21.045  0.00  0.00    +0.000 C 
BRANCH  17  18
ATOM     18  C   UNL     1       1.743   7.779  19.924  0.00  0.00    +0.000 A 
ATOM     19  C   UNL     1       2.155   8.570  18.833  0.00  0.00    +0.000 A 
ATOM     20  C   UNL     1       2.919   8.045  17.797  0.00  0.00    +0.000 A 
ATOM     21  C   UNL     1       3.299   6.711  17.829  0.00  0.00    +0.000 A 
ATOM     22  C   UNL     1       2.914   5.881  18.889  0.00  0.00    +0.000 A 
ATOM     23  C   UNL     1       3.328   4.538  18.888  0.00  0.00    +0.000 A 
ATOM     24  C   UNL     1       2.971   3.677  19.920  0.00  0.00    +0.000 A 
ATOM     25  C   UNL     1       2.185   4.146  20.960  0.00  0.00    +0.000 A 
ATOM     26  C   UNL     1       1.759   5.479  20.970  0.00  0.00    +0.000 A 
ATOM     27  C   UNL     1       2.117   6.395  19.949  0.00  0.00    +0.000 A 
ENDBRANCH  17  18
ENDBRANCH   1  17
TORSDOF 3
ENDMDL
MODEL 7
REMARK VINA RESULT:      -7.3      6.461      9.131
REMARK  Name = 
REMARK  4 active torsions:
REMARK  status: ('A' for Active; 'I' for Inactive)
REMARK    1  A    between atoms: C_1  and  C_2
REMARK    2  A    between atoms: C_2  and  N_3
REMARK    3  A    between atoms: C_2  and  C_16
REMARK    4  A    between atoms: N_3  and  C_4
REMARK                            x       y       z     vdW  Elec       q    Type
REMARK                         _______ _______ _______ _____ _____    ______ ____
ROOT
ATOM      1  N   UNL     1      -0.839  13.193  18.292  0.00  0.00    +0.000 NA
ATOM      2  H   UNL     1      -1.670  13.778  18.187  0.00  0.00    +0.000 HD
ENDROOT
BRANCH   1   3
ATOM      3  C   UNL     1      -0.056  13.727  19.419  0.00  0.00    +0.000 C 
ATOM      4  C   UNL     1      -0.785  14.794  20.269  0.00  0.00    +0.000 C 
ATOM      5  N   UNL     1      -1.295  15.859  19.361  0.00  0.00    +0.000 NA
ATOM      6  S   UNL     1      -0.039  16.846  18.792  0.00  0.00    +0.000 S 
ATOM      7  O   UNL     1       0.299  17.712  19.898  0.00  0.00    +0.000 OA
ATOM      8  O   UNL     1      -0.459  17.364  17.510  0.00  0.00    +0.000 OA
ATOM      9  C   UNL     1       1.319  15.734  18.551  0.00  0.00    +0.000 A 
ATOM     10  C   UNL     1       2.512  16.292  18.076  0.00  0.00    +0.000 A 
ATOM     11  C   UNL     1       3.625  15.479  17.884  0.00  0.00    +0.000 A 
ATOM     12  C   UNL     1       3.539  14.113  18.149  0.00  0.00    +0.000 A 
ATOM     13  C   UNL     1       2.347  13.557  18.624  0.00  0.00    +0.000 A 
ATOM     14  C   UNL     1       1.220  14.362  18.856  0.00  0.00    +0.000 A 
ATOM     15  H   UNL     1      -1.953  16.465  19.856  0.00  0.00    +0.000 HD
ENDBRANCH   1   3
BRANCH   1  17
ATOM     16  C   UNL     1      -2.791  11.583  18.151  0.00  0.00    +0.000 C 
ATOM     17  C   UNL     1      -1.275  11.785  18.342  0.00  0.00    +0.000 C 
BRANCH  17  18
ATOM     18  C   UNL     1      -0.656  10.977  19.486  0.00  0.00    +0.000 A 
ATOM     19  C   UNL     1      -1.072  11.226  20.810  0.00  0.00    +0.000 A 
ATOM     20  C   UNL     1      -0.555  10.510  21.884  0.00  0.00    +0.000 A 
ATOM     21  C   UNL     1       0.391   9.519  21.661  0.00  0.00    +0.000 A 
ATOM     22  C   UNL     1       0.840   9.236  20.366  0.00  0.00    +0.000 A 
ATOM     23  C   UNL     1       1.791   8.218  20.183  0.00  0.00    +0.000 A 
ATOM     24  C   UNL     1       2.265   7.900  18.914  0.00  0.00    +0.000 A 
ATOM     25  C   UNL     1       1.802   8.605  17.815  0.00  0.00    +0.000 A 
ATOM     26  C   UNL     1       0.861   9.626  17.983  0.00  0.00    +0.000 A 
ATOM     27  C   UNL     1       0.336   9.968  19.256  0.00  0.00    +0.000 A 
ENDBRANCH  17  18
ENDBRANCH   1  17
TORSDOF 3
ENDMDL
MODEL 8
REMARK VINA RESULT:      -7.3      8.550     11.492
REMARK  Name = 
REMARK  4 active torsions:
REMARK  status: ('A' for Active; 'I' for Inactive)
REMARK    1  A    between atoms: C_1  and  C_2
REMARK    2  A    between atoms: C_2  and  N_3
REMARK    3  A    between atoms: C_2  and  C_16
REMARK    4  A    between atoms: N_3  and  C_4
REMARK                            x       y       z     vdW  Elec       q    Type
REMARK                         _______ _______ _______ _____ _____    ______ ____
ROOT
ATOM      1  N   UNL     1      -2.793  13.509  23.475  0.00  0.00    +0.000 NA
ATOM      2  H   UNL     1      -3.069  13.646  24.449  0.00  0.00    +0.000 HD
ENDROOT
BRANCH   1   3
ATOM      3  C   UNL     1      -3.666  14.352  22.641  0.00  0.00    +0.000 C 
ATOM      4  C   UNL     1      -4.739  15.147  23.420  0.00  0.00    +0.000 C 
ATOM      5  N   UNL     1      -5.500  14.201  24.283  0.00  0.00    +0.000 NA
ATOM      6  S   UNL     1      -6.554  13.237  23.370  0.00  0.00    +0.000 S 
ATOM      7  O   UNL     1      -7.667  14.096  23.036  0.00  0.00    +0.000 OA
ATOM      8  O   UNL     1      -6.729  11.999  24.095  0.00  0.00    +0.000 OA
ATOM      9  C   UNL     1      -5.666  12.910  21.872  0.00  0.00    +0.000 A 
ATOM     10  C   UNL     1      -6.314  12.120  20.916  0.00  0.00    +0.000 A 
ATOM     11  C   UNL     1      -5.682  11.841  19.708  0.00  0.00    +0.000 A 
ATOM     12  C   UNL     1      -4.401  12.336  19.465  0.00  0.00    +0.000 A 
ATOM     13  C   UNL     1      -3.755  13.127  20.422  0.00  0.00    +0.000 A 
ATOM     14  C   UNL     1      -4.385  13.448  21.635  0.00  0.00    +0.000 A 
ATOM     15  H   UNL     1      -6.070  14.713  24.959  0.00  0.00    +0.000 HD
ENDBRANCH   1   3
BRANCH   1  17
ATOM     16  C   UNL     1      -0.858  15.131  23.695  0.00  0.00    +0.000 C 
ATOM     17  C   UNL     1      -1.334  13.698  23.383  0.00  0.00    +0.000 C 
BRANCH  17  18
ATOM     18  C   UNL     1      -0.696  13.063  22.144  0.00  0.00    +0.000 A 
ATOM     19  C   UNL     1      -0.305  13.887  21.069  0.00  0.00    +0.000 A 
ATOM     20  C   UNL     1       0.293  13.365  19.928  0.00  0.00    +0.000 A 
ATOM     21  C   UNL     1       0.523  11.999  19.834  0.00  0.00    +0.000 A 
ATOM     22  C   UNL     1       0.150  11.137  20.871  0.00  0.00    +0.000 A 
ATOM     23  C   UNL     1       0.410   9.762  20.740  0.00  0.00    +0.000 A 
ATOM     24  C   UNL     1       0.059   8.867  21.747  0.00  0.00    +0.000 A 
ATOM     25  C   UNL     1      -0.567   9.336  22.890  0.00  0.00    +0.000 A 
ATOM     26  C   UNL     1      -0.838  10.701  23.031  0.00  0.00    +0.000 A 
ATOM     27  C   UNL     1      -0.478  11.649  22.039  0.00  0.00    +0.000 A 
ENDBRANCH  17  18
ENDBRANCH   1  17
TORSDOF 3
ENDMDL
MODEL 9
REMARK VINA RESULT:      -7.3      2.593      4.452
REMARK  Name = 
REMARK  4 active torsions:
REMARK  status: ('A' for Active; 'I' for Inactive)
REMARK    1  A    between atoms: C_1  and  C_2
REMARK    2  A    between atoms: C_2  and  N_3
REMARK    3  A    between atoms: C_2  and  C_16
REMARK    4  A    between atoms: N_3  and  C_4
REMARK                            x       y       z     vdW  Elec       q    Type
REMARK                         _______ _______ _______ _____ _____    ______ ____
ROOT
ATOM      1  N   UNL     1       1.849   6.797  18.532  0.00  0.00    +0.000 NA
ATOM      2  H   UNL     1       1.778   6.423  17.583  0.00  0.00    +0.000 HD
ENDROOT
BRANCH   1   3
ATOM      3  C   UNL     1       3.068   6.239  19.141  0.00  0.00    +0.000 C 
ATOM      4  C   UNL     1       4.238   6.005  18.157  0.00  0.00    +0.000 C 
ATOM      5  N   UNL     1       3.741   5.195  17.010  0.00  0.00    +0.000 NA
ATOM      6  S   UNL     1       3.491   3.577  17.453  0.00  0.00    +0.000 S 
ATOM      7  O   UNL     1       4.810   2.990  17.517  0.00  0.00    +0.000 OA
ATOM      8  O   UNL     1       2.459   3.057  16.585  0.00  0.00    +0.000 OA
ATOM      9  C   UNL     1       2.866   3.665  19.108  0.00  0.00    +0.000 A 
ATOM     10  C   UNL     1       2.568   2.448  19.733  0.00  0.00    +0.000 A 
ATOM     11  C   UNL     1       2.092   2.443  21.041  0.00  0.00    +0.000 A 
ATOM     12  C   UNL     1       1.900   3.649  21.713  0.00  0.00    +0.000 A 
ATOM     13  C   UNL     1       2.200   4.864  21.087  0.00  0.00    +0.000 A 
ATOM     14  C   UNL     1       2.710   4.894  19.779  0.00  0.00    +0.000 A 
ATOM     15  H   UNL     1       4.423   5.197  16.249  0.00  0.00    +0.000 HD
ENDBRANCH   1   3
BRANCH   1  17
ATOM     16  C   UNL     1       2.935   8.992  17.876  0.00  0.00    +0.000 C 
ATOM     17  C   UNL     1       1.707   8.263  18.456  0.00  0.00    +0.000 C 
BRANCH  17  18
ATOM     18  C   UNL     1       1.115   8.901  19.717  0.00  0.00    +0.000 A 
ATOM     19  C   UNL     1       1.530   8.441  20.983  0.00  0.00    +0.000 A 
ATOM     20  C   UNL     1       1.038   8.995  22.159  0.00  0.00    +0.000 A 
ATOM     21  C   UNL     1       0.118  10.033  22.100  0.00  0.00    +0.000 A 
ATOM     22  C   UNL     1      -0.329  10.524  20.867  0.00  0.00    +0.000 A 
ATOM     23  C   UNL     1      -1.253  11.583  20.851  0.00  0.00    +0.000 A 
ATOM     24  C   UNL     1      -1.724  12.105  19.651  0.00  0.00    +0.000 A 
ATOM     25  C   UNL     1      -1.286  11.566  18.452  0.00  0.00    +0.000 A 
ATOM     26  C   UNL     1      -0.371  10.506  18.453  0.00  0.00    +0.000 A 
ATOM     27  C   UNL     1       0.150   9.959  19.653  0.00  0.00    +0.000 A 
ENDBRANCH  17  18
ENDBRANCH   1  17
TORSDOF 3
ENDMDL
