MODEL 1
REMARK VINA RESULT:      -7.7      0.000      0.000
REMARK  Name = 
REMARK  3 active torsions:
REMARK  status: ('A' for Active; 'I' for Inactive)
REMARK    1  A    between atoms: N_4  and  C_5
REMARK    2  A    between atoms: C_5  and  C_6
REMARK    3  A    between atoms: C_6  and  N_7
REMARK                            x       y       z     vdW  Elec       q    Type
REMARK                         _______ _______ _______ _____ _____    ______ ____
ROOT
ATOM      1  N   UNL     1       3.447   4.149  18.683  0.00  0.00    +0.000 N 
ATOM      2  C   UNL     1       2.661   3.411  17.700  0.00  0.00    +0.000 C 
ATOM      3  C   UNL     1       1.333   2.839  18.269  0.00  0.00    +0.000 C 
ATOM      4  C   UNL     1       0.663   3.448  19.533  0.00  0.00    +0.000 C 
ATOM      5  C   UNL     1       1.527   3.255  20.820  0.00  0.00    +0.000 C 
ATOM      6  C   UNL     1       2.285   4.499  21.364  0.00  0.00    +0.000 C 
ATOM      7  C   UNL     1       2.380   5.618  20.360  0.00  0.00    +0.000 A 
ATOM      8  C   UNL     1       1.795   6.859  20.681  0.00  0.00    +0.000 A 
ATOM      9  C   UNL     1       1.715   7.874  19.732  0.00  0.00    +0.000 A 
ATOM     10  C   UNL     1       2.207   7.664  18.447  0.00  0.00    +0.000 A 
ATOM     11  C   UNL     1       2.804   6.443  18.116  0.00  0.00    +0.000 A 
ATOM     12  C   UNL     1       2.916   5.417  19.073  0.00  0.00    +0.000 A 
ENDROOT
BRANCH   1  13
ATOM     13  C   UNL     1       4.764   3.750  19.202  0.00  0.00    +0.000 C 
BRANCH  13  14
ATOM     14  C   UNL     1       5.892   4.794  19.114  0.00  0.00    +0.000 C 
BRANCH  14  18
ATOM     15  N   UNL     1       8.159   4.114  17.558  0.00  0.00    +0.000 NA
ATOM     16  C   UNL     1       7.279   4.880  17.024  0.00  0.00    +0.000 C 
ATOM     17  N   UNL     1       7.452   5.336  15.691  0.00  0.00    +0.000 N 
ATOM     18  N   UNL     1       6.121   5.270  17.761  0.00  0.00    +0.000 N 
ATOM     19  H   UNL     1       9.006   3.818  17.048  0.00  0.00    +0.000 HD
ATOM     20  H   UNL     1       8.276   5.052  15.141  0.00  0.00    +0.000 HD
ATOM     21  H   UNL     1       6.743   5.940  15.250  0.00  0.00    +0.000 HD
ATOM     22  H   UNL     1       5.431   5.892  17.313  0.00  0.00    +0.000 HD
ENDBRANCH  14  18
ENDBRANCH  13  14
ENDBRANCH   1  13
TORSDOF 3
ENDMDL
MODEL 2
REMARK VINA RESULT:      -7.6      1.348      1.574
REMARK  Name = 
REMARK  3 active torsions:
REMARK  status: ('A' for Active; 'I' for Inactive)
REMARK    1  A    between atoms: N_4  and  C_5
REMARK    2  A    between atoms: C_5  and  C_6
REMARK    3  A    between atoms: C_6  and  N_7
REMARK                            x       y       z     vdW  Elec       q    Type
REMARK                         _______ _______ _______ _____ _____    ______ ____
ROOT
ATOM      1  N   UNL     1       4.281   4.826  18.285  0.00  0.00    +0.000 N 
ATOM      2  C   UNL     1       3.858   4.076  17.107  0.00  0.00    +0.000 C 
ATOM      3  C   UNL     1       2.482   3.375  17.277  0.00  0.00    +0.000 C 
ATOM      4  C   UNL     1       1.444   3.870  18.323  0.00  0.00    +0.000 C 
ATOM      5  C   UNL     1       1.941   3.686  19.793  0.00  0.00    +0.000 C 
ATOM      6  C   UNL     1       2.410   4.958  20.553  0.00  0.00    +0.000 C 
ATOM      7  C   UNL     1       2.675   6.127  19.640  0.00  0.00    +0.000 A 
ATOM      8  C   UNL     1       1.918   7.302  19.817  0.00  0.00    +0.000 A 
ATOM      9  C   UNL     1       2.009   8.351  18.907  0.00  0.00    +0.000 A 
ATOM     10  C   UNL     1       2.846   8.240  17.801  0.00  0.00    +0.000 A 
ATOM     11  C   UNL     1       3.616   7.087  17.618  0.00  0.00    +0.000 A 
ATOM     12  C   UNL     1       3.555   6.029  18.545  0.00  0.00    +0.000 A 
ENDROOT
BRANCH   1  13
ATOM     13  C   UNL     1       5.438   4.507  19.135  0.00  0.00    +0.000 C 
BRANCH  13  14
ATOM     14  C   UNL     1       6.834   4.760  18.534  0.00  0.00    +0.000 C 
BRANCH  14  18
ATOM     15  N   UNL     1       7.297   6.273  16.186  0.00  0.00    +0.000 NA
ATOM     16  C   UNL     1       7.413   6.874  17.312  0.00  0.00    +0.000 C 
ATOM     17  N   UNL     1       7.741   8.254  17.349  0.00  0.00    +0.000 N 
ATOM     18  N   UNL     1       7.206   6.163  18.532  0.00  0.00    +0.000 N 
ATOM     19  H   UNL     1       7.442   6.762  15.288  0.00  0.00    +0.000 HD
ATOM     20  H   UNL     1       7.881   8.785  16.476  0.00  0.00    +0.000 HD
ATOM     21  H   UNL     1       7.823   8.747  18.249  0.00  0.00    +0.000 HD
ATOM     22  H   UNL     1       7.312   6.666  19.426  0.00  0.00    +0.000 HD
ENDBRANCH  14  18
ENDBRANCH  13  14
ENDBRANCH   1  13
TORSDOF 3
ENDMDL
MODEL 3
REMARK VINA RESULT:      -7.3      0.939      1.111
REMARK  Name = 
REMARK  3 active torsions:
REMARK  status: ('A' for Active; 'I' for Inactive)
REMARK    1  A    between atoms: N_4  and  C_5
REMARK    2  A    between atoms: C_5  and  C_6
REMARK    3  A    between atoms: C_6  and  N_7
REMARK                            x       y       z     vdW  Elec       q    Type
REMARK                         _______ _______ _______ _____ _____    ______ ____
ROOT
ATOM      1  N   UNL     1       3.465   4.314  18.421  0.00  0.00    +0.000 N 
ATOM      2  C   UNL     1       2.607   3.548  17.523  0.00  0.00    +0.000 C 
ATOM      3  C   UNL     1       1.340   2.972  18.213  0.00  0.00    +0.000 C 
ATOM      4  C   UNL     1       0.772   3.599  19.518  0.00  0.00    +0.000 C 
ATOM      5  C   UNL     1       1.745   3.442  20.730  0.00  0.00    +0.000 C 
ATOM      6  C   UNL     1       2.530   4.704  21.184  0.00  0.00    +0.000 C 
ATOM      7  C   UNL     1       2.525   5.804  20.155  0.00  0.00    +0.000 A 
ATOM      8  C   UNL     1       1.953   7.045  20.500  0.00  0.00    +0.000 A 
ATOM      9  C   UNL     1       1.781   8.039  19.543  0.00  0.00    +0.000 A 
ATOM     10  C   UNL     1       2.164   7.809  18.225  0.00  0.00    +0.000 A 
ATOM     11  C   UNL     1       2.746   6.589  17.868  0.00  0.00    +0.000 A 
ATOM     12  C   UNL     1       2.952   5.584  18.831  0.00  0.00    +0.000 A 
ENDROOT
BRANCH   1  13
ATOM     13  C   UNL     1       4.826   3.940  18.834  0.00  0.00    +0.000 C 
BRANCH  13  14
ATOM     14  C   UNL     1       5.975   4.353  17.896  0.00  0.00    +0.000 C 
BRANCH  14  18
ATOM     15  N   UNL     1       7.233   5.405  15.587  0.00  0.00    +0.000 NA
ATOM     16  C   UNL     1       6.538   4.336  15.450  0.00  0.00    +0.000 C 
ATOM     17  N   UNL     1       6.441   3.712  14.179  0.00  0.00    +0.000 N 
ATOM     18  N   UNL     1       5.869   3.764  16.573  0.00  0.00    +0.000 N 
ATOM     19  H   UNL     1       7.727   5.841  14.792  0.00  0.00    +0.000 HD
ATOM     20  H   UNL     1       6.930   4.105  13.361  0.00  0.00    +0.000 HD
ATOM     21  H   UNL     1       5.896   2.845  14.064  0.00  0.00    +0.000 HD
ATOM     22  H   UNL     1       5.311   2.908  16.437  0.00  0.00    +0.000 HD
ENDBRANCH  14  18
ENDBRANCH  13  14
ENDBRANCH   1  13
TORSDOF 3
ENDMDL
MODEL 4
REMARK VINA RESULT:      -7.2      1.301      1.388
REMARK  Name = 
REMARK  3 active torsions:
REMARK  status: ('A' for Active; 'I' for Inactive)
REMARK    1  A    between atoms: N_4  and  C_5
REMARK    2  A    between atoms: C_5  and  C_6
REMARK    3  A    between atoms: C_6  and  N_7
REMARK                            x       y       z     vdW  Elec       q    Type
REMARK                         _______ _______ _______ _____ _____    ______ ____
ROOT
ATOM      1  N   UNL     1       3.772   4.629  18.459  0.00  0.00    +0.000 N 
ATOM      2  C   UNL     1       3.115   3.868  17.402  0.00  0.00    +0.000 C 
ATOM      3  C   UNL     1       1.797   3.182  17.857  0.00  0.00    +0.000 C 
ATOM      4  C   UNL     1       0.996   3.700  19.084  0.00  0.00    +0.000 C 
ATOM      5  C   UNL     1       1.778   3.530  20.425  0.00  0.00    +0.000 C 
ATOM      6  C   UNL     1       2.400   4.807  21.057  0.00  0.00    +0.000 C 
ATOM      7  C   UNL     1       2.482   5.962  20.092  0.00  0.00    +0.000 A 
ATOM      8  C   UNL     1       1.784   7.146  20.402  0.00  0.00    +0.000 A 
ATOM      9  C   UNL     1       1.696   8.182  19.477  0.00  0.00    +0.000 A 
ATOM     10  C   UNL     1       2.292   8.050  18.227  0.00  0.00    +0.000 A 
ATOM     11  C   UNL     1       3.000   6.888  17.908  0.00  0.00    +0.000 A 
ATOM     12  C   UNL     1       3.121   5.842  18.843  0.00  0.00    +0.000 A 
ENDROOT
BRANCH   1  13
ATOM     13  C   UNL     1       5.075   4.311  19.062  0.00  0.00    +0.000 C 
BRANCH  13  14
ATOM     14  C   UNL     1       6.307   4.393  18.141  0.00  0.00    +0.000 C 
BRANCH  14  18
ATOM     15  N   UNL     1       8.288   5.365  19.915  0.00  0.00    +0.000 NA
ATOM     16  C   UNL     1       7.882   6.153  18.988  0.00  0.00    +0.000 C 
ATOM     17  N   UNL     1       8.441   7.452  18.867  0.00  0.00    +0.000 N 
ATOM     18  N   UNL     1       6.876   5.727  18.070  0.00  0.00    +0.000 N 
ATOM     19  H   UNL     1       9.014   5.648  20.593  0.00  0.00    +0.000 HD
ATOM     20  H   UNL     1       9.178   7.770  19.514  0.00  0.00    +0.000 HD
ATOM     21  H   UNL     1       8.129   8.086  18.117  0.00  0.00    +0.000 HD
ATOM     22  H   UNL     1       6.560   6.381  17.338  0.00  0.00    +0.000 HD
ENDBRANCH  14  18
ENDBRANCH  13  14
ENDBRANCH   1  13
TORSDOF 3
ENDMDL
MODEL 5
REMARK VINA RESULT:      -7.2      2.164      5.464
REMARK  Name = 
REMARK  3 active torsions:
REMARK  status: ('A' for Active; 'I' for Inactive)
REMARK    1  A    between atoms: N_4  and  C_5
REMARK    2  A    between atoms: C_5  and  C_6
REMARK    3  A    between atoms: C_6  and  N_7
REMARK                            x       y       z     vdW  Elec       q    Type
REMARK                         _______ _______ _______ _____ _____    ______ ____
ROOT
ATOM      1  N   UNL     1       4.262   4.929  18.015  0.00  0.00    +0.000 N 
ATOM      2  C   UNL     1       4.347   3.493  17.771  0.00  0.00    +0.000 C 
ATOM      3  C   UNL     1       4.935   3.132  16.379  0.00  0.00    +0.000 C 
ATOM      4  C   UNL     1       5.835   4.129  15.597  0.00  0.00    +0.000 C 
ATOM      5  C   UNL     1       5.063   5.414  15.156  0.00  0.00    +0.000 C 
ATOM      6  C   UNL     1       5.343   6.722  15.947  0.00  0.00    +0.000 C 
ATOM      7  C   UNL     1       6.035   6.479  17.264  0.00  0.00    +0.000 A 
ATOM      8  C   UNL     1       7.303   7.055  17.473  0.00  0.00    +0.000 A 
ATOM      9  C   UNL     1       8.052   6.736  18.601  0.00  0.00    +0.000 A 
ATOM     10  C   UNL     1       7.553   5.830  19.532  0.00  0.00    +0.000 A 
ATOM     11  C   UNL     1       6.290   5.261  19.348  0.00  0.00    +0.000 A 
ATOM     12  C   UNL     1       5.509   5.595  18.226  0.00  0.00    +0.000 A 
ENDROOT
BRANCH   1  13
ATOM     13  C   UNL     1       3.020   5.701  18.170  0.00  0.00    +0.000 C 
BRANCH  13  14
ATOM     14  C   UNL     1       2.636   6.123  19.600  0.00  0.00    +0.000 C 
BRANCH  14  18
ATOM     15  N   UNL     1       0.737   4.195  20.433  0.00  0.00    +0.000 NA
ATOM     16  C   UNL     1       1.907   4.141  20.956  0.00  0.00    +0.000 C 
ATOM     17  N   UNL     1       2.216   3.126  21.898  0.00  0.00    +0.000 N 
ATOM     18  N   UNL     1       2.904   5.093  20.587  0.00  0.00    +0.000 N 
ATOM     19  H   UNL     1      -0.004   3.520  20.682  0.00  0.00    +0.000 HD
ATOM     20  H   UNL     1       1.511   2.423  22.164  0.00  0.00    +0.000 HD
ATOM     21  H   UNL     1       3.158   3.067  22.312  0.00  0.00    +0.000 HD
ATOM     22  H   UNL     1       3.836   5.033  21.026  0.00  0.00    +0.000 HD
ENDBRANCH  14  18
ENDBRANCH  13  14
ENDBRANCH   1  13
TORSDOF 3
ENDMDL
MODEL 6
REMARK VINA RESULT:      -7.1      1.045      1.230
REMARK  Name = 
REMARK  3 active torsions:
REMARK  status: ('A' for Active; 'I' for Inactive)
REMARK    1  A    between atoms: N_4  and  C_5
REMARK    2  A    between atoms: C_5  and  C_6
REMARK    3  A    between atoms: C_6  and  N_7
REMARK                            x       y       z     vdW  Elec       q    Type
REMARK                         _______ _______ _______ _____ _____    ______ ____
ROOT
ATOM      1  N   UNL     1       3.172   3.763  18.615  0.00  0.00    +0.000 N 
ATOM      2  C   UNL     1       2.202   3.014  17.823  0.00  0.00    +0.000 C 
ATOM      3  C   UNL     1       0.952   2.566  18.631  0.00  0.00    +0.000 C 
ATOM      4  C   UNL     1       0.524   3.299  19.933  0.00  0.00    +0.000 C 
ATOM      5  C   UNL     1       1.569   3.138  21.083  0.00  0.00    +0.000 C 
ATOM      6  C   UNL     1       2.468   4.363  21.409  0.00  0.00    +0.000 C 
ATOM      7  C   UNL     1       2.462   5.405  20.320  0.00  0.00    +0.000 A 
ATOM      8  C   UNL     1       2.002   6.699  20.632  0.00  0.00    +0.000 A 
ATOM      9  C   UNL     1       1.827   7.652  19.633  0.00  0.00    +0.000 A 
ATOM     10  C   UNL     1       2.098   7.326  18.308  0.00  0.00    +0.000 A 
ATOM     11  C   UNL     1       2.569   6.051  17.982  0.00  0.00    +0.000 A 
ATOM     12  C   UNL     1       2.777   5.085  18.985  0.00  0.00    +0.000 A 
ENDROOT
BRANCH   1  13
ATOM     13  C   UNL     1       4.531   3.315  18.954  0.00  0.00    +0.000 C 
BRANCH  13  14
ATOM     14  C   UNL     1       5.690   3.952  18.164  0.00  0.00    +0.000 C 
BRANCH  14  18
ATOM     15  N   UNL     1       7.524   5.864  17.165  0.00  0.00    +0.000 NA
ATOM     16  C   UNL     1       7.479   5.691  18.435  0.00  0.00    +0.000 C 
ATOM     17  N   UNL     1       8.313   6.462  19.285  0.00  0.00    +0.000 N 
ATOM     18  N   UNL     1       6.585   4.733  18.999  0.00  0.00    +0.000 N 
ATOM     19  H   UNL     1       8.161   6.550  16.729  0.00  0.00    +0.000 HD
ATOM     20  H   UNL     1       8.954   7.168  18.894  0.00  0.00    +0.000 HD
ATOM     21  H   UNL     1       8.273   6.339  20.307  0.00  0.00    +0.000 HD
ATOM     22  H   UNL     1       6.571   4.607  20.023  0.00  0.00    +0.000 HD
ENDBRANCH  14  18
ENDBRANCH  13  14
ENDBRANCH   1  13
TORSDOF 3
ENDMDL
MODEL 7
REMARK VINA RESULT:      -7.0      2.295      5.176
REMARK  Name = 
REMARK  3 active torsions:
REMARK  status: ('A' for Active; 'I' for Inactive)
REMARK    1  A    between atoms: N_4  and  C_5
REMARK    2  A    between atoms: C_5  and  C_6
REMARK    3  A    between atoms: C_6  and  N_7
REMARK                            x       y       z     vdW  Elec       q    Type
REMARK                         _______ _______ _______ _____ _____    ______ ____
ROOT
ATOM      1  N   UNL     1       3.618   3.433  17.318  0.00  0.00    +0.000 N 
ATOM      2  C   UNL     1       2.398   4.206  17.115  0.00  0.00    +0.000 C 
ATOM      3  C   UNL     1       2.331   5.500  17.973  0.00  0.00    +0.000 C 
ATOM      4  C   UNL     1       3.618   6.171  18.529  0.00  0.00    +0.000 C 
ATOM      5  C   UNL     1       4.354   5.277  19.577  0.00  0.00    +0.000 C 
ATOM      6  C   UNL     1       5.655   4.561  19.119  0.00  0.00    +0.000 C 
ATOM      7  C   UNL     1       5.813   4.528  17.620  0.00  0.00    +0.000 A 
ATOM      8  C   UNL     1       6.938   5.157  17.050  0.00  0.00    +0.000 A 
ATOM      9  C   UNL     1       7.052   5.294  15.670  0.00  0.00    +0.000 A 
ATOM     10  C   UNL     1       6.044   4.817  14.839  0.00  0.00    +0.000 A 
ATOM     11  C   UNL     1       4.928   4.177  15.387  0.00  0.00    +0.000 A 
ATOM     12  C   UNL     1       4.811   4.007  16.779  0.00  0.00    +0.000 A 
ENDROOT
BRANCH   1  13
ATOM     13  C   UNL     1       3.694   2.092  17.918  0.00  0.00    +0.000 C 
BRANCH  13  14
ATOM     14  C   UNL     1       2.563   1.698  18.886  0.00  0.00    +0.000 C 
BRANCH  14  18
ATOM     15  N   UNL     1       0.680   3.162  20.412  0.00  0.00    +0.000 NA
ATOM     16  C   UNL     1       1.800   2.876  20.967  0.00  0.00    +0.000 C 
ATOM     17  N   UNL     1       2.049   3.271  22.307  0.00  0.00    +0.000 N 
ATOM     18  N   UNL     1       2.796   2.151  20.246  0.00  0.00    +0.000 N 
ATOM     19  H   UNL     1      -0.058   3.686  20.910  0.00  0.00    +0.000 HD
ATOM     20  H   UNL     1       1.334   3.783  22.846  0.00  0.00    +0.000 HD
ATOM     21  H   UNL     1       2.941   3.033  22.764  0.00  0.00    +0.000 HD
ATOM     22  H   UNL     1       3.691   1.938  20.711  0.00  0.00    +0.000 HD
ENDBRANCH  14  18
ENDBRANCH  13  14
ENDBRANCH   1  13
TORSDOF 3
ENDMDL
MODEL 8
REMARK VINA RESULT:      -7.0      1.575      3.354
REMARK  Name = 
REMARK  3 active torsions:
REMARK  status: ('A' for Active; 'I' for Inactive)
REMARK    1  A    between atoms: N_4  and  C_5
REMARK    2  A    between atoms: C_5  and  C_6
REMARK    3  A    between atoms: C_6  and  N_7
REMARK                            x       y       z     vdW  Elec       q    Type
REMARK                         _______ _______ _______ _____ _____    ______ ____
ROOT
ATOM      1  N   UNL     1       4.186   4.652  19.209  0.00  0.00    +0.000 N 
ATOM      2  C   UNL     1       3.717   5.999  18.903  0.00  0.00    +0.000 C 
ATOM      3  C   UNL     1       2.603   6.040  17.820  0.00  0.00    +0.000 C 
ATOM      4  C   UNL     1       1.714   4.799  17.526  0.00  0.00    +0.000 C 
ATOM      5  C   UNL     1       2.528   3.608  16.927  0.00  0.00    +0.000 C 
ATOM      6  C   UNL     1       2.836   2.408  17.866  0.00  0.00    +0.000 C 
ATOM      7  C   UNL     1       2.633   2.733  19.324  0.00  0.00    +0.000 A 
ATOM      8  C   UNL     1       1.678   1.994  20.049  0.00  0.00    +0.000 A 
ATOM      9  C   UNL     1       1.339   2.354  21.350  0.00  0.00    +0.000 A 
ATOM     10  C   UNL     1       1.937   3.462  21.942  0.00  0.00    +0.000 A 
ATOM     11  C   UNL     1       2.897   4.198  21.241  0.00  0.00    +0.000 A 
ATOM     12  C   UNL     1       3.271   3.830  19.935  0.00  0.00    +0.000 A 
ENDROOT
BRANCH   1  13
ATOM     13  C   UNL     1       5.534   4.130  18.934  0.00  0.00    +0.000 C 
BRANCH  13  14
ATOM     14  C   UNL     1       6.265   4.704  17.707  0.00  0.00    +0.000 C 
BRANCH  14  18
ATOM     15  N   UNL     1       7.348   5.370  15.176  0.00  0.00    +0.000 NA
ATOM     16  C   UNL     1       6.593   4.336  15.246  0.00  0.00    +0.000 C 
ATOM     17  N   UNL     1       6.346   3.559  14.084  0.00  0.00    +0.000 N 
ATOM     18  N   UNL     1       6.006   3.955  16.490  0.00  0.00    +0.000 N 
ATOM     19  H   UNL     1       7.785   5.669  14.290  0.00  0.00    +0.000 HD
ATOM     20  H   UNL     1       6.773   3.813  13.181  0.00  0.00    +0.000 HD
ATOM     21  H   UNL     1       5.752   2.719  14.134  0.00  0.00    +0.000 HD
ATOM     22  H   UNL     1       5.397   3.124  16.519  0.00  0.00    +0.000 HD
ENDBRANCH  14  18
ENDBRANCH  13  14
ENDBRANCH   1  13
TORSDOF 3
ENDMDL
MODEL 9
REMARK VINA RESULT:      -6.9      1.632      3.560
REMARK  Name = 
REMARK  3 active torsions:
REMARK  status: ('A' for Active; 'I' for Inactive)
REMARK    1  A    between atoms: N_4  and  C_5
REMARK    2  A    between atoms: C_5  and  C_6
REMARK    3  A    between atoms: C_6  and  N_7
REMARK                            x       y       z     vdW  Elec       q    Type
REMARK                         _______ _______ _______ _____ _____    ______ ____
ROOT
ATOM      1  N   UNL     1       4.301   3.918  18.646  0.00  0.00    +0.000 N 
ATOM      2  C   UNL     1       5.086   5.030  19.171  0.00  0.00    +0.000 C 
ATOM      3  C   UNL     1       4.325   6.384  19.170  0.00  0.00    +0.000 C 
ATOM      4  C   UNL     1       2.772   6.441  19.156  0.00  0.00    +0.000 C 
ATOM      5  C   UNL     1       2.164   5.873  17.834  0.00  0.00    +0.000 C 
ATOM      6  C   UNL     1       1.508   4.465  17.895  0.00  0.00    +0.000 C 
ATOM      7  C   UNL     1       1.888   3.691  19.132  0.00  0.00    +0.000 A 
ATOM      8  C   UNL     1       0.866   3.301  20.020  0.00  0.00    +0.000 A 
ATOM      9  C   UNL     1       1.174   2.725  21.249  0.00  0.00    +0.000 A 
ATOM     10  C   UNL     1       2.503   2.540  21.616  0.00  0.00    +0.000 A 
ATOM     11  C   UNL     1       3.529   2.908  20.741  0.00  0.00    +0.000 A 
ATOM     12  C   UNL     1       3.233   3.466  19.483  0.00  0.00    +0.000 A 
ENDROOT
BRANCH   1  13
ATOM     13  C   UNL     1       4.587   3.173  17.411  0.00  0.00    +0.000 C 
BRANCH  13  14
ATOM     14  C   UNL     1       4.583   3.978  16.097  0.00  0.00    +0.000 C 
BRANCH  14  18
ATOM     15  N   UNL     1       6.316   3.635  13.884  0.00  0.00    +0.000 NA
ATOM     16  C   UNL     1       6.627   4.528  14.750  0.00  0.00    +0.000 C 
ATOM     17  N   UNL     1       7.793   5.317  14.567  0.00  0.00    +0.000 N 
ATOM     18  N   UNL     1       5.802   4.740  15.895  0.00  0.00    +0.000 N 
ATOM     19  H   UNL     1       6.896   3.460  13.048  0.00  0.00    +0.000 HD
ATOM     20  H   UNL     1       8.392   5.186  13.738  0.00  0.00    +0.000 HD
ATOM     21  H   UNL     1       8.042   6.046  15.251  0.00  0.00    +0.000 HD
ATOM     22  H   UNL     1       6.076   5.460  16.581  0.00  0.00    +0.000 HD
ENDBRANCH  14  18
ENDBRANCH  13  14
ENDBRANCH   1  13
TORSDOF 3
ENDMDL
