MODEL 1
REMARK VINA RESULT:      -9.3      0.000      0.000
REMARK  Name = 
REMARK  7 active torsions:
REMARK  status: ('A' for Active; 'I' for Inactive)
REMARK    1  A    between atoms: C_1  and  N_2
REMARK    2  A    between atoms: C_8  and  O_9
REMARK    3  A    between atoms: O_9  and  C_10
REMARK    4  A    between atoms: C_10  and  C_11
REMARK    5  A    between atoms: C_11  and  C_12
REMARK    6  A    between atoms: C_12  and  N_13
REMARK    7  A    between atoms: N_16  and  C_17
REMARK                            x       y       z     vdW  Elec       q    Type
REMARK                         _______ _______ _______ _____ _____    ______ ____
ROOT
ATOM      1  C   UNL     1       8.021   7.825  17.882  0.00  0.00    +0.000 C 
ENDROOT
BRANCH   1   2
ATOM      2  C   UNL     1       8.299   9.309  18.033  0.00  0.00    +0.000 C 
BRANCH   2   3
ATOM      3  O   UNL     1       9.142   9.475  19.180  0.00  0.00    +0.000 OA
BRANCH   3  11
ATOM      4  C   UNL     1      11.186  16.040  16.784  0.00  0.00    +0.000 C 
ATOM      5  N   UNL     1      11.050  15.139  17.910  0.00  0.00    +0.000 N 
ATOM      6  C   UNL     1      10.441  15.640  19.137  0.00  0.00    +0.000 C 
ATOM      7  C   UNL     1      10.817  14.766  20.333  0.00  0.00    +0.000 C 
ATOM      8  C   UNL     1      10.441  13.342  20.036  0.00  0.00    +0.000 A 
ATOM      9  C   UNL     1      10.034  12.463  21.044  0.00  0.00    +0.000 A 
ATOM     10  C   UNL     1       9.620  11.169  20.714  0.00  0.00    +0.000 A 
ATOM     11  C   UNL     1       9.631  10.735  19.386  0.00  0.00    +0.000 A 
ATOM     12  C   UNL     1      10.106  11.584  18.390  0.00  0.00    +0.000 A 
ATOM     13  C   UNL     1      10.508  12.881  18.712  0.00  0.00    +0.000 A 
ATOM     14  C   UNL     1      10.963  13.778  17.613  0.00  0.00    +0.000 C 
ATOM     15  O   UNL     1      11.213  13.313  16.505  0.00  0.00    +0.000 OA
ENDBRANCH   3  11
ENDBRANCH   2   3
ENDBRANCH   1   2
BRANCH   1  16
ATOM     16  C   UNL     1       6.732   7.535  17.116  0.00  0.00    +0.000 C 
BRANCH  16  17
ATOM     17  N   UNL     1       6.626   6.182  16.551  0.00  0.00    +0.000 NA
ATOM     18  C   UNL     1       7.028   5.105  17.489  0.00  0.00    +0.000 C 
ATOM     19  C   UNL     1       6.070   4.848  18.684  0.00  0.00    +0.000 C 
ATOM     20  N   UNL     1       4.677   4.684  18.215  0.00  0.00    +0.000 N 
ATOM     21  C   UNL     1       4.236   5.775  17.319  0.00  0.00    +0.000 C 
ATOM     22  C   UNL     1       5.226   5.907  16.139  0.00  0.00    +0.000 C 
BRANCH  20  23
ATOM     23  C   UNL     1       3.707   4.140  19.059  0.00  0.00    +0.000 A 
ATOM     24  C   UNL     1       3.197   2.840  18.904  0.00  0.00    +0.000 A 
ATOM     25  C   UNL     1       2.209   2.336  19.757  0.00  0.00    +0.000 A 
ATOM     26  C   UNL     1       1.706   3.132  20.776  0.00  0.00    +0.000 A 
ATOM     27  F   UNL     1       0.762   2.650  21.592  0.00  0.00    +0.000 F 
ATOM     28  C   UNL     1       2.163   4.427  20.948  0.00  0.00    +0.000 A 
ATOM     29  C   UNL     1       3.140   4.925  20.085  0.00  0.00    +0.000 A 
ENDBRANCH  20  23
ENDBRANCH  16  17
ENDBRANCH   1  16
TORSDOF 6
ENDMDL
MODEL 2
REMARK VINA RESULT:      -8.8      5.872      8.322
REMARK  Name = 
REMARK  7 active torsions:
REMARK  status: ('A' for Active; 'I' for Inactive)
REMARK    1  A    between atoms: C_1  and  N_2
REMARK    2  A    between atoms: C_8  and  O_9
REMARK    3  A    between atoms: O_9  and  C_10
REMARK    4  A    between atoms: C_10  and  C_11
REMARK    5  A    between atoms: C_11  and  C_12
REMARK    6  A    between atoms: C_12  and  N_13
REMARK    7  A    between atoms: N_16  and  C_17
REMARK                            x       y       z     vdW  Elec       q    Type
REMARK                         _______ _______ _______ _____ _____    ______ ____
ROOT
ATOM      1  C   UNL     1       1.736   2.989  20.663  0.00  0.00    +0.000 C 
ENDROOT
BRANCH   1   2
ATOM      2  C   UNL     1       1.151   4.384  20.784  0.00  0.00    +0.000 C 
BRANCH   2   3
ATOM      3  O   UNL     1       2.242   5.312  20.764  0.00  0.00    +0.000 OA
BRANCH   3  11
ATOM      4  C   UNL     1       0.249  12.315  20.792  0.00  0.00    +0.000 C 
ATOM      5  N   UNL     1       0.669  11.168  20.013  0.00  0.00    +0.000 N 
ATOM      6  C   UNL     1       1.723  11.345  19.022  0.00  0.00    +0.000 C 
ATOM      7  C   UNL     1       1.695  10.221  17.985  0.00  0.00    +0.000 C 
ATOM      8  C   UNL     1       1.778   8.899  18.694  0.00  0.00    +0.000 A 
ATOM      9  C   UNL     1       2.410   7.794  18.116  0.00  0.00    +0.000 A 
ATOM     10  C   UNL     1       2.531   6.605  18.842  0.00  0.00    +0.000 A 
ATOM     11  C   UNL     1       2.004   6.501  20.132  0.00  0.00    +0.000 A 
ATOM     12  C   UNL     1       1.309   7.575  20.678  0.00  0.00    +0.000 A 
ATOM     13  C   UNL     1       1.197   8.770  19.964  0.00  0.00    +0.000 A 
ATOM     14  C   UNL     1       0.490   9.916  20.602  0.00  0.00    +0.000 C 
ATOM     15  O   UNL     1      -0.185   9.735  21.612  0.00  0.00    +0.000 OA
ENDBRANCH   3  11
ENDBRANCH   2   3
ENDBRANCH   1   2
BRANCH   1  16
ATOM     16  C   UNL     1       1.860   2.518  19.215  0.00  0.00    +0.000 C 
BRANCH  16  17
ATOM     17  N   UNL     1       3.120   1.839  18.879  0.00  0.00    +0.000 NA
ATOM     18  C   UNL     1       3.605   2.115  17.504  0.00  0.00    +0.000 C 
ATOM     19  C   UNL     1       4.130   3.552  17.242  0.00  0.00    +0.000 C 
ATOM     20  N   UNL     1       5.119   3.947  18.268  0.00  0.00    +0.000 N 
ATOM     21  C   UNL     1       4.638   3.729  19.650  0.00  0.00    +0.000 C 
ATOM     22  C   UNL     1       4.193   2.258  19.817  0.00  0.00    +0.000 C 
BRANCH  20  23
ATOM     23  C   UNL     1       5.948   5.051  18.064  0.00  0.00    +0.000 A 
ATOM     24  C   UNL     1       7.040   5.356  18.893  0.00  0.00    +0.000 A 
ATOM     25  C   UNL     1       7.837   6.484  18.669  0.00  0.00    +0.000 A 
ATOM     26  C   UNL     1       7.544   7.336  17.614  0.00  0.00    +0.000 A 
ATOM     27  F   UNL     1       8.305   8.414  17.399  0.00  0.00    +0.000 F 
ATOM     28  C   UNL     1       6.462   7.087  16.788  0.00  0.00    +0.000 A 
ATOM     29  C   UNL     1       5.666   5.965  17.026  0.00  0.00    +0.000 A 
ENDBRANCH  20  23
ENDBRANCH  16  17
ENDBRANCH   1  16
TORSDOF 6
ENDMDL
MODEL 3
REMARK VINA RESULT:      -8.7      0.832      1.232
REMARK  Name = 
REMARK  7 active torsions:
REMARK  status: ('A' for Active; 'I' for Inactive)
REMARK    1  A    between atoms: C_1  and  N_2
REMARK    2  A    between atoms: C_8  and  O_9
REMARK    3  A    between atoms: O_9  and  C_10
REMARK    4  A    between atoms: C_10  and  C_11
REMARK    5  A    between atoms: C_11  and  C_12
REMARK    6  A    between atoms: C_12  and  N_13
REMARK    7  A    between atoms: N_16  and  C_17
REMARK                            x       y       z     vdW  Elec       q    Type
REMARK                         _______ _______ _______ _____ _____    ______ ____
ROOT
ATOM      1  C   UNL     1       7.962   8.386  17.271  0.00  0.00    +0.000 C 
ENDROOT
BRANCH   1   2
ATOM      2  C   UNL     1       7.924   9.611  18.166  0.00  0.00    +0.000 C 
BRANCH   2   3
ATOM      3  O   UNL     1       9.114   9.600  18.964  0.00  0.00    +0.000 OA
BRANCH   3  11
ATOM      4  C   UNL     1      11.362  16.207  16.887  0.00  0.00    +0.000 C 
ATOM      5  N   UNL     1      11.233  15.242  17.960  0.00  0.00    +0.000 N 
ATOM      6  C   UNL     1      10.704  15.690  19.242  0.00  0.00    +0.000 C 
ATOM      7  C   UNL     1      11.090  14.724  20.363  0.00  0.00    +0.000 C 
ATOM      8  C   UNL     1      10.633  13.341  19.996  0.00  0.00    +0.000 A 
ATOM      9  C   UNL     1      10.230  12.418  20.966  0.00  0.00    +0.000 A 
ATOM     10  C   UNL     1       9.741  11.168  20.575  0.00  0.00    +0.000 A 
ATOM     11  C   UNL     1       9.671  10.821  19.224  0.00  0.00    +0.000 A 
ATOM     12  C   UNL     1      10.142  11.709  18.262  0.00  0.00    +0.000 A 
ATOM     13  C   UNL     1      10.620  12.964  18.644  0.00  0.00    +0.000 A 
ATOM     14  C   UNL     1      11.067  13.909  17.583  0.00  0.00    +0.000 C 
ATOM     15  O   UNL     1      11.245  13.505  16.437  0.00  0.00    +0.000 OA
ENDBRANCH   3  11
ENDBRANCH   2   3
ENDBRANCH   1   2
BRANCH   1  16
ATOM     16  C   UNL     1       7.685   7.088  18.027  0.00  0.00    +0.000 C 
BRANCH  16  17
ATOM     17  N   UNL     1       7.544   5.889  17.187  0.00  0.00    +0.000 NA
ATOM     18  C   UNL     1       7.472   4.621  17.956  0.00  0.00    +0.000 C 
ATOM     19  C   UNL     1       6.171   4.391  18.771  0.00  0.00    +0.000 C 
ATOM     20  N   UNL     1       4.976   4.595  17.925  0.00  0.00    +0.000 N 
ATOM     21  C   UNL     1       5.001   5.878  17.187  0.00  0.00    +0.000 C 
ATOM     22  C   UNL     1       6.308   5.979  16.369  0.00  0.00    +0.000 C 
BRANCH  20  23
ATOM     23  C   UNL     1       3.724   4.143  18.347  0.00  0.00    +0.000 A 
ATOM     24  C   UNL     1       3.055   4.668  19.464  0.00  0.00    +0.000 A 
ATOM     25  C   UNL     1       1.810   4.175  19.871  0.00  0.00    +0.000 A 
ATOM     26  C   UNL     1       1.218   3.136  19.168  0.00  0.00    +0.000 A 
ATOM     27  F   UNL     1       0.028   2.664  19.555  0.00  0.00    +0.000 F 
ATOM     28  C   UNL     1       1.856   2.572  18.076  0.00  0.00    +0.000 A 
ATOM     29  C   UNL     1       3.102   3.063  17.686  0.00  0.00    +0.000 A 
ENDBRANCH  20  23
ENDBRANCH  16  17
ENDBRANCH   1  16
TORSDOF 6
ENDMDL
MODEL 4
REMARK VINA RESULT:      -8.7      1.603      2.320
REMARK  Name = 
REMARK  7 active torsions:
REMARK  status: ('A' for Active; 'I' for Inactive)
REMARK    1  A    between atoms: C_1  and  N_2
REMARK    2  A    between atoms: C_8  and  O_9
REMARK    3  A    between atoms: O_9  and  C_10
REMARK    4  A    between atoms: C_10  and  C_11
REMARK    5  A    between atoms: C_11  and  C_12
REMARK    6  A    between atoms: C_12  and  N_13
REMARK    7  A    between atoms: N_16  and  C_17
REMARK                            x       y       z     vdW  Elec       q    Type
REMARK                         _______ _______ _______ _____ _____    ______ ____
ROOT
ATOM      1  C   UNL     1       8.246   7.838  18.277  0.00  0.00    +0.000 C 
ENDROOT
BRANCH   1   2
ATOM      2  C   UNL     1       8.362   9.349  18.204  0.00  0.00    +0.000 C 
BRANCH   2   3
ATOM      3  O   UNL     1       9.331   9.755  19.178  0.00  0.00    +0.000 OA
BRANCH   3  11
ATOM      4  C   UNL     1      10.895  16.131  22.328  0.00  0.00    +0.000 C 
ATOM      5  N   UNL     1      10.767  15.375  21.099  0.00  0.00    +0.000 N 
ATOM      6  C   UNL     1      11.837  15.460  20.112  0.00  0.00    +0.000 C 
ATOM      7  C   UNL     1      11.342  15.035  18.729  0.00  0.00    +0.000 C 
ATOM      8  C   UNL     1      10.746  13.659  18.824  0.00  0.00    +0.000 A 
ATOM      9  C   UNL     1      10.813  12.754  17.761  0.00  0.00    +0.000 A 
ATOM     10  C   UNL     1      10.312  11.458  17.918  0.00  0.00    +0.000 A 
ATOM     11  C   UNL     1       9.723  11.063  19.122  0.00  0.00    +0.000 A 
ATOM     12  C   UNL     1       9.588  11.986  20.155  0.00  0.00    +0.000 A 
ATOM     13  C   UNL     1      10.098  13.278  20.008  0.00  0.00    +0.000 A 
ATOM     14  C   UNL     1       9.981  14.223  21.154  0.00  0.00    +0.000 C 
ATOM     15  O   UNL     1       9.242  13.955  22.098  0.00  0.00    +0.000 OA
ENDBRANCH   3  11
ENDBRANCH   2   3
ENDBRANCH   1   2
BRANCH   1  16
ATOM     16  C   UNL     1       7.337   7.256  17.196  0.00  0.00    +0.000 C 
BRANCH  16  17
ATOM     17  N   UNL     1       7.520   5.823  16.923  0.00  0.00    +0.000 NA
ATOM     18  C   UNL     1       7.484   4.970  18.137  0.00  0.00    +0.000 C 
ATOM     19  C   UNL     1       6.099   4.819  18.823  0.00  0.00    +0.000 C 
ATOM     20  N   UNL     1       5.064   4.431  17.840  0.00  0.00    +0.000 N 
ATOM     21  C   UNL     1       5.047   5.301  16.644  0.00  0.00    +0.000 C 
ATOM     22  C   UNL     1       6.456   5.336  16.009  0.00  0.00    +0.000 C 
BRANCH  20  23
ATOM     23  C   UNL     1       3.831   3.938  18.270  0.00  0.00    +0.000 A 
ATOM     24  C   UNL     1       3.694   3.041  19.342  0.00  0.00    +0.000 A 
ATOM     25  C   UNL     1       2.442   2.550  19.731  0.00  0.00    +0.000 A 
ATOM     26  C   UNL     1       1.304   2.944  19.042  0.00  0.00    +0.000 A 
ATOM     27  F   UNL     1       0.108   2.477  19.414  0.00  0.00    +0.000 F 
ATOM     28  C   UNL     1       1.398   3.807  17.964  0.00  0.00    +0.000 A 
ATOM     29  C   UNL     1       2.651   4.281  17.576  0.00  0.00    +0.000 A 
ENDBRANCH  20  23
ENDBRANCH  16  17
ENDBRANCH   1  16
TORSDOF 6
ENDMDL
MODEL 5
REMARK VINA RESULT:      -8.6      1.517      1.669
REMARK  Name = 
REMARK  7 active torsions:
REMARK  status: ('A' for Active; 'I' for Inactive)
REMARK    1  A    between atoms: C_1  and  N_2
REMARK    2  A    between atoms: C_8  and  O_9
REMARK    3  A    between atoms: O_9  and  C_10
REMARK    4  A    between atoms: C_10  and  C_11
REMARK    5  A    between atoms: C_11  and  C_12
REMARK    6  A    between atoms: C_12  and  N_13
REMARK    7  A    between atoms: N_16  and  C_17
REMARK                            x       y       z     vdW  Elec       q    Type
REMARK                         _______ _______ _______ _____ _____    ______ ____
ROOT
ATOM      1  C   UNL     1       8.143   7.819  18.227  0.00  0.00    +0.000 C 
ENDROOT
BRANCH   1   2
ATOM      2  C   UNL     1       8.356   9.319  18.139  0.00  0.00    +0.000 C 
BRANCH   2   3
ATOM      3  O   UNL     1       9.302   9.680  19.153  0.00  0.00    +0.000 OA
BRANCH   3  11
ATOM      4  C   UNL     1       7.705  16.759  18.550  0.00  0.00    +0.000 C 
ATOM      5  N   UNL     1       8.714  15.752  18.810  0.00  0.00    +0.000 N 
ATOM      6  C   UNL     1       9.589  15.921  19.964  0.00  0.00    +0.000 C 
ATOM      7  C   UNL     1      10.862  15.088  19.814  0.00  0.00    +0.000 C 
ATOM      8  C   UNL     1      10.484  13.654  19.576  0.00  0.00    +0.000 A 
ATOM      9  C   UNL     1      11.278  12.598  20.034  0.00  0.00    +0.000 A 
ATOM     10  C   UNL     1      10.850  11.279  19.857  0.00  0.00    +0.000 A 
ATOM     11  C   UNL     1       9.645  11.002  19.206  0.00  0.00    +0.000 A 
ATOM     12  C   UNL     1       8.890  12.049  18.685  0.00  0.00    +0.000 A 
ATOM     13  C   UNL     1       9.306  13.369  18.869  0.00  0.00    +0.000 A 
ATOM     14  C   UNL     1       8.447  14.465  18.341  0.00  0.00    +0.000 C 
ATOM     15  O   UNL     1       7.538  14.209  17.556  0.00  0.00    +0.000 OA
ENDBRANCH   3  11
ENDBRANCH   2   3
ENDBRANCH   1   2
BRANCH   1  16
ATOM     16  C   UNL     1       7.411   7.248  17.014  0.00  0.00    +0.000 C 
BRANCH  16  17
ATOM     17  N   UNL     1       7.553   5.798  16.817  0.00  0.00    +0.000 NA
ATOM     18  C   UNL     1       7.507   5.013  18.076  0.00  0.00    +0.000 C 
ATOM     19  C   UNL     1       6.127   4.937  18.783  0.00  0.00    +0.000 C 
ATOM     20  N   UNL     1       5.071   4.525  17.833  0.00  0.00    +0.000 N 
ATOM     21  C   UNL     1       5.064   5.329  16.591  0.00  0.00    +0.000 C 
ATOM     22  C   UNL     1       6.466   5.291  15.942  0.00  0.00    +0.000 C 
BRANCH  20  23
ATOM     23  C   UNL     1       3.830   4.089  18.301  0.00  0.00    +0.000 A 
ATOM     24  C   UNL     1       2.685   4.018  17.491  0.00  0.00    +0.000 A 
ATOM     25  C   UNL     1       1.452   3.596  18.000  0.00  0.00    +0.000 A 
ATOM     26  C   UNL     1       1.343   3.248  19.339  0.00  0.00    +0.000 A 
ATOM     27  F   UNL     1       0.165   2.844  19.827  0.00  0.00    +0.000 F 
ATOM     28  C   UNL     1       2.441   3.329  20.179  0.00  0.00    +0.000 A 
ATOM     29  C   UNL     1       3.663   3.761  19.664  0.00  0.00    +0.000 A 
ENDBRANCH  20  23
ENDBRANCH  16  17
ENDBRANCH   1  16
TORSDOF 6
ENDMDL
MODEL 6
REMARK VINA RESULT:      -8.6      1.271      1.349
REMARK  Name = 
REMARK  7 active torsions:
REMARK  status: ('A' for Active; 'I' for Inactive)
REMARK    1  A    between atoms: C_1  and  N_2
REMARK    2  A    between atoms: C_8  and  O_9
REMARK    3  A    between atoms: O_9  and  C_10
REMARK    4  A    between atoms: C_10  and  C_11
REMARK    5  A    between atoms: C_11  and  C_12
REMARK    6  A    between atoms: C_12  and  N_13
REMARK    7  A    between atoms: N_16  and  C_17
REMARK                            x       y       z     vdW  Elec       q    Type
REMARK                         _______ _______ _______ _____ _____    ______ ____
ROOT
ATOM      1  C   UNL     1       8.348   8.116  18.172  0.00  0.00    +0.000 C 
ENDROOT
BRANCH   1   2
ATOM      2  C   UNL     1       8.261   9.625  18.312  0.00  0.00    +0.000 C 
BRANCH   2   3
ATOM      3  O   UNL     1       9.571  10.156  18.079  0.00  0.00    +0.000 OA
BRANCH   3  11
ATOM      4  C   UNL     1      10.639  17.355  18.324  0.00  0.00    +0.000 C 
ATOM      5  N   UNL     1      10.642  16.095  19.039  0.00  0.00    +0.000 N 
ATOM      6  C   UNL     1       9.979  16.024  20.335  0.00  0.00    +0.000 C 
ATOM      7  C   UNL     1      10.486  14.832  21.147  0.00  0.00    +0.000 C 
ATOM      8  C   UNL     1      10.314  13.579  20.337  0.00  0.00    +0.000 A 
ATOM      9  C   UNL     1      10.045  12.346  20.938  0.00  0.00    +0.000 A 
ATOM     10  C   UNL     1       9.818  11.219  20.142  0.00  0.00    +0.000 A 
ATOM     11  C   UNL     1       9.878  11.307  18.749  0.00  0.00    +0.000 A 
ATOM     12  C   UNL     1      10.218  12.517  18.152  0.00  0.00    +0.000 A 
ATOM     13  C   UNL     1      10.435  13.649  18.941  0.00  0.00    +0.000 A 
ATOM     14  C   UNL     1      10.747  14.938  18.264  0.00  0.00    +0.000 C 
ATOM     15  O   UNL     1      11.051  14.950  17.074  0.00  0.00    +0.000 OA
ENDBRANCH   3  11
ENDBRANCH   2   3
ENDBRANCH   1   2
BRANCH   1  16
ATOM     16  C   UNL     1       7.255   7.536  17.277  0.00  0.00    +0.000 C 
BRANCH  16  17
ATOM     17  N   UNL     1       7.473   6.152  16.833  0.00  0.00    +0.000 NA
ATOM     18  C   UNL     1       7.497   5.162  17.940  0.00  0.00    +0.000 C 
ATOM     19  C   UNL     1       6.138   4.887  18.638  0.00  0.00    +0.000 C 
ATOM     20  N   UNL     1       5.087   4.583  17.643  0.00  0.00    +0.000 N 
ATOM     21  C   UNL     1       5.009   5.584  16.557  0.00  0.00    +0.000 C 
ATOM     22  C   UNL     1       6.398   5.739  15.896  0.00  0.00    +0.000 C 
BRANCH  20  23
ATOM     23  C   UNL     1       3.881   4.002  18.043  0.00  0.00    +0.000 A 
ATOM     24  C   UNL     1       3.812   2.830  18.813  0.00  0.00    +0.000 A 
ATOM     25  C   UNL     1       2.584   2.265  19.177  0.00  0.00    +0.000 A 
ATOM     26  C   UNL     1       1.401   2.862  18.765  0.00  0.00    +0.000 A 
ATOM     27  F   UNL     1       0.228   2.324  19.113  0.00  0.00    +0.000 F 
ATOM     28  C   UNL     1       1.426   4.005  17.984  0.00  0.00    +0.000 A 
ATOM     29  C   UNL     1       2.654   4.554  17.616  0.00  0.00    +0.000 A 
ENDBRANCH  20  23
ENDBRANCH  16  17
ENDBRANCH   1  16
TORSDOF 6
ENDMDL
MODEL 7
REMARK VINA RESULT:      -8.5      1.728      2.307
REMARK  Name = 
REMARK  7 active torsions:
REMARK  status: ('A' for Active; 'I' for Inactive)
REMARK    1  A    between atoms: C_1  and  N_2
REMARK    2  A    between atoms: C_8  and  O_9
REMARK    3  A    between atoms: O_9  and  C_10
REMARK    4  A    between atoms: C_10  and  C_11
REMARK    5  A    between atoms: C_11  and  C_12
REMARK    6  A    between atoms: C_12  and  N_13
REMARK    7  A    between atoms: N_16  and  C_17
REMARK                            x       y       z     vdW  Elec       q    Type
REMARK                         _______ _______ _______ _____ _____    ______ ____
ROOT
ATOM      1  C   UNL     1       8.294   8.429  18.096  0.00  0.00    +0.000 C 
ENDROOT
BRANCH   1   2
ATOM      2  C   UNL     1       8.254   9.946  18.088  0.00  0.00    +0.000 C 
BRANCH   2   3
ATOM      3  O   UNL     1       9.608  10.414  18.096  0.00  0.00    +0.000 OA
BRANCH   3  11
ATOM      4  C   UNL     1       7.394  17.316  18.783  0.00  0.00    +0.000 C 
ATOM      5  N   UNL     1       8.401  16.400  18.286  0.00  0.00    +0.000 N 
ATOM      6  C   UNL     1       9.804  16.695  18.550  0.00  0.00    +0.000 C 
ATOM      7  C   UNL     1      10.714  15.948  17.574  0.00  0.00    +0.000 C 
ATOM      8  C   UNL     1      10.405  14.479  17.642  0.00  0.00    +0.000 A 
ATOM      9  C   UNL     1      11.391  13.510  17.437  0.00  0.00    +0.000 A 
ATOM     10  C   UNL     1      11.075  12.156  17.584  0.00  0.00    +0.000 A 
ATOM     11  C   UNL     1       9.777  11.758  17.914  0.00  0.00    +0.000 A 
ATOM     12  C   UNL     1       8.778  12.718  18.046  0.00  0.00    +0.000 A 
ATOM     13  C   UNL     1       9.089  14.072  17.912  0.00  0.00    +0.000 A 
ATOM     14  C   UNL     1       8.004  15.074  18.110  0.00  0.00    +0.000 C 
ATOM     15  O   UNL     1       6.832  14.711  18.141  0.00  0.00    +0.000 OA
ENDBRANCH   3  11
ENDBRANCH   2   3
ENDBRANCH   1   2
BRANCH   1  16
ATOM     16  C   UNL     1       7.239   7.799  17.190  0.00  0.00    +0.000 C 
BRANCH  16  17
ATOM     17  N   UNL     1       7.416   6.365  16.919  0.00  0.00    +0.000 NA
ATOM     18  C   UNL     1       7.461   5.523  18.140  0.00  0.00    +0.000 C 
ATOM     19  C   UNL     1       6.123   5.369  18.911  0.00  0.00    +0.000 C 
ATOM     20  N   UNL     1       5.032   4.964  17.998  0.00  0.00    +0.000 N 
ATOM     21  C   UNL     1       4.935   5.822  16.797  0.00  0.00    +0.000 C 
ATOM     22  C   UNL     1       6.302   5.861  16.077  0.00  0.00    +0.000 C 
BRANCH  20  23
ATOM     23  C   UNL     1       3.832   4.466  18.507  0.00  0.00    +0.000 A 
ATOM     24  C   UNL     1       3.640   4.163  19.865  0.00  0.00    +0.000 A 
ATOM     25  C   UNL     1       2.429   3.645  20.336  0.00  0.00    +0.000 A 
ATOM     26  C   UNL     1       1.388   3.410  19.449  0.00  0.00    +0.000 A 
ATOM     27  F   UNL     1       0.230   2.916  19.897  0.00  0.00    +0.000 F 
ATOM     28  C   UNL     1       1.544   3.671  18.098  0.00  0.00    +0.000 A 
ATOM     29  C   UNL     1       2.759   4.177  17.636  0.00  0.00    +0.000 A 
ENDBRANCH  20  23
ENDBRANCH  16  17
ENDBRANCH   1  16
TORSDOF 6
ENDMDL
MODEL 8
REMARK VINA RESULT:      -8.5      1.512      1.928
REMARK  Name = 
REMARK  7 active torsions:
REMARK  status: ('A' for Active; 'I' for Inactive)
REMARK    1  A    between atoms: C_1  and  N_2
REMARK    2  A    between atoms: C_8  and  O_9
REMARK    3  A    between atoms: O_9  and  C_10
REMARK    4  A    between atoms: C_10  and  C_11
REMARK    5  A    between atoms: C_11  and  C_12
REMARK    6  A    between atoms: C_12  and  N_13
REMARK    7  A    between atoms: N_16  and  C_17
REMARK                            x       y       z     vdW  Elec       q    Type
REMARK                         _______ _______ _______ _____ _____    ______ ____
ROOT
ATOM      1  C   UNL     1       8.311   8.405  17.560  0.00  0.00    +0.000 C 
ENDROOT
BRANCH   1   2
ATOM      2  C   UNL     1       8.024   9.800  18.082  0.00  0.00    +0.000 C 
BRANCH   2   3
ATOM      3  O   UNL     1       9.236  10.304  18.655  0.00  0.00    +0.000 OA
BRANCH   3  11
ATOM      4  C   UNL     1       8.486  17.541  18.362  0.00  0.00    +0.000 C 
ATOM      5  N   UNL     1       9.223  16.371  17.930  0.00  0.00    +0.000 N 
ATOM      6  C   UNL     1      10.679  16.401  17.990  0.00  0.00    +0.000 C 
ATOM      7  C   UNL     1      11.289  15.344  17.070  0.00  0.00    +0.000 C 
ATOM      8  C   UNL     1      10.719  13.999  17.423  0.00  0.00    +0.000 A 
ATOM      9  C   UNL     1      11.466  12.826  17.287  0.00  0.00    +0.000 A 
ATOM     10  C   UNL     1      10.923  11.605  17.699  0.00  0.00    +0.000 A 
ATOM     11  C   UNL     1       9.631  11.541  18.227  0.00  0.00    +0.000 A 
ATOM     12  C   UNL     1       8.859  12.697  18.293  0.00  0.00    +0.000 A 
ATOM     13  C   UNL     1       9.400  13.921  17.895  0.00  0.00    +0.000 A 
ATOM     14  C   UNL     1       8.562  15.146  18.029  0.00  0.00    +0.000 C 
ATOM     15  O   UNL     1       7.358  15.045  18.244  0.00  0.00    +0.000 OA
ENDBRANCH   3  11
ENDBRANCH   2   3
ENDBRANCH   1   2
BRANCH   1  16
ATOM     16  C   UNL     1       7.044   7.597  17.288  0.00  0.00    +0.000 C 
BRANCH  16  17
ATOM     17  N   UNL     1       7.249   6.157  17.073  0.00  0.00    +0.000 NA
ATOM     18  C   UNL     1       7.508   5.393  18.319  0.00  0.00    +0.000 C 
ATOM     19  C   UNL     1       6.301   5.233  19.284  0.00  0.00    +0.000 C 
ATOM     20  N   UNL     1       5.113   4.732  18.561  0.00  0.00    +0.000 N 
ATOM     21  C   UNL     1       4.804   5.510  17.342  0.00  0.00    +0.000 C 
ATOM     22  C   UNL     1       6.051   5.559  16.430  0.00  0.00    +0.000 C 
BRANCH  20  23
ATOM     23  C   UNL     1       4.022   4.218  19.266  0.00  0.00    +0.000 A 
ATOM     24  C   UNL     1       3.668   2.859  19.250  0.00  0.00    +0.000 A 
ATOM     25  C   UNL     1       2.554   2.385  19.952  0.00  0.00    +0.000 A 
ATOM     26  C   UNL     1       1.767   3.269  20.675  0.00  0.00    +0.000 A 
ATOM     27  F   UNL     1       0.703   2.817  21.347  0.00  0.00    +0.000 F 
ATOM     28  C   UNL     1       2.066   4.621  20.696  0.00  0.00    +0.000 A 
ATOM     29  C   UNL     1       3.171   5.087  19.984  0.00  0.00    +0.000 A 
ENDBRANCH  20  23
ENDBRANCH  16  17
ENDBRANCH   1  16
TORSDOF 6
ENDMDL
MODEL 9
REMARK VINA RESULT:      -8.5      5.936      8.435
REMARK  Name = 
REMARK  7 active torsions:
REMARK  status: ('A' for Active; 'I' for Inactive)
REMARK    1  A    between atoms: C_1  and  N_2
REMARK    2  A    between atoms: C_8  and  O_9
REMARK    3  A    between atoms: O_9  and  C_10
REMARK    4  A    between atoms: C_10  and  C_11
REMARK    5  A    between atoms: C_11  and  C_12
REMARK    6  A    between atoms: C_12  and  N_13
REMARK    7  A    between atoms: N_16  and  C_17
REMARK                            x       y       z     vdW  Elec       q    Type
REMARK                         _______ _______ _______ _____ _____    ______ ____
ROOT
ATOM      1  C   UNL     1       2.128   3.487  20.842  0.00  0.00    +0.000 C 
ENDROOT
BRANCH   1   2
ATOM      2  C   UNL     1       1.519   4.877  20.867  0.00  0.00    +0.000 C 
BRANCH   2   3
ATOM      3  O   UNL     1       2.475   5.776  20.291  0.00  0.00    +0.000 OA
BRANCH   3  11
ATOM      4  C   UNL     1      -0.465  12.183  22.113  0.00  0.00    +0.000 C 
ATOM      5  N   UNL     1       0.028  11.322  21.058  0.00  0.00    +0.000 N 
ATOM      6  C   UNL     1       0.938  11.882  20.066  0.00  0.00    +0.000 C 
ATOM      7  C   UNL     1       0.960  11.029  18.798  0.00  0.00    +0.000 C 
ATOM      8  C   UNL     1       1.300   9.613  19.165  0.00  0.00    +0.000 A 
ATOM      9  C   UNL     1       2.017   8.781  18.301  0.00  0.00    +0.000 A 
ATOM     10  C   UNL     1       2.378   7.495  18.714  0.00  0.00    +0.000 A 
ATOM     11  C   UNL     1       2.008   7.022  19.976  0.00  0.00    +0.000 A 
ATOM     12  C   UNL     1       1.230   7.822  20.807  0.00  0.00    +0.000 A 
ATOM     13  C   UNL     1       0.878   9.111  20.406  0.00  0.00    +0.000 A 
ATOM     14  C   UNL     1       0.088   9.957  21.344  0.00  0.00    +0.000 C 
ATOM     15  O   UNL     1      -0.446   9.450  22.326  0.00  0.00    +0.000 OA
ENDBRANCH   3  11
ENDBRANCH   2   3
ENDBRANCH   1   2
BRANCH   1  16
ATOM     16  C   UNL     1       1.610   2.630  19.688  0.00  0.00    +0.000 C 
BRANCH  16  17
ATOM     17  N   UNL     1       2.645   1.959  18.888  0.00  0.00    +0.000 NA
ATOM     18  C   UNL     1       2.788   2.502  17.514  0.00  0.00    +0.000 C 
ATOM     19  C   UNL     1       3.405   3.922  17.402  0.00  0.00    +0.000 C 
ATOM     20  N   UNL     1       4.666   4.011  18.168  0.00  0.00    +0.000 N 
ATOM     21  C   UNL     1       4.535   3.523  19.559  0.00  0.00    +0.000 C 
ATOM     22  C   UNL     1       3.967   2.086  19.552  0.00  0.00    +0.000 C 
BRANCH  20  23
ATOM     23  C   UNL     1       5.546   5.075  17.961  0.00  0.00    +0.000 A 
ATOM     24  C   UNL     1       5.344   6.059  16.980  0.00  0.00    +0.000 A 
ATOM     25  C   UNL     1       6.259   7.099  16.787  0.00  0.00    +0.000 A 
ATOM     26  C   UNL     1       7.403   7.165  17.570  0.00  0.00    +0.000 A 
ATOM     27  F   UNL     1       8.278   8.160  17.387  0.00  0.00    +0.000 F 
ATOM     28  C   UNL     1       7.653   6.201  18.532  0.00  0.00    +0.000 A 
ATOM     29  C   UNL     1       6.741   5.161  18.709  0.00  0.00    +0.000 A 
ENDBRANCH  20  23
ENDBRANCH  16  17
ENDBRANCH   1  16
TORSDOF 6
ENDMDL
