MODEL 1
REMARK VINA RESULT:      -7.9      0.000      0.000
REMARK  Name = 
REMARK  5 active torsions:
REMARK  status: ('A' for Active; 'I' for Inactive)
REMARK    1  A    between atoms: C_1  and  N_2
REMARK    2  A    between atoms: N_2  and  C_3
REMARK    3  A    between atoms: N_2  and  C_9
REMARK    4  A    between atoms: C_3  and  C_4
REMARK    5  A    between atoms: C_16  and  C_17
REMARK                            x       y       z     vdW  Elec       q    Type
REMARK                         _______ _______ _______ _____ _____    ______ ____
ROOT
ATOM      1  C   UNL     1       5.032   4.817  19.221  0.00  0.00    +0.000 A 
ATOM      2  N   UNL     1       5.444   3.538  19.284  0.00  0.00    +0.000 NA
ATOM      3  C   UNL     1       4.570   2.637  19.751  0.00  0.00    +0.000 A 
ATOM      4  N   UNL     1       3.328   2.879  20.181  0.00  0.00    +0.000 NA
ATOM      5  C   UNL     1       2.918   4.148  20.118  0.00  0.00    +0.000 A 
ATOM      6  C   UNL     1       1.657   4.482  20.599  0.00  0.00    +0.000 A 
ATOM      7  C   UNL     1       1.174   5.802  20.580  0.00  0.00    +0.000 A 
ATOM      8  C   UNL     1       1.946   6.840  20.054  0.00  0.00    +0.000 A 
ATOM      9  C   UNL     1       3.214   6.488  19.575  0.00  0.00    +0.000 A 
ATOM     10  C   UNL     1       3.725   5.172  19.614  0.00  0.00    +0.000 A 
ENDROOT
BRANCH   8  11
ATOM     11  C   UNL     1       1.502   8.253  20.007  0.00  0.00    +0.000 A 
ATOM     12  C   UNL     1       1.557   9.015  18.814  0.00  0.00    +0.000 A 
ATOM     13  C   UNL     1       1.167  10.361  18.777  0.00  0.00    +0.000 A 
ATOM     14  C   UNL     1       0.737  10.938  19.950  0.00  0.00    +0.000 A 
ATOM     15  C   UNL     1       0.677  10.224  21.118  0.00  0.00    +0.000 A 
ATOM     16  C   UNL     1       1.038   8.896  21.174  0.00  0.00    +0.000 A 
ATOM     17  O   UNL     1       0.245  10.969  22.169  0.00  0.00    +0.000 OA
ATOM     18  C   UNL     1       0.059  12.248  21.530  0.00  0.00    +0.000 C 
ATOM     19  O   UNL     1       0.337  12.227  20.113  0.00  0.00    +0.000 OA
ENDBRANCH   8  11
BRANCH   1  21
ATOM     20  C   UNL     1       7.346   5.528  19.179  0.00  0.00    +0.000 C 
ATOM     21  N   UNL     1       5.953   5.815  18.841  0.00  0.00    +0.000 N 
BRANCH  21  22
ATOM     22  C   UNL     1       5.714   6.409  17.511  0.00  0.00    +0.000 C 
BRANCH  22  23
ATOM     23  C   UNL     1       5.780   5.429  16.349  0.00  0.00    +0.000 A 
ATOM     24  C   UNL     1       4.781   4.670  15.764  0.00  0.00    +0.000 A 
ATOM     25  C   UNL     1       5.252   3.881  14.671  0.00  0.00    +0.000 A 
ATOM     26  C   UNL     1       6.605   4.045  14.466  0.00  0.00    +0.000 A 
ATOM     27  S   UNL     1       7.291   5.147  15.574  0.00  0.00    +0.000 S 
ENDBRANCH  22  23
ENDBRANCH  21  22
ENDBRANCH   1  21
TORSDOF 4
ENDMDL
MODEL 2
REMARK VINA RESULT:      -7.9      5.034      8.268
REMARK  Name = 
REMARK  5 active torsions:
REMARK  status: ('A' for Active; 'I' for Inactive)
REMARK    1  A    between atoms: C_1  and  N_2
REMARK    2  A    between atoms: N_2  and  C_3
REMARK    3  A    between atoms: N_2  and  C_9
REMARK    4  A    between atoms: C_3  and  C_4
REMARK    5  A    between atoms: C_16  and  C_17
REMARK                            x       y       z     vdW  Elec       q    Type
REMARK                         _______ _______ _______ _____ _____    ______ ____
ROOT
ATOM      1  C   UNL     1      -1.124  11.664  20.188  0.00  0.00    +0.000 A 
ATOM      2  N   UNL     1      -1.866  12.470  20.969  0.00  0.00    +0.000 NA
ATOM      3  C   UNL     1      -1.837  12.239  22.287  0.00  0.00    +0.000 A 
ATOM      4  N   UNL     1      -1.157  11.273  22.913  0.00  0.00    +0.000 NA
ATOM      5  C   UNL     1      -0.421  10.473  22.139  0.00  0.00    +0.000 A 
ATOM      6  C   UNL     1       0.270   9.412  22.715  0.00  0.00    +0.000 A 
ATOM      7  C   UNL     1       1.046   8.522  21.954  0.00  0.00    +0.000 A 
ATOM      8  C   UNL     1       1.171   8.681  20.572  0.00  0.00    +0.000 A 
ATOM      9  C   UNL     1       0.469   9.753  20.006  0.00  0.00    +0.000 A 
ATOM     10  C   UNL     1      -0.339  10.638  20.753  0.00  0.00    +0.000 A 
ENDROOT
BRANCH   8  11
ATOM     11  C   UNL     1       1.968   7.779  19.708  0.00  0.00    +0.000 A 
ATOM     12  C   UNL     1       2.445   8.188  18.438  0.00  0.00    +0.000 A 
ATOM     13  C   UNL     1       3.171   7.323  17.608  0.00  0.00    +0.000 A 
ATOM     14  C   UNL     1       3.401   6.043  18.057  0.00  0.00    +0.000 A 
ATOM     15  C   UNL     1       2.949   5.622  19.279  0.00  0.00    +0.000 A 
ATOM     16  C   UNL     1       2.249   6.459  20.119  0.00  0.00    +0.000 A 
ATOM     17  O   UNL     1       3.259   4.325  19.537  0.00  0.00    +0.000 OA
ATOM     18  C   UNL     1       3.944   3.967  18.320  0.00  0.00    +0.000 C 
ATOM     19  O   UNL     1       4.068   5.064  17.389  0.00  0.00    +0.000 OA
ENDBRANCH   8  11
BRANCH   1  21
ATOM     20  C   UNL     1      -2.409  11.221  18.184  0.00  0.00    +0.000 C 
ATOM     21  N   UNL     1      -1.210  11.800  18.786  0.00  0.00    +0.000 N 
BRANCH  21  22
ATOM     22  C   UNL     1      -0.785  13.112  18.261  0.00  0.00    +0.000 C 
BRANCH  22  23
ATOM     23  C   UNL     1       0.648  13.503  18.590  0.00  0.00    +0.000 A 
ATOM     24  C   UNL     1       1.842  12.896  18.239  0.00  0.00    +0.000 A 
ATOM     25  C   UNL     1       2.985  13.593  18.736  0.00  0.00    +0.000 A 
ATOM     26  C   UNL     1       2.629  14.703  19.471  0.00  0.00    +0.000 A 
ATOM     27  S   UNL     1       0.936  14.903  19.549  0.00  0.00    +0.000 S 
ENDBRANCH  22  23
ENDBRANCH  21  22
ENDBRANCH   1  21
TORSDOF 4
ENDMDL
MODEL 3
REMARK VINA RESULT:      -7.8      0.620      1.314
REMARK  Name = 
REMARK  5 active torsions:
REMARK  status: ('A' for Active; 'I' for Inactive)
REMARK    1  A    between atoms: C_1  and  N_2
REMARK    2  A    between atoms: N_2  and  C_3
REMARK    3  A    between atoms: N_2  and  C_9
REMARK    4  A    between atoms: C_3  and  C_4
REMARK    5  A    between atoms: C_16  and  C_17
REMARK                            x       y       z     vdW  Elec       q    Type
REMARK                         _______ _______ _______ _____ _____    ______ ____
ROOT
ATOM      1  C   UNL     1       4.931   4.758  19.133  0.00  0.00    +0.000 A 
ATOM      2  N   UNL     1       5.331   3.478  19.033  0.00  0.00    +0.000 NA
ATOM      3  C   UNL     1       4.463   2.534  19.417  0.00  0.00    +0.000 A 
ATOM      4  N   UNL     1       3.236   2.732  19.911  0.00  0.00    +0.000 NA
ATOM      5  C   UNL     1       2.838   4.003  20.010  0.00  0.00    +0.000 A 
ATOM      6  C   UNL     1       1.595   4.286  20.566  0.00  0.00    +0.000 A 
ATOM      7  C   UNL     1       1.126   5.603  20.717  0.00  0.00    +0.000 A 
ATOM      8  C   UNL     1       1.893   6.690  20.293  0.00  0.00    +0.000 A 
ATOM      9  C   UNL     1       3.142   6.389  19.737  0.00  0.00    +0.000 A 
ATOM     10  C   UNL     1       3.640   5.073  19.605  0.00  0.00    +0.000 A 
ENDROOT
BRANCH   8  11
ATOM     11  C   UNL     1       1.463   8.102  20.426  0.00  0.00    +0.000 A 
ATOM     12  C   UNL     1       0.991   8.627  21.655  0.00  0.00    +0.000 A 
ATOM     13  C   UNL     1       0.554   9.954  21.772  0.00  0.00    +0.000 A 
ATOM     14  C   UNL     1       0.581  10.742  20.644  0.00  0.00    +0.000 A 
ATOM     15  C   UNL     1       1.030  10.257  19.444  0.00  0.00    +0.000 A 
ATOM     16  C   UNL     1       1.480   8.964  19.309  0.00  0.00    +0.000 A 
ATOM     17  O   UNL     1       0.964  11.178  18.447  0.00  0.00    +0.000 OA
ATOM     18  C   UNL     1       0.398  12.299  19.156  0.00  0.00    +0.000 C 
ATOM     19  O   UNL     1       0.184  12.040  20.560  0.00  0.00    +0.000 OA
ENDBRANCH   8  11
BRANCH   1  21
ATOM     20  C   UNL     1       7.228   5.513  19.248  0.00  0.00    +0.000 C 
ATOM     21  N   UNL     1       5.851   5.788  18.845  0.00  0.00    +0.000 N 
BRANCH  21  22
ATOM     22  C   UNL     1       5.673   6.430  17.528  0.00  0.00    +0.000 C 
BRANCH  22  23
ATOM     23  C   UNL     1       5.789   5.494  16.335  0.00  0.00    +0.000 A 
ATOM     24  C   UNL     1       4.806   4.827  15.625  0.00  0.00    +0.000 A 
ATOM     25  C   UNL     1       5.330   4.050  14.547  0.00  0.00    +0.000 A 
ATOM     26  C   UNL     1       6.704   4.130  14.479  0.00  0.00    +0.000 A 
ATOM     27  S   UNL     1       7.348   5.140  15.695  0.00  0.00    +0.000 S 
ENDBRANCH  22  23
ENDBRANCH  21  22
ENDBRANCH   1  21
TORSDOF 4
ENDMDL
MODEL 4
REMARK VINA RESULT:      -7.7      1.054      1.183
REMARK  Name = 
REMARK  5 active torsions:
REMARK  status: ('A' for Active; 'I' for Inactive)
REMARK    1  A    between atoms: C_1  and  N_2
REMARK    2  A    between atoms: N_2  and  C_3
REMARK    3  A    between atoms: N_2  and  C_9
REMARK    4  A    between atoms: C_3  and  C_4
REMARK    5  A    between atoms: C_16  and  C_17
REMARK                            x       y       z     vdW  Elec       q    Type
REMARK                         _______ _______ _______ _____ _____    ______ ____
ROOT
ATOM      1  C   UNL     1       4.992   4.083  19.290  0.00  0.00    +0.000 A 
ATOM      2  N   UNL     1       5.287   2.810  19.610  0.00  0.00    +0.000 NA
ATOM      3  C   UNL     1       4.357   2.119  20.283  0.00  0.00    +0.000 A 
ATOM      4  N   UNL     1       3.166   2.570  20.688  0.00  0.00    +0.000 NA
ATOM      5  C   UNL     1       2.873   3.833  20.369  0.00  0.00    +0.000 A 
ATOM      6  C   UNL     1       1.674   4.386  20.806  0.00  0.00    +0.000 A 
ATOM      7  C   UNL     1       1.315   5.715  20.521  0.00  0.00    +0.000 A 
ATOM      8  C   UNL     1       2.153   6.537  19.765  0.00  0.00    +0.000 A 
ATOM      9  C   UNL     1       3.357   5.967  19.334  0.00  0.00    +0.000 A 
ATOM     10  C   UNL     1       3.745   4.642  19.636  0.00  0.00    +0.000 A 
ENDROOT
BRANCH   8  11
ATOM     11  C   UNL     1       1.840   7.947  19.432  0.00  0.00    +0.000 A 
ATOM     12  C   UNL     1       2.174   8.510  18.175  0.00  0.00    +0.000 A 
ATOM     13  C   UNL     1       1.907   9.853  17.873  0.00  0.00    +0.000 A 
ATOM     14  C   UNL     1       1.317  10.627  18.846  0.00  0.00    +0.000 A 
ATOM     15  C   UNL     1       0.987  10.106  20.070  0.00  0.00    +0.000 A 
ATOM     16  C   UNL     1       1.223   8.787  20.383  0.00  0.00    +0.000 A 
ATOM     17  O   UNL     1       0.430  11.027  20.900  0.00  0.00    +0.000 OA
ATOM     18  C   UNL     1       0.468  12.200  20.062  0.00  0.00    +0.000 C 
ATOM     19  O   UNL     1       0.999  11.944  18.743  0.00  0.00    +0.000 OA
ENDBRANCH   8  11
BRANCH   1  21
ATOM     20  C   UNL     1       6.745   5.724  19.598  0.00  0.00    +0.000 C 
ATOM     21  N   UNL     1       5.982   4.882  18.679  0.00  0.00    +0.000 N 
BRANCH  21  22
ATOM     22  C   UNL     1       6.754   4.212  17.615  0.00  0.00    +0.000 C 
BRANCH  22  23
ATOM     23  C   UNL     1       6.247   4.457  16.202  0.00  0.00    +0.000 A 
ATOM     24  C   UNL     1       6.299   3.645  15.081  0.00  0.00    +0.000 A 
ATOM     25  C   UNL     1       5.689   4.240  13.936  0.00  0.00    +0.000 A 
ATOM     26  C   UNL     1       5.205   5.501  14.211  0.00  0.00    +0.000 A 
ATOM     27  S   UNL     1       5.477   5.952  15.834  0.00  0.00    +0.000 S 
ENDBRANCH  22  23
ENDBRANCH  21  22
ENDBRANCH   1  21
TORSDOF 4
ENDMDL
MODEL 5
REMARK VINA RESULT:      -7.6      5.286      8.394
REMARK  Name = 
REMARK  5 active torsions:
REMARK  status: ('A' for Active; 'I' for Inactive)
REMARK    1  A    between atoms: C_1  and  N_2
REMARK    2  A    between atoms: N_2  and  C_3
REMARK    3  A    between atoms: N_2  and  C_9
REMARK    4  A    between atoms: C_3  and  C_4
REMARK    5  A    between atoms: C_16  and  C_17
REMARK                            x       y       z     vdW  Elec       q    Type
REMARK                         _______ _______ _______ _____ _____    ______ ____
ROOT
ATOM      1  C   UNL     1      -0.909  12.003  20.510  0.00  0.00    +0.000 A 
ATOM      2  N   UNL     1      -1.614  12.801  21.332  0.00  0.00    +0.000 NA
ATOM      3  C   UNL     1      -1.658  12.458  22.626  0.00  0.00    +0.000 A 
ATOM      4  N   UNL     1      -1.085  11.389  23.188  0.00  0.00    +0.000 NA
ATOM      5  C   UNL     1      -0.385  10.598  22.372  0.00  0.00    +0.000 A 
ATOM      6  C   UNL     1       0.193   9.437  22.877  0.00  0.00    +0.000 A 
ATOM      7  C   UNL     1       0.925   8.552  22.068  0.00  0.00    +0.000 A 
ATOM      8  C   UNL     1       1.118   8.815  20.710  0.00  0.00    +0.000 A 
ATOM      9  C   UNL     1       0.530   9.986  20.216  0.00  0.00    +0.000 A 
ATOM     10  C   UNL     1      -0.234  10.871  21.010  0.00  0.00    +0.000 A 
ENDROOT
BRANCH   8  11
ATOM     11  C   UNL     1       1.874   7.924  19.799  0.00  0.00    +0.000 A 
ATOM     12  C   UNL     1       2.271   8.342  18.504  0.00  0.00    +0.000 A 
ATOM     13  C   UNL     1       2.958   7.487  17.630  0.00  0.00    +0.000 A 
ATOM     14  C   UNL     1       3.229   6.208  18.061  0.00  0.00    +0.000 A 
ATOM     15  C   UNL     1       2.853   5.780  19.307  0.00  0.00    +0.000 A 
ATOM     16  C   UNL     1       2.194   6.606  20.189  0.00  0.00    +0.000 A 
ATOM     17  O   UNL     1       3.192   4.485  19.543  0.00  0.00    +0.000 OA
ATOM     18  C   UNL     1       3.809   4.138  18.286  0.00  0.00    +0.000 C 
ATOM     19  O   UNL     1       3.866   5.239  17.353  0.00  0.00    +0.000 OA
ENDBRANCH   8  11
BRANCH   1  21
ATOM     20  C   UNL     1       0.072  13.227  18.665  0.00  0.00    +0.000 C 
ATOM     21  N   UNL     1      -0.926  12.262  19.123  0.00  0.00    +0.000 N 
BRANCH  21  22
ATOM     22  C   UNL     1      -1.123  11.074  18.270  0.00  0.00    +0.000 C 
BRANCH  22  23
ATOM     23  C   UNL     1      -2.396  11.084  17.438  0.00  0.00    +0.000 A 
ATOM     24  C   UNL     1      -2.593  10.773  16.103  0.00  0.00    +0.000 A 
ATOM     25  C   UNL     1      -3.959  10.891  15.702  0.00  0.00    +0.000 A 
ATOM     26  C   UNL     1      -4.763  11.310  16.739  0.00  0.00    +0.000 A 
ATOM     27  S   UNL     1      -3.879  11.547  18.180  0.00  0.00    +0.000 S 
ENDBRANCH  22  23
ENDBRANCH  21  22
ENDBRANCH   1  21
TORSDOF 4
ENDMDL
MODEL 6
REMARK VINA RESULT:      -7.6      5.259      8.473
REMARK  Name = 
REMARK  5 active torsions:
REMARK  status: ('A' for Active; 'I' for Inactive)
REMARK    1  A    between atoms: C_1  and  N_2
REMARK    2  A    between atoms: N_2  and  C_3
REMARK    3  A    between atoms: N_2  and  C_9
REMARK    4  A    between atoms: C_3  and  C_4
REMARK    5  A    between atoms: C_16  and  C_17
REMARK                            x       y       z     vdW  Elec       q    Type
REMARK                         _______ _______ _______ _____ _____    ______ ____
ROOT
ATOM      1  C   UNL     1       0.197  12.596  21.225  0.00  0.00    +0.000 A 
ATOM      2  N   UNL     1      -0.532  13.371  22.047  0.00  0.00    +0.000 NA
ATOM      3  C   UNL     1      -1.204  12.757  23.029  0.00  0.00    +0.000 A 
ATOM      4  N   UNL     1      -1.242  11.442  23.268  0.00  0.00    +0.000 NA
ATOM      5  C   UNL     1      -0.517  10.672  22.452  0.00  0.00    +0.000 A 
ATOM      6  C   UNL     1      -0.552   9.291  22.609  0.00  0.00    +0.000 A 
ATOM      7  C   UNL     1       0.171   8.424  21.771  0.00  0.00    +0.000 A 
ATOM      8  C   UNL     1       0.977   8.925  20.746  0.00  0.00    +0.000 A 
ATOM      9  C   UNL     1       1.001  10.318  20.601  0.00  0.00    +0.000 A 
ATOM     10  C   UNL     1       0.257  11.200  21.416  0.00  0.00    +0.000 A 
ENDROOT
BRANCH   8  11
ATOM     11  C   UNL     1       1.761   8.071  19.824  0.00  0.00    +0.000 A 
ATOM     12  C   UNL     1       2.137   8.513  18.532  0.00  0.00    +0.000 A 
ATOM     13  C   UNL     1       2.851   7.692  17.648  0.00  0.00    +0.000 A 
ATOM     14  C   UNL     1       3.171   6.421  18.067  0.00  0.00    +0.000 A 
ATOM     15  C   UNL     1       2.817   5.969  19.310  0.00  0.00    +0.000 A 
ATOM     16  C   UNL     1       2.131   6.762  20.202  0.00  0.00    +0.000 A 
ATOM     17  O   UNL     1       3.205   4.685  19.533  0.00  0.00    +0.000 OA
ATOM     18  C   UNL     1       3.829   4.372  18.271  0.00  0.00    +0.000 C 
ATOM     19  O   UNL     1       3.841   5.482  17.347  0.00  0.00    +0.000 OA
ENDBRANCH   8  11
BRANCH   1  21
ATOM     20  C   UNL     1      -0.058  13.521  19.002  0.00  0.00    +0.000 C 
ATOM     21  N   UNL     1       0.833  13.186  20.111  0.00  0.00    +0.000 N 
BRANCH  21  22
ATOM     22  C   UNL     1       1.867  14.185  20.442  0.00  0.00    +0.000 C 
BRANCH  22  23
ATOM     23  C   UNL     1       2.441  14.935  19.249  0.00  0.00    +0.000 A 
ATOM     24  C   UNL     1       3.309  14.506  18.259  0.00  0.00    +0.000 A 
ATOM     25  C   UNL     1       3.596  15.521  17.297  0.00  0.00    +0.000 A 
ATOM     26  C   UNL     1       2.953  16.704  17.592  0.00  0.00    +0.000 A 
ATOM     27  S   UNL     1       2.009  16.584  19.008  0.00  0.00    +0.000 S 
ENDBRANCH  22  23
ENDBRANCH  21  22
ENDBRANCH   1  21
TORSDOF 4
ENDMDL
MODEL 7
REMARK VINA RESULT:      -7.4      4.883      8.195
REMARK  Name = 
REMARK  5 active torsions:
REMARK  status: ('A' for Active; 'I' for Inactive)
REMARK    1  A    between atoms: C_1  and  N_2
REMARK    2  A    between atoms: N_2  and  C_3
REMARK    3  A    between atoms: N_2  and  C_9
REMARK    4  A    between atoms: C_3  and  C_4
REMARK    5  A    between atoms: C_16  and  C_17
REMARK                            x       y       z     vdW  Elec       q    Type
REMARK                         _______ _______ _______ _____ _____    ______ ____
ROOT
ATOM      1  C   UNL     1      -0.819  11.446  20.165  0.00  0.00    +0.000 A 
ATOM      2  N   UNL     1      -1.462  12.347  20.928  0.00  0.00    +0.000 NA
ATOM      3  C   UNL     1      -1.339  12.221  22.256  0.00  0.00    +0.000 A 
ATOM      4  N   UNL     1      -0.654  11.276  22.907  0.00  0.00    +0.000 NA
ATOM      5  C   UNL     1      -0.015  10.382  22.149  0.00  0.00    +0.000 A 
ATOM      6  C   UNL     1       0.673   9.337  22.759  0.00  0.00    +0.000 A 
ATOM      7  C   UNL     1       1.348   8.353  22.018  0.00  0.00    +0.000 A 
ATOM      8  C   UNL     1       1.370   8.394  20.622  0.00  0.00    +0.000 A 
ATOM      9  C   UNL     1       0.672   9.451  20.023  0.00  0.00    +0.000 A 
ATOM     10  C   UNL     1      -0.036  10.431  20.753  0.00  0.00    +0.000 A 
ENDROOT
BRANCH   8  11
ATOM     11  C   UNL     1       2.057   7.388  19.779  0.00  0.00    +0.000 A 
ATOM     12  C   UNL     1       2.016   6.005  20.083  0.00  0.00    +0.000 A 
ATOM     13  C   UNL     1       2.693   5.057  19.304  0.00  0.00    +0.000 A 
ATOM     14  C   UNL     1       3.422   5.510  18.228  0.00  0.00    +0.000 A 
ATOM     15  C   UNL     1       3.479   6.843  17.915  0.00  0.00    +0.000 A 
ATOM     16  C   UNL     1       2.808   7.790  18.654  0.00  0.00    +0.000 A 
ATOM     17  O   UNL     1       4.260   7.095  16.832  0.00  0.00    +0.000 OA
ATOM     18  C   UNL     1       4.709   5.763  16.510  0.00  0.00    +0.000 C 
ATOM     19  O   UNL     1       4.153   4.747  17.372  0.00  0.00    +0.000 OA
ENDBRANCH   8  11
BRANCH   1  21
ATOM     20  C   UNL     1      -2.218  10.800  18.297  0.00  0.00    +0.000 C 
ATOM     21  N   UNL     1      -1.008  11.473  18.767  0.00  0.00    +0.000 N 
BRANCH  21  22
ATOM     22  C   UNL     1      -0.686  12.760  18.120  0.00  0.00    +0.000 C 
BRANCH  22  23
ATOM     23  C   UNL     1       0.681  13.329  18.467  0.00  0.00    +0.000 A 
ATOM     24  C   UNL     1       1.942  12.779  18.315  0.00  0.00    +0.000 A 
ATOM     25  C   UNL     1       2.985  13.652  18.751  0.00  0.00    +0.000 A 
ATOM     26  C   UNL     1       2.486  14.839  19.243  0.00  0.00    +0.000 A 
ATOM     27  S   UNL     1       0.783  14.898  19.169  0.00  0.00    +0.000 S 
ENDBRANCH  22  23
ENDBRANCH  21  22
ENDBRANCH   1  21
TORSDOF 4
ENDMDL
MODEL 8
REMARK VINA RESULT:      -7.4      5.519      8.982
REMARK  Name = 
REMARK  5 active torsions:
REMARK  status: ('A' for Active; 'I' for Inactive)
REMARK    1  A    between atoms: C_1  and  N_2
REMARK    2  A    between atoms: N_2  and  C_3
REMARK    3  A    between atoms: N_2  and  C_9
REMARK    4  A    between atoms: C_3  and  C_4
REMARK    5  A    between atoms: C_16  and  C_17
REMARK                            x       y       z     vdW  Elec       q    Type
REMARK                         _______ _______ _______ _____ _____    ______ ____
ROOT
ATOM      1  C   UNL     1      -1.435  12.007  20.681  0.00  0.00    +0.000 A 
ATOM      2  N   UNL     1      -2.161  12.747  21.538  0.00  0.00    +0.000 NA
ATOM      3  C   UNL     1      -2.076  12.437  22.838  0.00  0.00    +0.000 A 
ATOM      4  N   UNL     1      -1.353  11.450  23.376  0.00  0.00    +0.000 NA
ATOM      5  C   UNL     1      -0.631  10.715  22.526  0.00  0.00    +0.000 A 
ATOM      6  C   UNL     1       0.102   9.637  23.010  0.00  0.00    +0.000 A 
ATOM      7  C   UNL     1       0.865   8.813  22.165  0.00  0.00    +0.000 A 
ATOM      8  C   UNL     1       0.932   9.058  20.792  0.00  0.00    +0.000 A 
ATOM      9  C   UNL     1       0.187  10.147  20.320  0.00  0.00    +0.000 A 
ATOM     10  C   UNL     1      -0.608  10.966  21.152  0.00  0.00    +0.000 A 
ENDROOT
BRANCH   8  11
ATOM     11  C   UNL     1       1.712   8.228  19.845  0.00  0.00    +0.000 A 
ATOM     12  C   UNL     1       2.030   8.681  18.540  0.00  0.00    +0.000 A 
ATOM     13  C   UNL     1       2.740   7.882  17.633  0.00  0.00    +0.000 A 
ATOM     14  C   UNL     1       3.114   6.622  18.041  0.00  0.00    +0.000 A 
ATOM     15  C   UNL     1       2.816   6.160  19.296  0.00  0.00    +0.000 A 
ATOM     16  C   UNL     1       2.135   6.932  20.210  0.00  0.00    +0.000 A 
ATOM     17  O   UNL     1       3.251   4.890  19.506  0.00  0.00    +0.000 OA
ATOM     18  C   UNL     1       3.843   4.595  18.224  0.00  0.00    +0.000 C 
ATOM     19  O   UNL     1       3.789   5.704  17.300  0.00  0.00    +0.000 OA
ENDBRANCH   8  11
BRANCH   1  21
ATOM     20  C   UNL     1      -0.363  12.663  18.612  0.00  0.00    +0.000 C 
ATOM     21  N   UNL     1      -1.579  12.226  19.295  0.00  0.00    +0.000 N 
BRANCH  21  22
ATOM     22  C   UNL     1      -2.398  11.222  18.588  0.00  0.00    +0.000 C 
BRANCH  22  23
ATOM     23  C   UNL     1      -3.835  11.641  18.316  0.00  0.00    +0.000 A 
ATOM     24  C   UNL     1      -4.781  12.190  19.165  0.00  0.00    +0.000 A 
ATOM     25  C   UNL     1      -6.021  12.461  18.511  0.00  0.00    +0.000 A 
ATOM     26  C   UNL     1      -5.993  12.092  17.184  0.00  0.00    +0.000 A 
ATOM     27  S   UNL     1      -4.483  11.436  16.734  0.00  0.00    +0.000 S 
ENDBRANCH  22  23
ENDBRANCH  21  22
ENDBRANCH   1  21
TORSDOF 4
ENDMDL
MODEL 9
REMARK VINA RESULT:      -7.4      4.784      8.396
REMARK  Name = 
REMARK  5 active torsions:
REMARK  status: ('A' for Active; 'I' for Inactive)
REMARK    1  A    between atoms: C_1  and  N_2
REMARK    2  A    between atoms: N_2  and  C_3
REMARK    3  A    between atoms: N_2  and  C_9
REMARK    4  A    between atoms: C_3  and  C_4
REMARK    5  A    between atoms: C_16  and  C_17
REMARK                            x       y       z     vdW  Elec       q    Type
REMARK                         _______ _______ _______ _____ _____    ______ ____
ROOT
ATOM      1  C   UNL     1      -1.119  12.012  20.209  0.00  0.00    +0.000 A 
ATOM      2  N   UNL     1      -1.829  12.954  20.856  0.00  0.00    +0.000 NA
ATOM      3  C   UNL     1      -1.953  12.821  22.183  0.00  0.00    +0.000 A 
ATOM      4  N   UNL     1      -1.455  11.834  22.935  0.00  0.00    +0.000 NA
ATOM      5  C   UNL     1      -0.750  10.900  22.293  0.00  0.00    +0.000 A 
ATOM      6  C   UNL     1      -0.249   9.814  23.004  0.00  0.00    +0.000 A 
ATOM      7  C   UNL     1       0.484   8.788  22.384  0.00  0.00    +0.000 A 
ATOM      8  C   UNL     1       0.756   8.827  21.015  0.00  0.00    +0.000 A 
ATOM      9  C   UNL     1       0.244   9.926  20.312  0.00  0.00    +0.000 A 
ATOM     10  C   UNL     1      -0.519  10.950  20.915  0.00  0.00    +0.000 A 
ENDROOT
BRANCH   8  11
ATOM     11  C   UNL     1       1.517   7.778  20.296  0.00  0.00    +0.000 A 
ATOM     12  C   UNL     1       1.604   6.451  20.784  0.00  0.00    +0.000 A 
ATOM     13  C   UNL     1       2.351   5.467  20.121  0.00  0.00    +0.000 A 
ATOM     14  C   UNL     1       3.020   5.831  18.975  0.00  0.00    +0.000 A 
ATOM     15  C   UNL     1       2.954   7.108  18.484  0.00  0.00    +0.000 A 
ATOM     16  C   UNL     1       2.213   8.086  19.108  0.00  0.00    +0.000 A 
ATOM     17  O   UNL     1       3.693   7.277  17.356  0.00  0.00    +0.000 OA
ATOM     18  C   UNL     1       4.253   5.957  17.204  0.00  0.00    +0.000 C 
ATOM     19  O   UNL     1       3.803   5.024  18.210  0.00  0.00    +0.000 OA
ENDBRANCH   8  11
BRANCH   1  21
ATOM     20  C   UNL     1      -2.186  11.426  18.115  0.00  0.00    +0.000 C 
ATOM     21  N   UNL     1      -1.055  12.051  18.800  0.00  0.00    +0.000 N 
BRANCH  21  22
ATOM     22  C   UNL     1      -0.574  13.325  18.233  0.00  0.00    +0.000 C 
BRANCH  22  23
ATOM     23  C   UNL     1       0.771  13.799  18.764  0.00  0.00    +0.000 A 
ATOM     24  C   UNL     1       1.093  14.927  19.499  0.00  0.00    +0.000 A 
ATOM     25  C   UNL     1       2.483  15.000  19.820  0.00  0.00    +0.000 A 
ATOM     26  C   UNL     1       3.185  13.933  19.303  0.00  0.00    +0.000 A 
ATOM     27  S   UNL     1       2.176  12.855  18.449  0.00  0.00    +0.000 S 
ENDBRANCH  22  23
ENDBRANCH  21  22
ENDBRANCH   1  21
TORSDOF 4
ENDMDL
