MODEL 1
REMARK VINA RESULT:      -7.7      0.000      0.000
REMARK  Name = 
REMARK  12 active torsions:
REMARK  status: ('A' for Active; 'I' for Inactive)
REMARK    1  A    between atoms: C_1  and  C_2
REMARK    2  A    between atoms: C_2  and  O_4
REMARK    3  A    between atoms: O_4  and  C_5
REMARK    4  A    between atoms: C_5  and  C_6
REMARK    5  A    between atoms: C_8  and  N_9
REMARK    6  A    between atoms: C_13  and  C_14
REMARK    7  A    between atoms: C_24  and  O_25
REMARK    8  A    between atoms: O_25  and  C_26
REMARK    9  A    between atoms: C_26  and  C_27
REMARK   10  A    between atoms: C_29  and  O_30
REMARK   11  A    between atoms: O_30  and  C_31
REMARK   12  A    between atoms: C_31  and  C_32
REMARK                            x       y       z     vdW  Elec       q    Type
REMARK                         _______ _______ _______ _____ _____    ______ ____
ROOT
ATOM      1  C   UNL     1       5.173   5.056  18.831  0.00  0.00    +0.000 C 
ATOM      2  O   UNL     1       4.242   5.674  19.733  0.00  0.00    +0.000 OA
ATOM      3  C   UNL     1       2.914   5.595  19.163  0.00  0.00    +0.000 C 
ATOM      4  C   UNL     1       3.015   4.749  17.886  0.00  0.00    +0.000 C 
ATOM      5  C   UNL     1       4.477   4.926  17.475  0.00  0.00    +0.000 C 
ENDROOT
BRANCH   3   6
ATOM      6  N   UNL     1       2.440   6.952  18.966  0.00  0.00    +0.000 N 
ATOM      7  C   UNL     1       2.667   7.750  17.878  0.00  0.00    +0.000 A 
ATOM      8  N   UNL     1       2.133   8.941  18.018  0.00  0.00    +0.000 NA
ATOM      9  C   UNL     1       1.574   8.938  19.279  0.00  0.00    +0.000 A 
ATOM     10  C   UNL     1       0.900   9.915  20.031  0.00  0.00    +0.000 A 
ATOM     11  N   UNL     1       0.499   9.594  21.298  0.00  0.00    +0.000 NA
ATOM     12  C   UNL     1       0.754   8.349  21.755  0.00  0.00    +0.000 A 
ATOM     13  N   UNL     1       1.388   7.344  21.123  0.00  0.00    +0.000 NA
ATOM     14  C   UNL     1       1.765   7.706  19.888  0.00  0.00    +0.000 A 
BRANCH  10  15
ATOM     15  C   UNL     1       0.632  11.265  19.520  0.00  0.00    +0.000 A 
ATOM     16  C   UNL     1      -0.497  11.555  18.731  0.00  0.00    +0.000 A 
ATOM     17  C   UNL     1      -0.735  12.837  18.228  0.00  0.00    +0.000 A 
ATOM     18  C   UNL     1       0.154  13.869  18.507  0.00  0.00    +0.000 A 
ATOM     19  C   UNL     1       1.274  13.617  19.294  0.00  0.00    +0.000 A 
ATOM     20  C   UNL     1       1.508  12.332  19.797  0.00  0.00    +0.000 A 
ENDBRANCH  10  15
ENDBRANCH   3   6
BRANCH   1  21
ATOM     21  C   UNL     1       6.457   5.892  18.780  0.00  0.00    +0.000 C 
BRANCH  21  22
ATOM     22  O   UNL     1       6.330   7.034  17.926  0.00  0.00    +0.000 OA
BRANCH  22  24
ATOM     23  C   UNL     1       8.014   8.660  17.836  0.00  0.00    +0.000 C 
ATOM     24  C   UNL     1       7.471   7.385  17.271  0.00  0.00    +0.000 C 
ATOM     25  O   UNL     1       7.962   6.780  16.330  0.00  0.00    +0.000 OA
ENDBRANCH  22  24
ENDBRANCH  21  22
ENDBRANCH   1  21
BRANCH   4  26
ATOM     26  O   UNL     1       2.797   3.347  18.190  0.00  0.00    +0.000 OA
BRANCH  26  27
ATOM     27  C   UNL     1       1.548   3.044  18.637  0.00  0.00    +0.000 C 
ATOM     28  C   UNL     1       1.598   2.444  20.008  0.00  0.00    +0.000 C 
ATOM     29  O   UNL     1       0.517   3.254  18.017  0.00  0.00    +0.000 OA
ENDBRANCH  26  27
ENDBRANCH   4  26
BRANCH   5  30
ATOM     30  O   UNL     1       5.043   3.814  16.755  0.00  0.00    +0.000 OA
BRANCH  30  31
ATOM     31  C   UNL     1       5.737   4.114  15.626  0.00  0.00    +0.000 C 
ATOM     32  C   UNL     1       5.206   5.372  15.004  0.00  0.00    +0.000 C 
ATOM     33  O   UNL     1       6.693   3.482  15.207  0.00  0.00    +0.000 OA
ENDBRANCH  30  31
ENDBRANCH   5  30
TORSDOF 9
ENDMDL
MODEL 2
REMARK VINA RESULT:      -7.7      1.366      1.777
REMARK  Name = 
REMARK  12 active torsions:
REMARK  status: ('A' for Active; 'I' for Inactive)
REMARK    1  A    between atoms: C_1  and  C_2
REMARK    2  A    between atoms: C_2  and  O_4
REMARK    3  A    between atoms: O_4  and  C_5
REMARK    4  A    between atoms: C_5  and  C_6
REMARK    5  A    between atoms: C_8  and  N_9
REMARK    6  A    between atoms: C_13  and  C_14
REMARK    7  A    between atoms: C_24  and  O_25
REMARK    8  A    between atoms: O_25  and  C_26
REMARK    9  A    between atoms: C_26  and  C_27
REMARK   10  A    between atoms: C_29  and  O_30
REMARK   11  A    between atoms: O_30  and  C_31
REMARK   12  A    between atoms: C_31  and  C_32
REMARK                            x       y       z     vdW  Elec       q    Type
REMARK                         _______ _______ _______ _____ _____    ______ ____
ROOT
ATOM      1  C   UNL     1       6.358   5.405  17.454  0.00  0.00    +0.000 C 
ATOM      2  O   UNL     1       5.539   5.881  18.533  0.00  0.00    +0.000 OA
ATOM      3  C   UNL     1       4.163   5.513  18.274  0.00  0.00    +0.000 C 
ATOM      4  C   UNL     1       4.156   4.630  17.017  0.00  0.00    +0.000 C 
ATOM      5  C   UNL     1       5.428   5.064  16.289  0.00  0.00    +0.000 C 
ENDROOT
BRANCH   3   6
ATOM      6  N   UNL     1       3.393   6.738  18.168  0.00  0.00    +0.000 N 
ATOM      7  C   UNL     1       3.453   7.661  17.161  0.00  0.00    +0.000 A 
ATOM      8  N   UNL     1       2.655   8.680  17.376  0.00  0.00    +0.000 NA
ATOM      9  C   UNL     1       2.084   8.437  18.607  0.00  0.00    +0.000 A 
ATOM     10  C   UNL     1       1.185   9.162  19.407  0.00  0.00    +0.000 A 
ATOM     11  N   UNL     1       0.841   8.646  20.625  0.00  0.00    +0.000 NA
ATOM     12  C   UNL     1       1.367   7.455  20.989  0.00  0.00    +0.000 A 
ATOM     13  N   UNL     1       2.231   6.683  20.304  0.00  0.00    +0.000 NA
ATOM     14  C   UNL     1       2.541   7.231  19.120  0.00  0.00    +0.000 A 
BRANCH  10  15
ATOM     15  C   UNL     1       0.624  10.456  18.998  0.00  0.00    +0.000 A 
ATOM     16  C   UNL     1       1.389  11.637  19.007  0.00  0.00    +0.000 A 
ATOM     17  C   UNL     1       0.844  12.871  18.639  0.00  0.00    +0.000 A 
ATOM     18  C   UNL     1      -0.486  12.952  18.245  0.00  0.00    +0.000 A 
ATOM     19  C   UNL     1      -1.266  11.800  18.213  0.00  0.00    +0.000 A 
ATOM     20  C   UNL     1      -0.716  10.566  18.582  0.00  0.00    +0.000 A 
ENDBRANCH  10  15
ENDBRANCH   3   6
BRANCH   1  21
ATOM     21  C   UNL     1       7.405   6.471  17.108  0.00  0.00    +0.000 C 
BRANCH  21  22
ATOM     22  O   UNL     1       7.766   7.268  18.241  0.00  0.00    +0.000 OA
BRANCH  22  24
ATOM     23  C   UNL     1       8.928   9.195  18.892  0.00  0.00    +0.000 C 
ATOM     24  C   UNL     1       7.901   8.598  17.982  0.00  0.00    +0.000 C 
ATOM     25  O   UNL     1       7.252   9.228  17.162  0.00  0.00    +0.000 OA
ENDBRANCH  22  24
ENDBRANCH  21  22
ENDBRANCH   1  21
BRANCH   4  26
ATOM     26  O   UNL     1       4.297   3.232  17.381  0.00  0.00    +0.000 OA
BRANCH  26  27
ATOM     27  C   UNL     1       3.137   2.606  17.717  0.00  0.00    +0.000 C 
ATOM     28  C   UNL     1       3.385   1.502  18.698  0.00  0.00    +0.000 C 
ATOM     29  O   UNL     1       2.033   2.915  17.297  0.00  0.00    +0.000 OA
ENDBRANCH  26  27
ENDBRANCH   4  26
BRANCH   5  30
ATOM     30  O   UNL     1       6.039   4.044  15.476  0.00  0.00    +0.000 OA
BRANCH  30  31
ATOM     31  C   UNL     1       6.434   4.418  14.231  0.00  0.00    +0.000 C 
ATOM     32  C   UNL     1       5.689   3.635  13.189  0.00  0.00    +0.000 C 
ATOM     33  O   UNL     1       7.239   5.303  13.990  0.00  0.00    +0.000 OA
ENDBRANCH  30  31
ENDBRANCH   5  30
TORSDOF 9
ENDMDL
MODEL 3
REMARK VINA RESULT:      -7.7      1.349      1.543
REMARK  Name = 
REMARK  12 active torsions:
REMARK  status: ('A' for Active; 'I' for Inactive)
REMARK    1  A    between atoms: C_1  and  C_2
REMARK    2  A    between atoms: C_2  and  O_4
REMARK    3  A    between atoms: O_4  and  C_5
REMARK    4  A    between atoms: C_5  and  C_6
REMARK    5  A    between atoms: C_8  and  N_9
REMARK    6  A    between atoms: C_13  and  C_14
REMARK    7  A    between atoms: C_24  and  O_25
REMARK    8  A    between atoms: O_25  and  C_26
REMARK    9  A    between atoms: C_26  and  C_27
REMARK   10  A    between atoms: C_29  and  O_30
REMARK   11  A    between atoms: O_30  and  C_31
REMARK   12  A    between atoms: C_31  and  C_32
REMARK                            x       y       z     vdW  Elec       q    Type
REMARK                         _______ _______ _______ _____ _____    ______ ____
ROOT
ATOM      1  C   UNL     1       6.239   5.323  17.219  0.00  0.00    +0.000 C 
ATOM      2  O   UNL     1       5.504   5.834  18.342  0.00  0.00    +0.000 OA
ATOM      3  C   UNL     1       4.108   5.482  18.188  0.00  0.00    +0.000 C 
ATOM      4  C   UNL     1       4.000   4.575  16.953  0.00  0.00    +0.000 C 
ATOM      5  C   UNL     1       5.225   4.974  16.129  0.00  0.00    +0.000 C 
ENDROOT
BRANCH   3   6
ATOM      6  N   UNL     1       3.350   6.717  18.110  0.00  0.00    +0.000 N 
ATOM      7  C   UNL     1       3.397   7.647  17.109  0.00  0.00    +0.000 A 
ATOM      8  N   UNL     1       2.617   8.674  17.351  0.00  0.00    +0.000 NA
ATOM      9  C   UNL     1       2.073   8.428  18.594  0.00  0.00    +0.000 A 
ATOM     10  C   UNL     1       1.202   9.157  19.421  0.00  0.00    +0.000 A 
ATOM     11  N   UNL     1       0.882   8.635  20.644  0.00  0.00    +0.000 NA
ATOM     12  C   UNL     1       1.402   7.435  20.985  0.00  0.00    +0.000 A 
ATOM     13  N   UNL     1       2.240   6.659  20.273  0.00  0.00    +0.000 NA
ATOM     14  C   UNL     1       2.528   7.212  19.087  0.00  0.00    +0.000 A 
BRANCH  10  15
ATOM     15  C   UNL     1       0.647  10.460  19.036  0.00  0.00    +0.000 A 
ATOM     16  C   UNL     1      -0.696  10.613  18.643  0.00  0.00    +0.000 A 
ATOM     17  C   UNL     1      -1.214  11.852  18.255  0.00  0.00    +0.000 A 
ATOM     18  C   UNL     1      -0.397  12.977  18.256  0.00  0.00    +0.000 A 
ATOM     19  C   UNL     1       0.932  12.861  18.650  0.00  0.00    +0.000 A 
ATOM     20  C   UNL     1       1.447  11.619  19.039  0.00  0.00    +0.000 A 
ENDBRANCH  10  15
ENDBRANCH   3   6
BRANCH   1  21
ATOM     21  C   UNL     1       7.274   6.365  16.779  0.00  0.00    +0.000 C 
BRANCH  21  22
ATOM     22  O   UNL     1       6.992   7.669  17.301  0.00  0.00    +0.000 OA
BRANCH  22  24
ATOM     23  C   UNL     1       8.145   9.635  17.838  0.00  0.00    +0.000 C 
ATOM     24  C   UNL     1       7.957   8.177  18.116  0.00  0.00    +0.000 C 
ATOM     25  O   UNL     1       8.612   7.536  18.923  0.00  0.00    +0.000 OA
ENDBRANCH  22  24
ENDBRANCH  21  22
ENDBRANCH   1  21
BRANCH   4  26
ATOM     26  O   UNL     1       4.147   3.182  17.335  0.00  0.00    +0.000 OA
BRANCH  26  27
ATOM     27  C   UNL     1       3.062   2.639  17.950  0.00  0.00    +0.000 C 
ATOM     28  C   UNL     1       3.440   2.009  19.254  0.00  0.00    +0.000 C 
ATOM     29  O   UNL     1       1.922   2.677  17.512  0.00  0.00    +0.000 OA
ENDBRANCH  26  27
ENDBRANCH   4  26
BRANCH   5  30
ATOM     30  O   UNL     1       5.763   3.929  15.298  0.00  0.00    +0.000 OA
BRANCH  30  31
ATOM     31  C   UNL     1       6.234   4.306  14.080  0.00  0.00    +0.000 C 
ATOM     32  C   UNL     1       5.505   3.578  12.989  0.00  0.00    +0.000 C 
ATOM     33  O   UNL     1       7.090   5.156  13.895  0.00  0.00    +0.000 OA
ENDBRANCH  30  31
ENDBRANCH   5  30
TORSDOF 9
ENDMDL
MODEL 4
REMARK VINA RESULT:      -7.7      0.724      1.090
REMARK  Name = 
REMARK  12 active torsions:
REMARK  status: ('A' for Active; 'I' for Inactive)
REMARK    1  A    between atoms: C_1  and  C_2
REMARK    2  A    between atoms: C_2  and  O_4
REMARK    3  A    between atoms: O_4  and  C_5
REMARK    4  A    between atoms: C_5  and  C_6
REMARK    5  A    between atoms: C_8  and  N_9
REMARK    6  A    between atoms: C_13  and  C_14
REMARK    7  A    between atoms: C_24  and  O_25
REMARK    8  A    between atoms: O_25  and  C_26
REMARK    9  A    between atoms: C_26  and  C_27
REMARK   10  A    between atoms: C_29  and  O_30
REMARK   11  A    between atoms: O_30  and  C_31
REMARK   12  A    between atoms: C_31  and  C_32
REMARK                            x       y       z     vdW  Elec       q    Type
REMARK                         _______ _______ _______ _____ _____    ______ ____
ROOT
ATOM      1  C   UNL     1       5.357   4.996  18.610  0.00  0.00    +0.000 C 
ATOM      2  O   UNL     1       4.338   5.555  19.453  0.00  0.00    +0.000 OA
ATOM      3  C   UNL     1       3.065   5.468  18.769  0.00  0.00    +0.000 C 
ATOM      4  C   UNL     1       3.296   4.678  17.473  0.00  0.00    +0.000 C 
ATOM      5  C   UNL     1       4.782   4.906  17.196  0.00  0.00    +0.000 C 
ENDROOT
BRANCH   3   6
ATOM      6  N   UNL     1       2.573   6.821  18.585  0.00  0.00    +0.000 N 
ATOM      7  C   UNL     1       2.770   7.624  17.495  0.00  0.00    +0.000 A 
ATOM      8  N   UNL     1       2.227   8.808  17.649  0.00  0.00    +0.000 NA
ATOM      9  C   UNL     1       1.693   8.797  18.921  0.00  0.00    +0.000 A 
ATOM     10  C   UNL     1       1.022   9.764  19.687  0.00  0.00    +0.000 A 
ATOM     11  N   UNL     1       0.650   9.436  20.961  0.00  0.00    +0.000 NA
ATOM     12  C   UNL     1       0.926   8.192  21.410  0.00  0.00    +0.000 A 
ATOM     13  N   UNL     1       1.559   7.195  20.763  0.00  0.00    +0.000 NA
ATOM     14  C   UNL     1       1.908   7.564  19.522  0.00  0.00    +0.000 A 
BRANCH  10  15
ATOM     15  C   UNL     1       0.731  11.113  19.186  0.00  0.00    +0.000 A 
ATOM     16  C   UNL     1       1.717  12.114  19.120  0.00  0.00    +0.000 A 
ATOM     17  C   UNL     1       1.430  13.403  18.663  0.00  0.00    +0.000 A 
ATOM     18  C   UNL     1       0.141  13.723  18.253  0.00  0.00    +0.000 A 
ATOM     19  C   UNL     1      -0.855  12.751  18.293  0.00  0.00    +0.000 A 
ATOM     20  C   UNL     1      -0.562  11.461  18.751  0.00  0.00    +0.000 A 
ENDBRANCH  10  15
ENDBRANCH   3   6
BRANCH   1  21
ATOM     21  C   UNL     1       6.618   5.863  18.702  0.00  0.00    +0.000 C 
BRANCH  21  22
ATOM     22  O   UNL     1       6.617   6.929  17.746  0.00  0.00    +0.000 OA
BRANCH  22  24
ATOM     23  C   UNL     1       8.512   7.436  19.026  0.00  0.00    +0.000 C 
ATOM     24  C   UNL     1       7.701   7.751  17.808  0.00  0.00    +0.000 C 
ATOM     25  O   UNL     1       7.957   8.645  17.017  0.00  0.00    +0.000 OA
ENDBRANCH  22  24
ENDBRANCH  21  22
ENDBRANCH   1  21
BRANCH   4  26
ATOM     26  O   UNL     1       3.091   3.259  17.703  0.00  0.00    +0.000 OA
BRANCH  26  27
ATOM     27  C   UNL     1       1.893   2.936  18.260  0.00  0.00    +0.000 C 
ATOM     28  C   UNL     1       2.079   2.147  19.519  0.00  0.00    +0.000 C 
ATOM     29  O   UNL     1       0.805   3.262  17.810  0.00  0.00    +0.000 OA
ENDBRANCH  26  27
ENDBRANCH   4  26
BRANCH   5  30
ATOM     30  O   UNL     1       5.437   3.838  16.485  0.00  0.00    +0.000 OA
BRANCH  30  31
ATOM     31  C   UNL     1       6.312   4.205  15.512  0.00  0.00    +0.000 C 
ATOM     32  C   UNL     1       5.625   4.244  14.179  0.00  0.00    +0.000 C 
ATOM     33  O   UNL     1       7.477   4.514  15.703  0.00  0.00    +0.000 OA
ENDBRANCH  30  31
ENDBRANCH   5  30
TORSDOF 9
ENDMDL
MODEL 5
REMARK VINA RESULT:      -7.4      2.015      4.660
REMARK  Name = 
REMARK  12 active torsions:
REMARK  status: ('A' for Active; 'I' for Inactive)
REMARK    1  A    between atoms: C_1  and  C_2
REMARK    2  A    between atoms: C_2  and  O_4
REMARK    3  A    between atoms: O_4  and  C_5
REMARK    4  A    between atoms: C_5  and  C_6
REMARK    5  A    between atoms: C_8  and  N_9
REMARK    6  A    between atoms: C_13  and  C_14
REMARK    7  A    between atoms: C_24  and  O_25
REMARK    8  A    between atoms: O_25  and  C_26
REMARK    9  A    between atoms: C_26  and  C_27
REMARK   10  A    between atoms: C_29  and  O_30
REMARK   11  A    between atoms: O_30  and  C_31
REMARK   12  A    between atoms: C_31  and  C_32
REMARK                            x       y       z     vdW  Elec       q    Type
REMARK                         _______ _______ _______ _____ _____    ______ ____
ROOT
ATOM      1  C   UNL     1       3.781   3.638  19.038  0.00  0.00    +0.000 C 
ATOM      2  O   UNL     1       2.593   4.350  18.662  0.00  0.00    +0.000 OA
ATOM      3  C   UNL     1       2.963   5.677  18.216  0.00  0.00    +0.000 C 
ATOM      4  C   UNL     1       4.497   5.737  18.187  0.00  0.00    +0.000 C 
ATOM      5  C   UNL     1       4.899   4.668  19.204  0.00  0.00    +0.000 C 
ENDROOT
BRANCH   3   6
ATOM      6  N   UNL     1       2.327   6.631  19.105  0.00  0.00    +0.000 N 
ATOM      7  C   UNL     1       1.793   6.375  20.338  0.00  0.00    +0.000 A 
ATOM      8  N   UNL     1       1.258   7.445  20.877  0.00  0.00    +0.000 NA
ATOM      9  C   UNL     1       1.403   8.437  19.929  0.00  0.00    +0.000 A 
ATOM     10  C   UNL     1       1.006   9.783  19.883  0.00  0.00    +0.000 A 
ATOM     11  N   UNL     1       1.276  10.499  18.749  0.00  0.00    +0.000 NA
ATOM     12  C   UNL     1       1.929   9.880  17.741  0.00  0.00    +0.000 A 
ATOM     13  N   UNL     1       2.352   8.604  17.683  0.00  0.00    +0.000 NA
ATOM     14  C   UNL     1       2.062   7.942  18.812  0.00  0.00    +0.000 A 
BRANCH  10  15
ATOM     15  C   UNL     1       0.295  10.440  20.987  0.00  0.00    +0.000 A 
ATOM     16  C   UNL     1      -0.190   9.721  22.095  0.00  0.00    +0.000 A 
ATOM     17  C   UNL     1      -0.886  10.347  23.133  0.00  0.00    +0.000 A 
ATOM     18  C   UNL     1      -1.111  11.718  23.089  0.00  0.00    +0.000 A 
ATOM     19  C   UNL     1      -0.634  12.460  22.013  0.00  0.00    +0.000 A 
ATOM     20  C   UNL     1       0.064  11.829  20.976  0.00  0.00    +0.000 A 
ENDBRANCH  10  15
ENDBRANCH   3   6
BRANCH   1  21
ATOM     21  C   UNL     1       3.503   2.829  20.310  0.00  0.00    +0.000 C 
BRANCH  21  22
ATOM     22  O   UNL     1       2.605   3.504  21.199  0.00  0.00    +0.000 OA
BRANCH  22  24
ATOM     23  C   UNL     1       0.508   2.918  20.336  0.00  0.00    +0.000 C 
ATOM     24  C   UNL     1       1.464   2.819  21.484  0.00  0.00    +0.000 C 
ATOM     25  O   UNL     1       1.226   2.244  22.535  0.00  0.00    +0.000 OA
ENDBRANCH  22  24
ENDBRANCH  21  22
ENDBRANCH   1  21
BRANCH   4  26
ATOM     26  O   UNL     1       4.994   5.332  16.885  0.00  0.00    +0.000 OA
BRANCH  26  27
ATOM     27  C   UNL     1       5.568   6.326  16.155  0.00  0.00    +0.000 C 
ATOM     28  C   UNL     1       6.010   7.454  17.034  0.00  0.00    +0.000 C 
ATOM     29  O   UNL     1       5.726   6.298  14.944  0.00  0.00    +0.000 OA
ENDBRANCH  26  27
ENDBRANCH   4  26
BRANCH   5  30
ATOM     30  O   UNL     1       6.168   4.038  18.951  0.00  0.00    +0.000 OA
BRANCH  30  31
ATOM     31  C   UNL     1       7.275   4.796  19.167  0.00  0.00    +0.000 C 
ATOM     32  C   UNL     1       8.226   4.673  18.013  0.00  0.00    +0.000 C 
ATOM     33  O   UNL     1       7.448   5.518  20.136  0.00  0.00    +0.000 OA
ENDBRANCH  30  31
ENDBRANCH   5  30
TORSDOF 9
ENDMDL
MODEL 6
REMARK VINA RESULT:      -7.4      4.350      8.555
REMARK  Name = 
REMARK  12 active torsions:
REMARK  status: ('A' for Active; 'I' for Inactive)
REMARK    1  A    between atoms: C_1  and  C_2
REMARK    2  A    between atoms: C_2  and  O_4
REMARK    3  A    between atoms: O_4  and  C_5
REMARK    4  A    between atoms: C_5  and  C_6
REMARK    5  A    between atoms: C_8  and  N_9
REMARK    6  A    between atoms: C_13  and  C_14
REMARK    7  A    between atoms: C_24  and  O_25
REMARK    8  A    between atoms: O_25  and  C_26
REMARK    9  A    between atoms: C_26  and  C_27
REMARK   10  A    between atoms: C_29  and  O_30
REMARK   11  A    between atoms: O_30  and  C_31
REMARK   12  A    between atoms: C_31  and  C_32
REMARK                            x       y       z     vdW  Elec       q    Type
REMARK                         _______ _______ _______ _____ _____    ______ ____
ROOT
ATOM      1  C   UNL     1      -1.239  11.667  19.104  0.00  0.00    +0.000 C 
ATOM      2  O   UNL     1      -1.017  10.275  19.376  0.00  0.00    +0.000 OA
ATOM      3  C   UNL     1       0.219  10.133  20.116  0.00  0.00    +0.000 C 
ATOM      4  C   UNL     1       0.723  11.547  20.439  0.00  0.00    +0.000 C 
ATOM      5  C   UNL     1       0.086  12.395  19.337  0.00  0.00    +0.000 C 
ENDROOT
BRANCH   3   6
ATOM      6  N   UNL     1       1.121   9.329  19.312  0.00  0.00    +0.000 N 
ATOM      7  C   UNL     1       1.564   9.607  18.049  0.00  0.00    +0.000 A 
ATOM      8  N   UNL     1       2.344   8.662  17.579  0.00  0.00    +0.000 NA
ATOM      9  C   UNL     1       2.371   7.695  18.562  0.00  0.00    +0.000 A 
ATOM     10  C   UNL     1       2.985   6.435  18.650  0.00  0.00    +0.000 A 
ATOM     11  N   UNL     1       2.773   5.689  19.777  0.00  0.00    +0.000 NA
ATOM     12  C   UNL     1       2.002   6.212  20.756  0.00  0.00    +0.000 A 
ATOM     13  N   UNL     1       1.371   7.401  20.773  0.00  0.00    +0.000 NA
ATOM     14  C   UNL     1       1.604   8.092  19.649  0.00  0.00    +0.000 A 
BRANCH  10  15
ATOM     15  C   UNL     1       3.818   5.881  17.576  0.00  0.00    +0.000 A 
ATOM     16  C   UNL     1       3.846   4.503  17.288  0.00  0.00    +0.000 A 
ATOM     17  C   UNL     1       4.658   3.978  16.279  0.00  0.00    +0.000 A 
ATOM     18  C   UNL     1       5.464   4.823  15.526  0.00  0.00    +0.000 A 
ATOM     19  C   UNL     1       5.451   6.192  15.778  0.00  0.00    +0.000 A 
ATOM     20  C   UNL     1       4.635   6.714  16.789  0.00  0.00    +0.000 A 
ENDBRANCH  10  15
ENDBRANCH   3   6
BRANCH   1  21
ATOM     21  C   UNL     1      -1.777  11.822  17.677  0.00  0.00    +0.000 C 
BRANCH  21  22
ATOM     22  O   UNL     1      -2.396  10.624  17.195  0.00  0.00    +0.000 OA
BRANCH  22  24
ATOM     23  C   UNL     1      -2.919  10.185  14.954  0.00  0.00    +0.000 C 
ATOM     24  C   UNL     1      -3.348  10.818  16.241  0.00  0.00    +0.000 C 
ATOM     25  O   UNL     1      -4.379  11.454  16.390  0.00  0.00    +0.000 OA
ENDBRANCH  22  24
ENDBRANCH  21  22
ENDBRANCH   1  21
BRANCH   4  26
ATOM     26  O   UNL     1       0.194  11.993  21.715  0.00  0.00    +0.000 OA
BRANCH  26  27
ATOM     27  C   UNL     1      -0.135  10.995  22.579  0.00  0.00    +0.000 C 
ATOM     28  C   UNL     1      -1.563  11.108  23.015  0.00  0.00    +0.000 C 
ATOM     29  O   UNL     1       0.623  10.107  22.938  0.00  0.00    +0.000 OA
ENDBRANCH  26  27
ENDBRANCH   4  26
BRANCH   5  30
ATOM     30  O   UNL     1      -0.182  13.762  19.703  0.00  0.00    +0.000 OA
BRANCH  30  31
ATOM     31  C   UNL     1       0.531  14.715  19.047  0.00  0.00    +0.000 C 
ATOM     32  C   UNL     1      -0.287  15.963  18.888  0.00  0.00    +0.000 C 
ATOM     33  O   UNL     1       1.692  14.595  18.688  0.00  0.00    +0.000 OA
ENDBRANCH  30  31
ENDBRANCH   5  30
TORSDOF 9
ENDMDL
MODEL 7
REMARK VINA RESULT:      -7.3      4.267      8.448
REMARK  Name = 
REMARK  12 active torsions:
REMARK  status: ('A' for Active; 'I' for Inactive)
REMARK    1  A    between atoms: C_1  and  C_2
REMARK    2  A    between atoms: C_2  and  O_4
REMARK    3  A    between atoms: O_4  and  C_5
REMARK    4  A    between atoms: C_5  and  C_6
REMARK    5  A    between atoms: C_8  and  N_9
REMARK    6  A    between atoms: C_13  and  C_14
REMARK    7  A    between atoms: C_24  and  O_25
REMARK    8  A    between atoms: O_25  and  C_26
REMARK    9  A    between atoms: C_26  and  C_27
REMARK   10  A    between atoms: C_29  and  O_30
REMARK   11  A    between atoms: O_30  and  C_31
REMARK   12  A    between atoms: C_31  and  C_32
REMARK                            x       y       z     vdW  Elec       q    Type
REMARK                         _______ _______ _______ _____ _____    ______ ____
ROOT
ATOM      1  C   UNL     1      -1.083  11.546  19.089  0.00  0.00    +0.000 C 
ATOM      2  O   UNL     1      -0.893  10.137  19.293  0.00  0.00    +0.000 OA
ATOM      3  C   UNL     1       0.318   9.934  20.059  0.00  0.00    +0.000 C 
ATOM      4  C   UNL     1       0.835  11.320  20.472  0.00  0.00    +0.000 C 
ATOM      5  C   UNL     1       0.246  12.236  19.399  0.00  0.00    +0.000 C 
ENDROOT
BRANCH   3   6
ATOM      6  N   UNL     1       1.230   9.157  19.241  0.00  0.00    +0.000 N 
ATOM      7  C   UNL     1       1.658   9.458  17.978  0.00  0.00    +0.000 A 
ATOM      8  N   UNL     1       2.454   8.534  17.492  0.00  0.00    +0.000 NA
ATOM      9  C   UNL     1       2.506   7.557  18.464  0.00  0.00    +0.000 A 
ATOM     10  C   UNL     1       3.146   6.308  18.534  0.00  0.00    +0.000 A 
ATOM     11  N   UNL     1       2.956   5.546  19.653  0.00  0.00    +0.000 NA
ATOM     12  C   UNL     1       2.182   6.042  20.644  0.00  0.00    +0.000 A 
ATOM     13  N   UNL     1       1.529   7.218  20.679  0.00  0.00    +0.000 NA
ATOM     14  C   UNL     1       1.740   7.926  19.560  0.00  0.00    +0.000 A 
BRANCH  10  15
ATOM     15  C   UNL     1       3.982   5.782  17.448  0.00  0.00    +0.000 A 
ATOM     16  C   UNL     1       4.750   6.625  16.622  0.00  0.00    +0.000 A 
ATOM     17  C   UNL     1       5.527   6.122  15.575  0.00  0.00    +0.000 A 
ATOM     18  C   UNL     1       5.560   4.754  15.330  0.00  0.00    +0.000 A 
ATOM     19  C   UNL     1       4.821   3.893  16.136  0.00  0.00    +0.000 A 
ATOM     20  C   UNL     1       4.045   4.401  17.184  0.00  0.00    +0.000 A 
ENDBRANCH  10  15
ENDBRANCH   3   6
BRANCH   1  21
ATOM     21  C   UNL     1      -1.576  11.785  17.657  0.00  0.00    +0.000 C 
BRANCH  21  22
ATOM     22  O   UNL     1      -1.972  10.573  17.007  0.00  0.00    +0.000 OA
BRANCH  22  24
ATOM     23  C   UNL     1      -4.185  11.165  16.516  0.00  0.00    +0.000 C 
ATOM     24  C   UNL     1      -2.853  10.738  15.982  0.00  0.00    +0.000 C 
ATOM     25  O   UNL     1      -2.615  10.526  14.803  0.00  0.00    +0.000 OA
ENDBRANCH  22  24
ENDBRANCH  21  22
ENDBRANCH   1  21
BRANCH   4  26
ATOM     26  O   UNL     1       0.276  11.707  21.754  0.00  0.00    +0.000 OA
BRANCH  26  27
ATOM     27  C   UNL     1       0.014  10.675  22.601  0.00  0.00    +0.000 C 
ATOM     28  C   UNL     1      -1.391  10.744  23.115  0.00  0.00    +0.000 C 
ATOM     29  O   UNL     1       0.807   9.792  22.888  0.00  0.00    +0.000 OA
ENDBRANCH  26  27
ENDBRANCH   4  26
BRANCH   5  30
ATOM     30  O   UNL     1      -0.009  13.586  19.829  0.00  0.00    +0.000 OA
BRANCH  30  31
ATOM     31  C   UNL     1       0.886  14.528  19.431  0.00  0.00    +0.000 C 
ATOM     32  C   UNL     1       0.792  15.742  20.308  0.00  0.00    +0.000 C 
ATOM     33  O   UNL     1       1.691  14.387  18.524  0.00  0.00    +0.000 OA
ENDBRANCH  30  31
ENDBRANCH   5  30
TORSDOF 9
ENDMDL
MODEL 8
REMARK VINA RESULT:      -7.3      1.958      4.870
REMARK  Name = 
REMARK  12 active torsions:
REMARK  status: ('A' for Active; 'I' for Inactive)
REMARK    1  A    between atoms: C_1  and  C_2
REMARK    2  A    between atoms: C_2  and  O_4
REMARK    3  A    between atoms: O_4  and  C_5
REMARK    4  A    between atoms: C_5  and  C_6
REMARK    5  A    between atoms: C_8  and  N_9
REMARK    6  A    between atoms: C_13  and  C_14
REMARK    7  A    between atoms: C_24  and  O_25
REMARK    8  A    between atoms: O_25  and  C_26
REMARK    9  A    between atoms: C_26  and  C_27
REMARK   10  A    between atoms: C_29  and  O_30
REMARK   11  A    between atoms: O_30  and  C_31
REMARK   12  A    between atoms: C_31  and  C_32
REMARK                            x       y       z     vdW  Elec       q    Type
REMARK                         _______ _______ _______ _____ _____    ______ ____
ROOT
ATOM      1  C   UNL     1       3.150   4.372  17.455  0.00  0.00    +0.000 C 
ATOM      2  O   UNL     1       2.854   5.762  17.247  0.00  0.00    +0.000 OA
ATOM      3  C   UNL     1       3.710   6.556  18.103  0.00  0.00    +0.000 C 
ATOM      4  C   UNL     1       4.695   5.593  18.783  0.00  0.00    +0.000 C 
ATOM      5  C   UNL     1       3.942   4.263  18.758  0.00  0.00    +0.000 C 
ENDROOT
BRANCH   3   6
ATOM      6  N   UNL     1       2.856   7.301  19.008  0.00  0.00    +0.000 N 
ATOM      7  C   UNL     1       2.364   6.875  20.211  0.00  0.00    +0.000 A 
ATOM      8  N   UNL     1       1.590   7.771  20.775  0.00  0.00    +0.000 NA
ATOM      9  C   UNL     1       1.531   8.814  19.875  0.00  0.00    +0.000 A 
ATOM     10  C   UNL     1       0.843  10.039  19.870  0.00  0.00    +0.000 A 
ATOM     11  N   UNL     1       0.972  10.849  18.776  0.00  0.00    +0.000 NA
ATOM     12  C   UNL     1       1.771  10.441  17.766  0.00  0.00    +0.000 A 
ATOM     13  N   UNL     1       2.471   9.295  17.670  0.00  0.00    +0.000 NA
ATOM     14  C   UNL     1       2.310   8.532  18.761  0.00  0.00    +0.000 A 
BRANCH  10  15
ATOM     15  C   UNL     1      -0.023  10.467  20.975  0.00  0.00    +0.000 A 
ATOM     16  C   UNL     1      -0.060   9.780  22.203  0.00  0.00    +0.000 A 
ATOM     17  C   UNL     1      -0.903  10.179  23.245  0.00  0.00    +0.000 A 
ATOM     18  C   UNL     1      -1.731  11.284  23.084  0.00  0.00    +0.000 A 
ATOM     19  C   UNL     1      -1.709  11.992  21.886  0.00  0.00    +0.000 A 
ATOM     20  C   UNL     1      -0.862  11.590  20.846  0.00  0.00    +0.000 A 
ENDBRANCH  10  15
ENDBRANCH   3   6
BRANCH   1  21
ATOM     21  C   UNL     1       1.841   3.575  17.468  0.00  0.00    +0.000 C 
BRANCH  21  22
ATOM     22  O   UNL     1       1.006   3.915  18.581  0.00  0.00    +0.000 OA
BRANCH  22  24
ATOM     23  C   UNL     1       1.073   3.151  20.794  0.00  0.00    +0.000 C 
ATOM     24  C   UNL     1       0.669   2.866  19.381  0.00  0.00    +0.000 C 
ATOM     25  O   UNL     1       0.156   1.825  19.004  0.00  0.00    +0.000 OA
ENDBRANCH  22  24
ENDBRANCH  21  22
ENDBRANCH   1  21
BRANCH   4  26
ATOM     26  O   UNL     1       5.896   5.449  17.981  0.00  0.00    +0.000 OA
BRANCH  26  27
ATOM     27  C   UNL     1       7.032   5.929  18.556  0.00  0.00    +0.000 C 
ATOM     28  C   UNL     1       7.532   7.141  17.833  0.00  0.00    +0.000 C 
ATOM     29  O   UNL     1       7.565   5.452  19.546  0.00  0.00    +0.000 OA
ENDBRANCH  26  27
ENDBRANCH   4  26
BRANCH   5  30
ATOM     30  O   UNL     1       4.781   3.093  18.708  0.00  0.00    +0.000 OA
BRANCH  30  31
ATOM     31  C   UNL     1       4.301   1.977  19.316  0.00  0.00    +0.000 C 
ATOM     32  C   UNL     1       4.522   2.053  20.798  0.00  0.00    +0.000 C 
ATOM     33  O   UNL     1       3.722   1.066  18.746  0.00  0.00    +0.000 OA
ENDBRANCH  30  31
ENDBRANCH   5  30
TORSDOF 9
ENDMDL
MODEL 9
REMARK VINA RESULT:      -7.2      1.833      4.616
REMARK  Name = 
REMARK  12 active torsions:
REMARK  status: ('A' for Active; 'I' for Inactive)
REMARK    1  A    between atoms: C_1  and  C_2
REMARK    2  A    between atoms: C_2  and  O_4
REMARK    3  A    between atoms: O_4  and  C_5
REMARK    4  A    between atoms: C_5  and  C_6
REMARK    5  A    between atoms: C_8  and  N_9
REMARK    6  A    between atoms: C_13  and  C_14
REMARK    7  A    between atoms: C_24  and  O_25
REMARK    8  A    between atoms: O_25  and  C_26
REMARK    9  A    between atoms: C_26  and  C_27
REMARK   10  A    between atoms: C_29  and  O_30
REMARK   11  A    between atoms: O_30  and  C_31
REMARK   12  A    between atoms: C_31  and  C_32
REMARK                            x       y       z     vdW  Elec       q    Type
REMARK                         _______ _______ _______ _____ _____    ______ ____
ROOT
ATOM      1  C   UNL     1       3.977   3.519  18.678  0.00  0.00    +0.000 C 
ATOM      2  O   UNL     1       2.809   4.271  18.316  0.00  0.00    +0.000 OA
ATOM      3  C   UNL     1       3.205   5.626  17.996  0.00  0.00    +0.000 C 
ATOM      4  C   UNL     1       4.740   5.674  18.032  0.00  0.00    +0.000 C 
ATOM      5  C   UNL     1       5.094   4.521  18.973  0.00  0.00    +0.000 C 
ENDROOT
BRANCH   3   6
ATOM      6  N   UNL     1       2.541   6.510  18.935  0.00  0.00    +0.000 N 
ATOM      7  C   UNL     1       2.059   6.181  20.172  0.00  0.00    +0.000 A 
ATOM      8  N   UNL     1       1.478   7.199  20.763  0.00  0.00    +0.000 NA
ATOM      9  C   UNL     1       1.537   8.228  19.848  0.00  0.00    +0.000 A 
ATOM     10  C   UNL     1       1.060   9.550  19.859  0.00  0.00    +0.000 A 
ATOM     11  N   UNL     1       1.255  10.318  18.745  0.00  0.00    +0.000 NA
ATOM     12  C   UNL     1       1.913   9.774  17.698  0.00  0.00    +0.000 A 
ATOM     13  N   UNL     1       2.408   8.528  17.583  0.00  0.00    +0.000 NA
ATOM     14  C   UNL     1       2.191   7.812  18.696  0.00  0.00    +0.000 A 
BRANCH  10  15
ATOM     15  C   UNL     1       0.345  10.126  21.005  0.00  0.00    +0.000 A 
ATOM     16  C   UNL     1      -0.021   9.351  22.122  0.00  0.00    +0.000 A 
ATOM     17  C   UNL     1      -0.722   9.899  23.200  0.00  0.00    +0.000 A 
ATOM     18  C   UNL     1      -1.073  11.244  23.189  0.00  0.00    +0.000 A 
ATOM     19  C   UNL     1      -0.716  12.039  22.104  0.00  0.00    +0.000 A 
ATOM     20  C   UNL     1      -0.013  11.487  21.027  0.00  0.00    +0.000 A 
ENDBRANCH  10  15
ENDBRANCH   3   6
BRANCH   1  21
ATOM     21  C   UNL     1       3.643   2.611  19.868  0.00  0.00    +0.000 C 
BRANCH  21  22
ATOM     22  O   UNL     1       2.427   1.881  19.672  0.00  0.00    +0.000 OA
BRANCH  22  24
ATOM     23  C   UNL     1       1.500   2.677  21.670  0.00  0.00    +0.000 C 
ATOM     24  C   UNL     1       1.318   2.470  20.199  0.00  0.00    +0.000 C 
ATOM     25  O   UNL     1       0.303   2.748  19.581  0.00  0.00    +0.000 OA
ENDBRANCH  22  24
ENDBRANCH  21  22
ENDBRANCH   1  21
BRANCH   4  26
ATOM     26  O   UNL     1       5.286   5.372  16.722  0.00  0.00    +0.000 OA
BRANCH  26  27
ATOM     27  C   UNL     1       5.567   6.459  15.953  0.00  0.00    +0.000 C 
ATOM     28  C   UNL     1       6.256   7.520  16.753  0.00  0.00    +0.000 C 
ATOM     29  O   UNL     1       5.315   6.552  14.762  0.00  0.00    +0.000 OA
ENDBRANCH  26  27
ENDBRANCH   4  26
BRANCH   5  30
ATOM     30  O   UNL     1       6.368   3.901  18.718  0.00  0.00    +0.000 OA
BRANCH  30  31
ATOM     31  C   UNL     1       7.422   4.738  18.527  0.00  0.00    +0.000 C 
ATOM     32  C   UNL     1       7.580   5.656  19.703  0.00  0.00    +0.000 C 
ATOM     33  O   UNL     1       8.169   4.711  17.562  0.00  0.00    +0.000 OA
ENDBRANCH  30  31
ENDBRANCH   5  30
TORSDOF 9
ENDMDL
