MODEL 1
REMARK VINA RESULT:      -6.5      0.000      0.000
REMARK  Name = 
REMARK  6 active torsions:
REMARK  status: ('A' for Active; 'I' for Inactive)
REMARK    1  A    between atoms: C_1  and  N_2
REMARK    2  A    between atoms: N_2  and  C_3
REMARK    3  A    between atoms: N_2  and  C_4
REMARK    4  A    between atoms: C_4  and  C_5
REMARK    5  A    between atoms: C_5  and  C_6
REMARK    6  A    between atoms: N_8  and  C_9
REMARK                            x       y       z     vdW  Elec       q    Type
REMARK                         _______ _______ _______ _____ _____    ______ ____
ROOT
ATOM      1  C   UNL     1       4.631   4.613  17.532  0.00  0.00    +0.000 C 
ATOM      2  C   UNL     1       4.312   3.110  17.626  0.00  0.00    +0.000 C 
ATOM      3  N   UNL     1       3.542   2.721  18.810  0.00  0.00    +0.000 N 
ATOM      4  C   UNL     1       4.281   2.470  20.039  0.00  0.00    +0.000 C 
ATOM      5  C   UNL     1       2.263   3.274  18.945  0.00  0.00    +0.000 C 
ATOM      6  S   UNL     1       0.894   2.316  18.779  0.00  0.00    +0.000 S 
ATOM      7  C   UNL     1       2.208   4.710  19.295  0.00  0.00    +0.000 A 
ATOM      8  C   UNL     1       1.587   5.135  20.473  0.00  0.00    +0.000 A 
ATOM      9  C   UNL     1       1.572   6.491  20.779  0.00  0.00    +0.000 A 
ATOM     10  C   UNL     1       2.182   7.374  19.901  0.00  0.00    +0.000 A 
ATOM     11  N   UNL     1       2.808   6.990  18.768  0.00  0.00    +0.000 NA
ATOM     12  C   UNL     1       2.812   5.669  18.487  0.00  0.00    +0.000 A 
ATOM     13  O   UNL     1       3.418   5.346  17.302  0.00  0.00    +0.000 OA
ENDROOT
BRANCH   1  14
ATOM     14  C   UNL     1       5.563   4.858  16.330  0.00  0.00    +0.000 C 
BRANCH  14  15
ATOM     15  C   UNL     1       6.966   5.291  16.779  0.00  0.00    +0.000 C 
BRANCH  15  17
ATOM     16  C   UNL     1       7.754   5.721  19.002  0.00  0.00    +0.000 C 
ATOM     17  N   UNL     1       6.978   6.270  17.883  0.00  0.00    +0.000 NA
ATOM     18  C   UNL     1       7.532   7.567  17.494  0.00  0.00    +0.000 C 
ENDBRANCH  15  17
ENDBRANCH  14  15
ENDBRANCH   1  14
TORSDOF 3
ENDMDL
MODEL 2
REMARK VINA RESULT:      -6.4      2.401      5.399
REMARK  Name = 
REMARK  6 active torsions:
REMARK  status: ('A' for Active; 'I' for Inactive)
REMARK    1  A    between atoms: C_1  and  N_2
REMARK    2  A    between atoms: N_2  and  C_3
REMARK    3  A    between atoms: N_2  and  C_4
REMARK    4  A    between atoms: C_4  and  C_5
REMARK    5  A    between atoms: C_5  and  C_6
REMARK    6  A    between atoms: N_8  and  C_9
REMARK                            x       y       z     vdW  Elec       q    Type
REMARK                         _______ _______ _______ _____ _____    ______ ____
ROOT
ATOM      1  C   UNL     1       4.465   3.997  19.224  0.00  0.00    +0.000 C 
ATOM      2  C   UNL     1       3.605   4.161  17.958  0.00  0.00    +0.000 C 
ATOM      3  N   UNL     1       3.898   5.362  17.173  0.00  0.00    +0.000 N 
ATOM      4  C   UNL     1       3.245   6.601  17.573  0.00  0.00    +0.000 C 
ATOM      5  C   UNL     1       5.186   5.474  16.637  0.00  0.00    +0.000 C 
ATOM      6  S   UNL     1       5.438   5.354  14.982  0.00  0.00    +0.000 S 
ATOM      7  C   UNL     1       6.270   5.756  17.603  0.00  0.00    +0.000 A 
ATOM      8  C   UNL     1       7.045   6.914  17.489  0.00  0.00    +0.000 A 
ATOM      9  C   UNL     1       8.042   7.157  18.426  0.00  0.00    +0.000 A 
ATOM     10  C   UNL     1       8.228   6.238  19.447  0.00  0.00    +0.000 A 
ATOM     11  N   UNL     1       7.481   5.123  19.595  0.00  0.00    +0.000 NA
ATOM     12  C   UNL     1       6.517   4.904  18.675  0.00  0.00    +0.000 A 
ATOM     13  O   UNL     1       5.826   3.735  18.848  0.00  0.00    +0.000 OA
ENDROOT
BRANCH   1  14
ATOM     14  C   UNL     1       3.957   2.783  20.026  0.00  0.00    +0.000 C 
BRANCH  14  15
ATOM     15  C   UNL     1       2.566   2.333  19.555  0.00  0.00    +0.000 C 
BRANCH  15  17
ATOM     16  C   UNL     1       2.026   2.689  21.863  0.00  0.00    +0.000 C 
ATOM     17  N   UNL     1       1.476   2.634  20.503  0.00  0.00    +0.000 NA
ATOM     18  C   UNL     1       0.784   3.887  20.204  0.00  0.00    +0.000 C 
ENDBRANCH  15  17
ENDBRANCH  14  15
ENDBRANCH   1  14
TORSDOF 3
ENDMDL
MODEL 3
REMARK VINA RESULT:      -6.4      2.305      5.386
REMARK  Name = 
REMARK  6 active torsions:
REMARK  status: ('A' for Active; 'I' for Inactive)
REMARK    1  A    between atoms: C_1  and  N_2
REMARK    2  A    between atoms: N_2  and  C_3
REMARK    3  A    between atoms: N_2  and  C_4
REMARK    4  A    between atoms: C_4  and  C_5
REMARK    5  A    between atoms: C_5  and  C_6
REMARK    6  A    between atoms: N_8  and  C_9
REMARK                            x       y       z     vdW  Elec       q    Type
REMARK                         _______ _______ _______ _____ _____    ______ ____
ROOT
ATOM      1  C   UNL     1       3.719   5.107  19.476  0.00  0.00    +0.000 C 
ATOM      2  C   UNL     1       3.020   5.436  18.144  0.00  0.00    +0.000 C 
ATOM      3  N   UNL     1       3.748   6.374  17.287  0.00  0.00    +0.000 N 
ATOM      4  C   UNL     1       3.564   7.797  17.541  0.00  0.00    +0.000 C 
ATOM      5  C   UNL     1       5.010   5.974  16.834  0.00  0.00    +0.000 C 
ATOM      6  S   UNL     1       5.263   5.609  15.215  0.00  0.00    +0.000 S 
ATOM      7  C   UNL     1       6.089   5.952  17.847  0.00  0.00    +0.000 A 
ATOM      8  C   UNL     1       7.228   6.748  17.693  0.00  0.00    +0.000 A 
ATOM      9  C   UNL     1       8.212   6.717  18.674  0.00  0.00    +0.000 A 
ATOM     10  C   UNL     1       8.022   5.897  19.776  0.00  0.00    +0.000 A 
ATOM     11  N   UNL     1       6.923   5.135  19.962  0.00  0.00    +0.000 NA
ATOM     12  C   UNL     1       5.978   5.178  18.998  0.00  0.00    +0.000 A 
ATOM     13  O   UNL     1       4.910   4.349  19.216  0.00  0.00    +0.000 OA
ENDROOT
BRANCH   1  14
ATOM     14  C   UNL     1       2.785   4.235  20.335  0.00  0.00    +0.000 C 
BRANCH  14  15
ATOM     15  C   UNL     1       3.115   2.741  20.196  0.00  0.00    +0.000 C 
BRANCH  15  17
ATOM     16  C   UNL     1       0.896   2.657  19.294  0.00  0.00    +0.000 C 
ATOM     17  N   UNL     1       2.208   1.998  19.300  0.00  0.00    +0.000 NA
ATOM     18  C   UNL     1       2.709   1.895  17.930  0.00  0.00    +0.000 C 
ENDBRANCH  15  17
ENDBRANCH  14  15
ENDBRANCH   1  14
TORSDOF 3
ENDMDL
MODEL 4
REMARK VINA RESULT:      -6.2      1.027      1.316
REMARK  Name = 
REMARK  6 active torsions:
REMARK  status: ('A' for Active; 'I' for Inactive)
REMARK    1  A    between atoms: C_1  and  N_2
REMARK    2  A    between atoms: N_2  and  C_3
REMARK    3  A    between atoms: N_2  and  C_4
REMARK    4  A    between atoms: C_4  and  C_5
REMARK    5  A    between atoms: C_5  and  C_6
REMARK    6  A    between atoms: N_8  and  C_9
REMARK                            x       y       z     vdW  Elec       q    Type
REMARK                         _______ _______ _______ _____ _____    ______ ____
ROOT
ATOM      1  C   UNL     1       4.261   5.427  17.444  0.00  0.00    +0.000 C 
ATOM      2  C   UNL     1       4.119   3.896  17.382  0.00  0.00    +0.000 C 
ATOM      3  N   UNL     1       3.531   3.287  18.578  0.00  0.00    +0.000 N 
ATOM      4  C   UNL     1       4.425   2.992  19.689  0.00  0.00    +0.000 C 
ATOM      5  C   UNL     1       2.223   3.662  18.904  0.00  0.00    +0.000 C 
ATOM      6  S   UNL     1       0.957   2.571  18.754  0.00  0.00    +0.000 S 
ATOM      7  C   UNL     1       2.052   5.034  19.432  0.00  0.00    +0.000 A 
ATOM      8  C   UNL     1       1.523   5.247  20.708  0.00  0.00    +0.000 A 
ATOM      9  C   UNL     1       1.394   6.548  21.179  0.00  0.00    +0.000 A 
ATOM     10  C   UNL     1       1.803   7.591  20.362  0.00  0.00    +0.000 A 
ATOM     11  N   UNL     1       2.338   7.414  19.135  0.00  0.00    +0.000 NA
ATOM     12  C   UNL     1       2.454   6.143  18.694  0.00  0.00    +0.000 A 
ATOM     13  O   UNL     1       2.957   6.029  17.426  0.00  0.00    +0.000 OA
ENDROOT
BRANCH   1  14
ATOM     14  C   UNL     1       5.021   5.916  16.197  0.00  0.00    +0.000 C 
BRANCH  14  15
ATOM     15  C   UNL     1       6.465   6.319  16.534  0.00  0.00    +0.000 C 
BRANCH  15  17
ATOM     16  C   UNL     1       7.701   4.505  17.496  0.00  0.00    +0.000 C 
ATOM     17  N   UNL     1       7.468   5.270  16.265  0.00  0.00    +0.000 NA
ATOM     18  C   UNL     1       7.073   4.359  15.191  0.00  0.00    +0.000 C 
ENDBRANCH  15  17
ENDBRANCH  14  15
ENDBRANCH   1  14
TORSDOF 3
ENDMDL
MODEL 5
REMARK VINA RESULT:      -6.1      1.596      2.229
REMARK  Name = 
REMARK  6 active torsions:
REMARK  status: ('A' for Active; 'I' for Inactive)
REMARK    1  A    between atoms: C_1  and  N_2
REMARK    2  A    between atoms: N_2  and  C_3
REMARK    3  A    between atoms: N_2  and  C_4
REMARK    4  A    between atoms: C_4  and  C_5
REMARK    5  A    between atoms: C_5  and  C_6
REMARK    6  A    between atoms: N_8  and  C_9
REMARK                            x       y       z     vdW  Elec       q    Type
REMARK                         _______ _______ _______ _____ _____    ______ ____
ROOT
ATOM      1  C   UNL     1       4.645   4.820  17.494  0.00  0.00    +0.000 C 
ATOM      2  C   UNL     1       4.379   3.306  17.573  0.00  0.00    +0.000 C 
ATOM      3  N   UNL     1       3.634   2.877  18.760  0.00  0.00    +0.000 N 
ATOM      4  C   UNL     1       4.394   2.638  19.979  0.00  0.00    +0.000 C 
ATOM      5  C   UNL     1       2.339   3.384  18.914  0.00  0.00    +0.000 C 
ATOM      6  S   UNL     1       1.002   2.383  18.750  0.00  0.00    +0.000 S 
ATOM      7  C   UNL     1       2.239   4.814  19.281  0.00  0.00    +0.000 A 
ATOM      8  C   UNL     1       1.616   5.204  20.470  0.00  0.00    +0.000 A 
ATOM      9  C   UNL     1       1.558   6.555  20.792  0.00  0.00    +0.000 A 
ATOM     10  C   UNL     1       2.128   7.469  19.919  0.00  0.00    +0.000 A 
ATOM     11  N   UNL     1       2.755   7.119  18.775  0.00  0.00    +0.000 NA
ATOM     12  C   UNL     1       2.801   5.803  18.479  0.00  0.00    +0.000 A 
ATOM     13  O   UNL     1       3.405   5.513  17.285  0.00  0.00    +0.000 OA
ENDROOT
BRANCH   1  14
ATOM     14  C   UNL     1       5.556   5.111  16.286  0.00  0.00    +0.000 C 
BRANCH  14  15
ATOM     15  C   UNL     1       5.263   4.163  15.113  0.00  0.00    +0.000 C 
BRANCH  15  17
ATOM     16  C   UNL     1       5.927   3.592  12.882  0.00  0.00    +0.000 C 
ATOM     17  N   UNL     1       6.417   3.916  14.227  0.00  0.00    +0.000 NA
ATOM     18  C   UNL     1       7.338   5.050  14.152  0.00  0.00    +0.000 C 
ENDBRANCH  15  17
ENDBRANCH  14  15
ENDBRANCH   1  14
TORSDOF 3
ENDMDL
MODEL 6
REMARK VINA RESULT:      -6.1      2.384      5.574
REMARK  Name = 
REMARK  6 active torsions:
REMARK  status: ('A' for Active; 'I' for Inactive)
REMARK    1  A    between atoms: C_1  and  N_2
REMARK    2  A    between atoms: N_2  and  C_3
REMARK    3  A    between atoms: N_2  and  C_4
REMARK    4  A    between atoms: C_4  and  C_5
REMARK    5  A    between atoms: C_5  and  C_6
REMARK    6  A    between atoms: N_8  and  C_9
REMARK                            x       y       z     vdW  Elec       q    Type
REMARK                         _______ _______ _______ _____ _____    ______ ____
ROOT
ATOM      1  C   UNL     1       3.644   5.444  19.589  0.00  0.00    +0.000 C 
ATOM      2  C   UNL     1       2.939   5.660  18.238  0.00  0.00    +0.000 C 
ATOM      3  N   UNL     1       3.712   6.430  17.261  0.00  0.00    +0.000 N 
ATOM      4  C   UNL     1       3.639   7.882  17.341  0.00  0.00    +0.000 C 
ATOM      5  C   UNL     1       4.931   5.883  16.842  0.00  0.00    +0.000 C 
ATOM      6  S   UNL     1       5.117   5.307  15.277  0.00  0.00    +0.000 S 
ATOM      7  C   UNL     1       6.029   5.904  17.833  0.00  0.00    +0.000 A 
ATOM      8  C   UNL     1       7.219   6.587  17.566  0.00  0.00    +0.000 A 
ATOM      9  C   UNL     1       8.221   6.602  18.528  0.00  0.00    +0.000 A 
ATOM     10  C   UNL     1       7.999   5.939  19.726  0.00  0.00    +0.000 A 
ATOM     11  N   UNL     1       6.852   5.290  20.020  0.00  0.00    +0.000 NA
ATOM     12  C   UNL     1       5.890   5.286  19.072  0.00  0.00    +0.000 A 
ATOM     13  O   UNL     1       4.770   4.573  19.407  0.00  0.00    +0.000 OA
ENDROOT
BRANCH   1  14
ATOM     14  C   UNL     1       2.670   4.755  20.563  0.00  0.00    +0.000 C 
BRANCH  14  15
ATOM     15  C   UNL     1       1.408   4.254  19.845  0.00  0.00    +0.000 C 
BRANCH  15  17
ATOM     16  C   UNL     1       1.656   1.961  19.190  0.00  0.00    +0.000 C 
ATOM     17  N   UNL     1       1.036   2.863  20.169  0.00  0.00    +0.000 NA
ATOM     18  C   UNL     1       1.428   2.462  21.520  0.00  0.00    +0.000 C 
ENDBRANCH  15  17
ENDBRANCH  14  15
ENDBRANCH   1  14
TORSDOF 3
ENDMDL
MODEL 7
REMARK VINA RESULT:      -6.0      2.321      5.018
REMARK  Name = 
REMARK  6 active torsions:
REMARK  status: ('A' for Active; 'I' for Inactive)
REMARK    1  A    between atoms: C_1  and  N_2
REMARK    2  A    between atoms: N_2  and  C_3
REMARK    3  A    between atoms: N_2  and  C_4
REMARK    4  A    between atoms: C_4  and  C_5
REMARK    5  A    between atoms: C_5  and  C_6
REMARK    6  A    between atoms: N_8  and  C_9
REMARK                            x       y       z     vdW  Elec       q    Type
REMARK                         _______ _______ _______ _____ _____    ______ ____
ROOT
ATOM      1  C   UNL     1       2.986   6.575  18.502  0.00  0.00    +0.000 C 
ATOM      2  C   UNL     1       4.372   6.792  17.869  0.00  0.00    +0.000 C 
ATOM      3  N   UNL     1       5.215   5.595  17.818  0.00  0.00    +0.000 N 
ATOM      4  C   UNL     1       5.994   5.271  19.006  0.00  0.00    +0.000 C 
ATOM      5  C   UNL     1       4.743   4.516  17.062  0.00  0.00    +0.000 C 
ATOM      6  S   UNL     1       5.497   4.081  15.627  0.00  0.00    +0.000 S 
ATOM      7  C   UNL     1       3.599   3.772  17.633  0.00  0.00    +0.000 A 
ATOM      8  C   UNL     1       3.710   2.411  17.933  0.00  0.00    +0.000 A 
ATOM      9  C   UNL     1       2.622   1.749  18.487  0.00  0.00    +0.000 A 
ATOM     10  C   UNL     1       1.461   2.469  18.728  0.00  0.00    +0.000 A 
ATOM     11  N   UNL     1       1.332   3.788  18.469  0.00  0.00    +0.000 NA
ATOM     12  C   UNL     1       2.401   4.414  17.931  0.00  0.00    +0.000 A 
ATOM     13  O   UNL     1       2.195   5.737  17.645  0.00  0.00    +0.000 OA
ENDROOT
BRANCH   1  14
ATOM     14  C   UNL     1       2.269   7.932  18.626  0.00  0.00    +0.000 C 
BRANCH  14  15
ATOM     15  C   UNL     1       1.727   8.160  20.045  0.00  0.00    +0.000 C 
BRANCH  15  17
ATOM     16  C   UNL     1       0.575   9.927  18.906  0.00  0.00    +0.000 C 
ATOM     17  N   UNL     1       0.999   9.432  20.222  0.00  0.00    +0.000 NA
ATOM     18  C   UNL     1      -0.167   9.310  21.097  0.00  0.00    +0.000 C 
ENDBRANCH  15  17
ENDBRANCH  14  15
ENDBRANCH   1  14
TORSDOF 3
ENDMDL
MODEL 8
REMARK VINA RESULT:      -5.9      2.452      4.772
REMARK  Name = 
REMARK  6 active torsions:
REMARK  status: ('A' for Active; 'I' for Inactive)
REMARK    1  A    between atoms: C_1  and  N_2
REMARK    2  A    between atoms: N_2  and  C_3
REMARK    3  A    between atoms: N_2  and  C_4
REMARK    4  A    between atoms: C_4  and  C_5
REMARK    5  A    between atoms: C_5  and  C_6
REMARK    6  A    between atoms: N_8  and  C_9
REMARK                            x       y       z     vdW  Elec       q    Type
REMARK                         _______ _______ _______ _____ _____    ______ ____
ROOT
ATOM      1  C   UNL     1       2.921   6.503  18.768  0.00  0.00    +0.000 C 
ATOM      2  C   UNL     1       4.274   6.817  18.104  0.00  0.00    +0.000 C 
ATOM      3  N   UNL     1       5.142   5.653  17.906  0.00  0.00    +0.000 N 
ATOM      4  C   UNL     1       5.977   5.240  19.026  0.00  0.00    +0.000 C 
ATOM      5  C   UNL     1       4.663   4.638  17.069  0.00  0.00    +0.000 C 
ATOM      6  S   UNL     1       5.367   4.361  15.571  0.00  0.00    +0.000 S 
ATOM      7  C   UNL     1       3.562   3.813  17.612  0.00  0.00    +0.000 A 
ATOM      8  C   UNL     1       3.717   2.433  17.775  0.00  0.00    +0.000 A 
ATOM      9  C   UNL     1       2.669   1.692  18.306  0.00  0.00    +0.000 A 
ATOM     10  C   UNL     1       1.503   2.355  18.660  0.00  0.00    +0.000 A 
ATOM     11  N   UNL     1       1.332   3.688  18.534  0.00  0.00    +0.000 NA
ATOM     12  C   UNL     1       2.362   4.392  18.016  0.00  0.00    +0.000 A 
ATOM     13  O   UNL     1       2.114   5.730  17.867  0.00  0.00    +0.000 OA
ENDROOT
BRANCH   1  14
ATOM     14  C   UNL     1       2.178   7.823  19.049  0.00  0.00    +0.000 C 
BRANCH  14  15
ATOM     15  C   UNL     1       2.151   8.734  17.813  0.00  0.00    +0.000 C 
BRANCH  15  17
ATOM     16  C   UNL     1       0.563   9.866  19.206  0.00  0.00    +0.000 C 
ATOM     17  N   UNL     1       1.381   9.980  17.991  0.00  0.00    +0.000 NA
ATOM     18  C   UNL     1       2.226  11.170  18.081  0.00  0.00    +0.000 C 
ENDBRANCH  15  17
ENDBRANCH  14  15
ENDBRANCH   1  14
TORSDOF 3
ENDMDL
MODEL 9
REMARK VINA RESULT:      -5.9      2.160      5.186
REMARK  Name = 
REMARK  6 active torsions:
REMARK  status: ('A' for Active; 'I' for Inactive)
REMARK    1  A    between atoms: C_1  and  N_2
REMARK    2  A    between atoms: N_2  and  C_3
REMARK    3  A    between atoms: N_2  and  C_4
REMARK    4  A    between atoms: C_4  and  C_5
REMARK    5  A    between atoms: C_5  and  C_6
REMARK    6  A    between atoms: N_8  and  C_9
REMARK                            x       y       z     vdW  Elec       q    Type
REMARK                         _______ _______ _______ _____ _____    ______ ____
ROOT
ATOM      1  C   UNL     1       2.618   6.810  18.236  0.00  0.00    +0.000 C 
ATOM      2  C   UNL     1       2.152   5.725  19.224  0.00  0.00    +0.000 C 
ATOM      3  N   UNL     1       2.388   4.350  18.777  0.00  0.00    +0.000 N 
ATOM      4  C   UNL     1       1.390   3.748  17.904  0.00  0.00    +0.000 C 
ATOM      5  C   UNL     1       3.719   3.969  18.570  0.00  0.00    +0.000 C 
ATOM      6  S   UNL     1       4.464   2.869  19.595  0.00  0.00    +0.000 S 
ATOM      7  C   UNL     1       4.383   4.544  17.379  0.00  0.00    +0.000 A 
ATOM      8  C   UNL     1       4.882   3.716  16.370  0.00  0.00    +0.000 A 
ATOM      9  C   UNL     1       5.482   4.292  15.257  0.00  0.00    +0.000 A 
ATOM     10  C   UNL     1       5.560   5.675  15.188  0.00  0.00    +0.000 A 
ATOM     11  N   UNL     1       5.068   6.500  16.137  0.00  0.00    +0.000 NA
ATOM     12  C   UNL     1       4.488   5.922  17.211  0.00  0.00    +0.000 A 
ATOM     13  O   UNL     1       4.052   6.805  18.162  0.00  0.00    +0.000 OA
ENDROOT
BRANCH   1  14
ATOM     14  C   UNL     1       2.180   8.191  18.759  0.00  0.00    +0.000 C 
BRANCH  14  15
ATOM     15  C   UNL     1       1.698   8.120  20.216  0.00  0.00    +0.000 C 
BRANCH  15  17
ATOM     16  C   UNL     1       0.342   9.954  19.478  0.00  0.00    +0.000 C 
ATOM     17  N   UNL     1       0.915   9.291  20.656  0.00  0.00    +0.000 NA
ATOM     18  C   UNL     1      -0.155   8.949  21.593  0.00  0.00    +0.000 C 
ENDBRANCH  15  17
ENDBRANCH  14  15
ENDBRANCH   1  14
TORSDOF 3
ENDMDL
