MODEL 1
REMARK VINA RESULT:      -6.8      0.000      0.000
REMARK  Name = 
REMARK  6 active torsions:
REMARK  status: ('A' for Active; 'I' for Inactive)
REMARK    1  A    between atoms: C_1  and  O_2
REMARK    2  A    between atoms: O_2  and  C_3
REMARK    3  A    between atoms: C_7  and  C_8
REMARK    4  A    between atoms: N_9  and  N_10
REMARK    5  A    between atoms: C_11  and  C_13
REMARK    6  A    between atoms: C_16  and  C_17
REMARK                            x       y       z     vdW  Elec       q    Type
REMARK                         _______ _______ _______ _____ _____    ______ ____
ROOT
ATOM      1  N   UNL     1       2.462   5.001  18.435  0.00  0.00    +0.000 N 
ATOM      2  C   UNL     1       2.404   5.844  19.539  0.00  0.00    +0.000 C 
ATOM      3  O   UNL     1       2.698   5.532  20.691  0.00  0.00    +0.000 OA
ATOM      4  H   UNL     1       2.250   5.334  17.504  0.00  0.00    +0.000 HD
ENDROOT
BRANCH   2   5
ATOM      5  C   UNL     1       2.048   7.253  19.255  0.00  0.00    +0.000 A 
ATOM      6  C   UNL     1       2.242   7.879  18.024  0.00  0.00    +0.000 A 
ATOM      7  C   UNL     1       1.905   9.227  17.878  0.00  0.00    +0.000 A 
ATOM      8  C   UNL     1       1.383   9.918  18.969  0.00  0.00    +0.000 A 
ATOM      9  C   UNL     1       1.010  11.366  18.868  0.00  0.00    +0.000 C 
ATOM     10  N   UNL     1       1.176   9.324  20.166  0.00  0.00    +0.000 NA
ATOM     11  C   UNL     1       1.497   8.010  20.283  0.00  0.00    +0.000 A 
ENDBRANCH   2   5
BRANCH   1  13
ATOM     12  C   UNL     1       4.162   3.443  18.356  0.00  0.00    +0.000 C 
ATOM     13  N   UNL     1       2.914   3.727  18.589  0.00  0.00    +0.000 NA
BRANCH  12  18
ATOM     14  C   UNL     1       6.835   5.424  16.549  0.00  0.00    +0.000 A 
ATOM     15  C   UNL     1       7.509   5.977  17.641  0.00  0.00    +0.000 A 
ATOM     16  C   UNL     1       7.060   5.753  18.944  0.00  0.00    +0.000 A 
ATOM     17  C   UNL     1       5.961   4.926  19.168  0.00  0.00    +0.000 A 
ATOM     18  C   UNL     1       5.302   4.346  18.081  0.00  0.00    +0.000 A 
ATOM     19  C   UNL     1       5.695   4.654  16.774  0.00  0.00    +0.000 A 
BRANCH  14  21
ATOM     20  C   UNL     1       7.046   4.822  14.253  0.00  0.00    +0.000 C 
ATOM     21  O   UNL     1       7.388   5.690  15.329  0.00  0.00    +0.000 OA
ENDBRANCH  14  21
ENDBRANCH  12  18
ENDBRANCH   1  13
TORSDOF 4
ENDMDL
MODEL 2
REMARK VINA RESULT:      -6.8      3.703      4.726
REMARK  Name = 
REMARK  6 active torsions:
REMARK  status: ('A' for Active; 'I' for Inactive)
REMARK    1  A    between atoms: C_1  and  O_2
REMARK    2  A    between atoms: O_2  and  C_3
REMARK    3  A    between atoms: C_7  and  C_8
REMARK    4  A    between atoms: N_9  and  N_10
REMARK    5  A    between atoms: C_11  and  C_13
REMARK    6  A    between atoms: C_16  and  C_17
REMARK                            x       y       z     vdW  Elec       q    Type
REMARK                         _______ _______ _______ _____ _____    ______ ____
ROOT
ATOM      1  N   UNL     1       5.145   3.335  16.970  0.00  0.00    +0.000 N 
ATOM      2  C   UNL     1       4.089   4.178  17.297  0.00  0.00    +0.000 C 
ATOM      3  O   UNL     1       3.746   5.171  16.659  0.00  0.00    +0.000 OA
ATOM      4  H   UNL     1       5.347   2.506  17.513  0.00  0.00    +0.000 HD
ENDROOT
BRANCH   2   5
ATOM      5  C   UNL     1       3.271   3.764  18.460  0.00  0.00    +0.000 A 
ATOM      6  C   UNL     1       1.934   4.114  18.643  0.00  0.00    +0.000 A 
ATOM      7  C   UNL     1       1.268   3.700  19.799  0.00  0.00    +0.000 A 
ATOM      8  C   UNL     1       1.957   2.946  20.747  0.00  0.00    +0.000 A 
ATOM      9  C   UNL     1       1.292   2.481  22.006  0.00  0.00    +0.000 C 
ATOM     10  N   UNL     1       3.250   2.587  20.579  0.00  0.00    +0.000 NA
ATOM     11  C   UNL     1       3.875   2.988  19.443  0.00  0.00    +0.000 A 
ENDBRANCH   2   5
BRANCH   1  13
ATOM     12  C   UNL     1       6.708   4.555  15.789  0.00  0.00    +0.000 C 
ATOM     13  N   UNL     1       5.861   3.567  15.837  0.00  0.00    +0.000 NA
BRANCH  12  18
ATOM     14  C   UNL     1       7.698   7.646  17.737  0.00  0.00    +0.000 A 
ATOM     15  C   UNL     1       8.177   7.054  18.909  0.00  0.00    +0.000 A 
ATOM     16  C   UNL     1       8.123   5.669  19.082  0.00  0.00    +0.000 A 
ATOM     17  C   UNL     1       7.635   4.860  18.057  0.00  0.00    +0.000 A 
ATOM     18  C   UNL     1       7.183   5.445  16.871  0.00  0.00    +0.000 A 
ATOM     19  C   UNL     1       7.148   6.839  16.744  0.00  0.00    +0.000 A 
BRANCH  14  21
ATOM     20  C   UNL     1       8.756   9.610  18.576  0.00  0.00    +0.000 C 
ATOM     21  O   UNL     1       7.834   9.004  17.675  0.00  0.00    +0.000 OA
ENDBRANCH  14  21
ENDBRANCH  12  18
ENDBRANCH   1  13
TORSDOF 4
ENDMDL
MODEL 3
REMARK VINA RESULT:      -6.7      1.257      2.174
REMARK  Name = 
REMARK  6 active torsions:
REMARK  status: ('A' for Active; 'I' for Inactive)
REMARK    1  A    between atoms: C_1  and  O_2
REMARK    2  A    between atoms: O_2  and  C_3
REMARK    3  A    between atoms: C_7  and  C_8
REMARK    4  A    between atoms: N_9  and  N_10
REMARK    5  A    between atoms: C_11  and  C_13
REMARK    6  A    between atoms: C_16  and  C_17
REMARK                            x       y       z     vdW  Elec       q    Type
REMARK                         _______ _______ _______ _____ _____    ______ ____
ROOT
ATOM      1  N   UNL     1       3.469   5.646  19.739  0.00  0.00    +0.000 N 
ATOM      2  C   UNL     1       2.203   5.981  20.204  0.00  0.00    +0.000 C 
ATOM      3  O   UNL     1       1.442   5.227  20.807  0.00  0.00    +0.000 OA
ATOM      4  H   UNL     1       4.065   6.329  19.290  0.00  0.00    +0.000 HD
ENDROOT
BRANCH   2   5
ATOM      5  C   UNL     1       1.808   7.399  20.031  0.00  0.00    +0.000 A 
ATOM      6  C   UNL     1       1.175   8.161  21.011  0.00  0.00    +0.000 A 
ATOM      7  C   UNL     1       0.811   9.480  20.726  0.00  0.00    +0.000 A 
ATOM      8  C   UNL     1       1.088  10.003  19.465  0.00  0.00    +0.000 A 
ATOM      9  C   UNL     1       0.714  11.409  19.106  0.00  0.00    +0.000 C 
ATOM     10  N   UNL     1       1.712   9.281  18.507  0.00  0.00    +0.000 NA
ATOM     11  C   UNL     1       2.069   8.007  18.809  0.00  0.00    +0.000 A 
ENDBRANCH   2   5
BRANCH   1  13
ATOM     12  C   UNL     1       4.713   3.812  19.094  0.00  0.00    +0.000 C 
ATOM     13  N   UNL     1       3.963   4.402  19.980  0.00  0.00    +0.000 NA
BRANCH  12  18
ATOM     14  C   UNL     1       6.806   5.832  16.672  0.00  0.00    +0.000 A 
ATOM     15  C   UNL     1       6.283   5.378  15.458  0.00  0.00    +0.000 A 
ATOM     16  C   UNL     1       5.303   4.383  15.432  0.00  0.00    +0.000 A 
ATOM     17  C   UNL     1       4.799   3.873  16.628  0.00  0.00    +0.000 A 
ATOM     18  C   UNL     1       5.297   4.347  17.844  0.00  0.00    +0.000 A 
ATOM     19  C   UNL     1       6.349   5.271  17.862  0.00  0.00    +0.000 A 
BRANCH  14  21
ATOM     20  C   UNL     1       7.705   7.857  17.550  0.00  0.00    +0.000 C 
ATOM     21  O   UNL     1       7.736   6.828  16.567  0.00  0.00    +0.000 OA
ENDBRANCH  14  21
ENDBRANCH  12  18
ENDBRANCH   1  13
TORSDOF 4
ENDMDL
MODEL 4
REMARK VINA RESULT:      -6.7      1.150      1.878
REMARK  Name = 
REMARK  6 active torsions:
REMARK  status: ('A' for Active; 'I' for Inactive)
REMARK    1  A    between atoms: C_1  and  O_2
REMARK    2  A    between atoms: O_2  and  C_3
REMARK    3  A    between atoms: C_7  and  C_8
REMARK    4  A    between atoms: N_9  and  N_10
REMARK    5  A    between atoms: C_11  and  C_13
REMARK    6  A    between atoms: C_16  and  C_17
REMARK                            x       y       z     vdW  Elec       q    Type
REMARK                         _______ _______ _______ _____ _____    ______ ____
ROOT
ATOM      1  N   UNL     1       3.499   5.851  19.634  0.00  0.00    +0.000 N 
ATOM      2  C   UNL     1       2.216   6.219  20.021  0.00  0.00    +0.000 C 
ATOM      3  O   UNL     1       1.428   5.511  20.643  0.00  0.00    +0.000 OA
ATOM      4  H   UNL     1       4.116   6.499  19.164  0.00  0.00    +0.000 HD
ENDROOT
BRANCH   2   5
ATOM      5  C   UNL     1       1.834   7.621  19.730  0.00  0.00    +0.000 A 
ATOM      6  C   UNL     1       2.028   8.248  18.501  0.00  0.00    +0.000 A 
ATOM      7  C   UNL     1       1.664   9.588  18.349  0.00  0.00    +0.000 A 
ATOM      8  C   UNL     1       1.116  10.270  19.433  0.00  0.00    +0.000 A 
ATOM      9  C   UNL     1       0.714  11.710  19.325  0.00  0.00    +0.000 C 
ATOM     10  N   UNL     1       0.910   9.674  20.629  0.00  0.00    +0.000 NA
ATOM     11  C   UNL     1       1.257   8.367  20.751  0.00  0.00    +0.000 A 
ENDBRANCH   2   5
BRANCH   1  13
ATOM     12  C   UNL     1       4.760   3.973  19.174  0.00  0.00    +0.000 C 
ATOM     13  N   UNL     1       3.978   4.626  19.985  0.00  0.00    +0.000 NA
BRANCH  12  18
ATOM     14  C   UNL     1       6.885   5.871  16.682  0.00  0.00    +0.000 A 
ATOM     15  C   UNL     1       6.476   5.258  15.495  0.00  0.00    +0.000 A 
ATOM     16  C   UNL     1       5.564   4.201  15.516  0.00  0.00    +0.000 A 
ATOM     17  C   UNL     1       5.012   3.784  16.726  0.00  0.00    +0.000 A 
ATOM     18  C   UNL     1       5.394   4.414  17.912  0.00  0.00    +0.000 A 
ATOM     19  C   UNL     1       6.383   5.405  17.895  0.00  0.00    +0.000 A 
BRANCH  14  21
ATOM     20  C   UNL     1       7.756   7.919  17.535  0.00  0.00    +0.000 C 
ATOM     21  O   UNL     1       7.757   6.912  16.528  0.00  0.00    +0.000 OA
ENDBRANCH  14  21
ENDBRANCH  12  18
ENDBRANCH   1  13
TORSDOF 4
ENDMDL
MODEL 5
REMARK VINA RESULT:      -6.7      2.134      6.653
REMARK  Name = 
REMARK  6 active torsions:
REMARK  status: ('A' for Active; 'I' for Inactive)
REMARK    1  A    between atoms: C_1  and  O_2
REMARK    2  A    between atoms: O_2  and  C_3
REMARK    3  A    between atoms: C_7  and  C_8
REMARK    4  A    between atoms: N_9  and  N_10
REMARK    5  A    between atoms: C_11  and  C_13
REMARK    6  A    between atoms: C_16  and  C_17
REMARK                            x       y       z     vdW  Elec       q    Type
REMARK                         _______ _______ _______ _____ _____    ______ ____
ROOT
ATOM      1  N   UNL     1       3.995   4.375  18.121  0.00  0.00    +0.000 N 
ATOM      2  C   UNL     1       5.378   4.429  17.990  0.00  0.00    +0.000 C 
ATOM      3  O   UNL     1       6.186   4.294  18.906  0.00  0.00    +0.000 OA
ATOM      4  H   UNL     1       3.385   4.448  17.318  0.00  0.00    +0.000 HD
ENDROOT
BRANCH   2   5
ATOM      5  C   UNL     1       5.889   4.565  16.606  0.00  0.00    +0.000 A 
ATOM      6  C   UNL     1       5.310   3.955  15.494  0.00  0.00    +0.000 A 
ATOM      7  C   UNL     1       5.900   4.120  14.238  0.00  0.00    +0.000 A 
ATOM      8  C   UNL     1       7.056   4.888  14.126  0.00  0.00    +0.000 A 
ATOM      9  C   UNL     1       7.731   5.092  12.803  0.00  0.00    +0.000 C 
ATOM     10  N   UNL     1       7.623   5.496  15.192  0.00  0.00    +0.000 NA
ATOM     11  C   UNL     1       7.027   5.335  16.401  0.00  0.00    +0.000 A 
ENDBRANCH   2   5
BRANCH   1  13
ATOM     12  C   UNL     1       2.826   5.055  19.991  0.00  0.00    +0.000 C 
ATOM     13  N   UNL     1       3.448   4.115  19.339  0.00  0.00    +0.000 NA
BRANCH  12  18
ATOM     14  C   UNL     1       1.475   8.591  19.984  0.00  0.00    +0.000 A 
ATOM     15  C   UNL     1       1.661   8.921  18.639  0.00  0.00    +0.000 A 
ATOM     16  C   UNL     1       2.273   8.023  17.762  0.00  0.00    +0.000 A 
ATOM     17  C   UNL     1       2.655   6.761  18.215  0.00  0.00    +0.000 A 
ATOM     18  C   UNL     1       2.443   6.415  19.552  0.00  0.00    +0.000 A 
ATOM     19  C   UNL     1       1.921   7.356  20.448  0.00  0.00    +0.000 A 
BRANCH  14  21
ATOM     20  C   UNL     1      -0.246  10.234  20.122  0.00  0.00    +0.000 C 
ATOM     21  O   UNL     1       0.838   9.541  20.732  0.00  0.00    +0.000 OA
ENDBRANCH  14  21
ENDBRANCH  12  18
ENDBRANCH   1  13
TORSDOF 4
ENDMDL
MODEL 6
REMARK VINA RESULT:      -6.6      1.078      1.098
REMARK  Name = 
REMARK  6 active torsions:
REMARK  status: ('A' for Active; 'I' for Inactive)
REMARK    1  A    between atoms: C_1  and  O_2
REMARK    2  A    between atoms: O_2  and  C_3
REMARK    3  A    between atoms: C_7  and  C_8
REMARK    4  A    between atoms: N_9  and  N_10
REMARK    5  A    between atoms: C_11  and  C_13
REMARK    6  A    between atoms: C_16  and  C_17
REMARK                            x       y       z     vdW  Elec       q    Type
REMARK                         _______ _______ _______ _____ _____    ______ ____
ROOT
ATOM      1  N   UNL     1       3.265   5.792  20.001  0.00  0.00    +0.000 N 
ATOM      2  C   UNL     1       2.512   6.240  18.922  0.00  0.00    +0.000 C 
ATOM      3  O   UNL     1       2.188   5.562  17.949  0.00  0.00    +0.000 OA
ATOM      4  H   UNL     1       3.459   6.388  20.795  0.00  0.00    +0.000 HD
ENDROOT
BRANCH   2   5
ATOM      5  C   UNL     1       1.991   7.622  19.030  0.00  0.00    +0.000 A 
ATOM      6  C   UNL     1       1.936   8.525  17.969  0.00  0.00    +0.000 A 
ATOM      7  C   UNL     1       1.460   9.819  18.193  0.00  0.00    +0.000 A 
ATOM      8  C   UNL     1       1.053  10.180  19.475  0.00  0.00    +0.000 A 
ATOM      9  C   UNL     1       0.540  11.557  19.771  0.00  0.00    +0.000 C 
ATOM     10  N   UNL     1       1.089   9.314  20.513  0.00  0.00    +0.000 NA
ATOM     11  C   UNL     1       1.541   8.058  20.271  0.00  0.00    +0.000 A 
ENDBRANCH   2   5
BRANCH   1  13
ATOM     12  C   UNL     1       4.686   4.098  19.339  0.00  0.00    +0.000 C 
ATOM     13  N   UNL     1       3.665   4.492  20.045  0.00  0.00    +0.000 NA
BRANCH  12  18
ATOM     14  C   UNL     1       6.507   5.734  16.452  0.00  0.00    +0.000 A 
ATOM     15  C   UNL     1       7.572   6.326  17.138  0.00  0.00    +0.000 A 
ATOM     16  C   UNL     1       7.659   6.240  18.529  0.00  0.00    +0.000 A 
ATOM     17  C   UNL     1       6.706   5.513  19.241  0.00  0.00    +0.000 A 
ATOM     18  C   UNL     1       5.657   4.894  18.557  0.00  0.00    +0.000 A 
ATOM     19  C   UNL     1       5.521   5.067  17.174  0.00  0.00    +0.000 A 
BRANCH  14  21
ATOM     20  C   UNL     1       6.835   4.689  14.336  0.00  0.00    +0.000 C 
ATOM     21  O   UNL     1       6.551   5.862  15.092  0.00  0.00    +0.000 OA
ENDBRANCH  14  21
ENDBRANCH  12  18
ENDBRANCH   1  13
TORSDOF 4
ENDMDL
MODEL 7
REMARK VINA RESULT:      -6.6      3.122      7.024
REMARK  Name = 
REMARK  6 active torsions:
REMARK  status: ('A' for Active; 'I' for Inactive)
REMARK    1  A    between atoms: C_1  and  O_2
REMARK    2  A    between atoms: O_2  and  C_3
REMARK    3  A    between atoms: C_7  and  C_8
REMARK    4  A    between atoms: N_9  and  N_10
REMARK    5  A    between atoms: C_11  and  C_13
REMARK    6  A    between atoms: C_16  and  C_17
REMARK                            x       y       z     vdW  Elec       q    Type
REMARK                         _______ _______ _______ _____ _____    ______ ____
ROOT
ATOM      1  N   UNL     1       6.732   4.417  17.203  0.00  0.00    +0.000 N 
ATOM      2  C   UNL     1       6.989   5.235  16.110  0.00  0.00    +0.000 C 
ATOM      3  O   UNL     1       7.481   6.360  16.161  0.00  0.00    +0.000 OA
ATOM      4  H   UNL     1       6.367   3.480  17.089  0.00  0.00    +0.000 HD
ENDROOT
BRANCH   2   5
ATOM      5  C   UNL     1       6.728   4.634  14.781  0.00  0.00    +0.000 A 
ATOM      6  C   UNL     1       7.524   4.845  13.655  0.00  0.00    +0.000 A 
ATOM      7  C   UNL     1       7.162   4.257  12.440  0.00  0.00    +0.000 A 
ATOM      8  C   UNL     1       6.011   3.475  12.380  0.00  0.00    +0.000 A 
ATOM      9  C   UNL     1       5.576   2.828  11.100  0.00  0.00    +0.000 C 
ATOM     10  N   UNL     1       5.236   3.251  13.464  0.00  0.00    +0.000 NA
ATOM     11  C   UNL     1       5.612   3.819  14.638  0.00  0.00    +0.000 A 
ENDBRANCH   2   5
BRANCH   1  13
ATOM     12  C   UNL     1       6.147   5.193  19.297  0.00  0.00    +0.000 C 
ATOM     13  N   UNL     1       7.071   4.840  18.451  0.00  0.00    +0.000 NA
BRANCH  12  18
ATOM     14  C   UNL     1       2.621   3.845  19.589  0.00  0.00    +0.000 A 
ATOM     15  C   UNL     1       1.923   4.835  18.893  0.00  0.00    +0.000 A 
ATOM     16  C   UNL     1       2.586   5.954  18.387  0.00  0.00    +0.000 A 
ATOM     17  C   UNL     1       3.969   6.065  18.529  0.00  0.00    +0.000 A 
ATOM     18  C   UNL     1       4.676   5.063  19.197  0.00  0.00    +0.000 A 
ATOM     19  C   UNL     1       3.992   3.994  19.788  0.00  0.00    +0.000 A 
BRANCH  14  21
ATOM     20  C   UNL     1       1.493   2.751  21.381  0.00  0.00    +0.000 C 
ATOM     21  O   UNL     1       1.866   2.785  20.007  0.00  0.00    +0.000 OA
ENDBRANCH  14  21
ENDBRANCH  12  18
ENDBRANCH   1  13
TORSDOF 4
ENDMDL
MODEL 8
REMARK VINA RESULT:      -6.6      0.728      1.170
REMARK  Name = 
REMARK  6 active torsions:
REMARK  status: ('A' for Active; 'I' for Inactive)
REMARK    1  A    between atoms: C_1  and  O_2
REMARK    2  A    between atoms: O_2  and  C_3
REMARK    3  A    between atoms: C_7  and  C_8
REMARK    4  A    between atoms: N_9  and  N_10
REMARK    5  A    between atoms: C_11  and  C_13
REMARK    6  A    between atoms: C_16  and  C_17
REMARK                            x       y       z     vdW  Elec       q    Type
REMARK                         _______ _______ _______ _____ _____    ______ ____
ROOT
ATOM      1  N   UNL     1       2.458   4.767  18.787  0.00  0.00    +0.000 N 
ATOM      2  C   UNL     1       2.289   5.475  19.971  0.00  0.00    +0.000 C 
ATOM      3  O   UNL     1       2.470   5.028  21.102  0.00  0.00    +0.000 OA
ATOM      4  H   UNL     1       2.337   5.208  17.885  0.00  0.00    +0.000 HD
ENDROOT
BRANCH   2   5
ATOM      5  C   UNL     1       1.957   6.912  19.820  0.00  0.00    +0.000 A 
ATOM      6  C   UNL     1       1.348   7.683  20.808  0.00  0.00    +0.000 A 
ATOM      7  C   UNL     1       1.045   9.022  20.544  0.00  0.00    +0.000 A 
ATOM      8  C   UNL     1       1.357   9.555  19.296  0.00  0.00    +0.000 A 
ATOM      9  C   UNL     1       1.048  10.982  18.959  0.00  0.00    +0.000 C 
ATOM     10  N   UNL     1       1.958   8.823  18.331  0.00  0.00    +0.000 NA
ATOM     11  C   UNL     1       2.257   7.530  18.612  0.00  0.00    +0.000 A 
ENDBRANCH   2   5
BRANCH   1  13
ATOM     12  C   UNL     1       4.119   3.193  18.490  0.00  0.00    +0.000 C 
ATOM     13  N   UNL     1       2.897   3.480  18.834  0.00  0.00    +0.000 NA
BRANCH  12  18
ATOM     14  C   UNL     1       6.883   5.000  16.640  0.00  0.00    +0.000 A 
ATOM     15  C   UNL     1       7.438   5.738  17.689  0.00  0.00    +0.000 A 
ATOM     16  C   UNL     1       6.879   5.690  18.968  0.00  0.00    +0.000 A 
ATOM     17  C   UNL     1       5.789   4.858  19.219  0.00  0.00    +0.000 A 
ATOM     18  C   UNL     1       5.250   4.094  18.181  0.00  0.00    +0.000 A 
ATOM     19  C   UNL     1       5.752   4.223  16.880  0.00  0.00    +0.000 A 
BRANCH  14  21
ATOM     20  C   UNL     1       6.815   4.750  14.271  0.00  0.00    +0.000 C 
ATOM     21  O   UNL     1       7.538   5.106  15.445  0.00  0.00    +0.000 OA
ENDBRANCH  14  21
ENDBRANCH  12  18
ENDBRANCH   1  13
TORSDOF 4
ENDMDL
MODEL 9
REMARK VINA RESULT:      -6.6      1.423      2.048
REMARK  Name = 
REMARK  6 active torsions:
REMARK  status: ('A' for Active; 'I' for Inactive)
REMARK    1  A    between atoms: C_1  and  O_2
REMARK    2  A    between atoms: O_2  and  C_3
REMARK    3  A    between atoms: C_7  and  C_8
REMARK    4  A    between atoms: N_9  and  N_10
REMARK    5  A    between atoms: C_11  and  C_13
REMARK    6  A    between atoms: C_16  and  C_17
REMARK                            x       y       z     vdW  Elec       q    Type
REMARK                         _______ _______ _______ _____ _____    ______ ____
ROOT
ATOM      1  N   UNL     1       3.345   5.623  19.946  0.00  0.00    +0.000 N 
ATOM      2  C   UNL     1       2.570   6.056  18.876  0.00  0.00    +0.000 C 
ATOM      3  O   UNL     1       2.212   5.361  17.928  0.00  0.00    +0.000 OA
ATOM      4  H   UNL     1       3.566   6.235  20.720  0.00  0.00    +0.000 HD
ENDROOT
BRANCH   2   5
ATOM      5  C   UNL     1       2.068   7.447  18.966  0.00  0.00    +0.000 A 
ATOM      6  C   UNL     1       2.042   8.341  17.897  0.00  0.00    +0.000 A 
ATOM      7  C   UNL     1       1.582   9.645  18.104  0.00  0.00    +0.000 A 
ATOM      8  C   UNL     1       1.162  10.022  19.377  0.00  0.00    +0.000 A 
ATOM      9  C   UNL     1       0.666  11.409  19.655  0.00  0.00    +0.000 C 
ATOM     10  N   UNL     1       1.170   9.164  20.422  0.00  0.00    +0.000 NA
ATOM     11  C   UNL     1       1.606   7.899  20.196  0.00  0.00    +0.000 A 
ENDBRANCH   2   5
BRANCH   1  13
ATOM     12  C   UNL     1       4.703   3.889  19.258  0.00  0.00    +0.000 C 
ATOM     13  N   UNL     1       3.731   4.320  20.009  0.00  0.00    +0.000 NA
BRANCH  12  18
ATOM     14  C   UNL     1       7.368   6.308  18.086  0.00  0.00    +0.000 A 
ATOM     15  C   UNL     1       7.298   6.099  16.706  0.00  0.00    +0.000 A 
ATOM     16  C   UNL     1       6.435   5.140  16.173  0.00  0.00    +0.000 A 
ATOM     17  C   UNL     1       5.592   4.418  17.017  0.00  0.00    +0.000 A 
ATOM     18  C   UNL     1       5.637   4.645  18.394  0.00  0.00    +0.000 A 
ATOM     19  C   UNL     1       6.575   5.535  18.930  0.00  0.00    +0.000 A 
BRANCH  14  21
ATOM     20  C   UNL     1       8.065   8.578  17.888  0.00  0.00    +0.000 C 
ATOM     21  O   UNL     1       8.228   7.294  18.481  0.00  0.00    +0.000 OA
ENDBRANCH  14  21
ENDBRANCH  12  18
ENDBRANCH   1  13
TORSDOF 4
ENDMDL
