MODEL 1
REMARK VINA RESULT:      -9.4      0.000      0.000
REMARK  Name = 
REMARK  7 active torsions:
REMARK  status: ('A' for Active; 'I' for Inactive)
REMARK    1  A    between atoms: N_1  and  S_2
REMARK    2  A    between atoms: S_2  and  N_5
REMARK    3  A    between atoms: N_5  and  C_6
REMARK    4  A    between atoms: C_6  and  C_7
REMARK    5  A    between atoms: C_10  and  C_11
REMARK    6  A    between atoms: C_11  and  C_13
REMARK    7  A    between atoms: C_18  and  C_19
REMARK                            x       y       z     vdW  Elec       q    Type
REMARK                         _______ _______ _______ _____ _____    ______ ____
ROOT
ATOM      1  C   UNL     1       4.090   5.293  18.810  0.00  0.00    +0.000 A 
ATOM      2  N   UNL     1       4.057   6.191  17.847  0.00  0.00    +0.000 NA
ATOM      3  C   UNL     1       3.161   7.188  18.162  0.00  0.00    +0.000 A 
ATOM      4  C   UNL     1       2.928   8.337  17.394  0.00  0.00    +0.000 A 
ATOM      5  C   UNL     1       1.986   9.278  17.823  0.00  0.00    +0.000 A 
ATOM      6  C   UNL     1       1.261   9.121  19.015  0.00  0.00    +0.000 A 
ATOM      7  C   UNL     1       1.514   7.967  19.795  0.00  0.00    +0.000 A 
ATOM      8  C   UNL     1       2.454   7.013  19.350  0.00  0.00    +0.000 A 
ATOM      9  S   UNL     1       2.947   5.516  20.067  0.00  0.00    +0.000 S 
ENDROOT
BRANCH   6  10
ATOM     10  C   UNL     1       0.237  10.125  19.410  0.00  0.00    +0.000 A 
ATOM     11  C   UNL     1      -0.650  10.696  18.452  0.00  0.00    +0.000 A 
ATOM     12  C   UNL     1      -1.676  11.589  18.804  0.00  0.00    +0.000 A 
ATOM     13  C   UNL     1      -1.809  11.931  20.133  0.00  0.00    +0.000 A 
ATOM     14  C   UNL     1      -0.936  11.396  21.075  0.00  0.00    +0.000 A 
ATOM     15  C   UNL     1       0.076  10.506  20.753  0.00  0.00    +0.000 A 
ATOM     16  C   UNL     1      -1.316  11.919  22.393  0.00  0.00    +0.000 C 
ATOM     17  O   UNL     1      -0.775  11.663  23.449  0.00  0.00    +0.000 OA
ATOM     18  N   UNL     1      -2.400  12.746  22.185  0.00  0.00    +0.000 N 
ATOM     19  C   UNL     1      -2.793  12.830  20.800  0.00  0.00    +0.000 C 
ATOM     20  H   UNL     1      -2.851  13.218  22.957  0.00  0.00    +0.000 HD
ENDBRANCH   6  10
BRANCH   1  21
ATOM     21  C   UNL     1       5.033   4.181  18.815  0.00  0.00    +0.000 C 
ATOM     22  O   UNL     1       4.998   3.238  19.603  0.00  0.00    +0.000 OA
BRANCH  21  26
ATOM     23  C   UNL     1       6.934   4.449  15.841  0.00  0.00    +0.000 A 
ATOM     24  N   UNL     1       7.909   4.571  16.715  0.00  0.00    +0.000 NA
ATOM     25  N   UNL     1       7.336   4.492  17.958  0.00  0.00    +0.000 NA
ATOM     26  C   UNL     1       6.036   4.335  17.773  0.00  0.00    +0.000 A 
ATOM     27  O   UNL     1       5.701   4.259  16.435  0.00  0.00    +0.000 OA
BRANCH  23  28
ATOM     28  C   UNL     1       7.029   4.416  14.357  0.00  0.00    +0.000 C 
BRANCH  28  29
ATOM     29  N   UNL     1       6.187   3.333  13.792  0.00  0.00    +0.000 NA
ATOM     30  H   UNL     1       6.575   2.419  14.025  0.00  0.00    +0.000 HD
BRANCH  29  31
ATOM     31  S   UNL     1       6.073   3.449  12.134  0.00  0.00    +0.000 S 
ATOM     32  O   UNL     1       7.133   4.299  11.666  0.00  0.00    +0.000 OA
ATOM     33  O   UNL     1       4.694   3.620  11.765  0.00  0.00    +0.000 OA
BRANCH  31  34
ATOM     34  N   UNL     1       6.480   1.880  11.784  0.00  0.00    +0.000 NA
ATOM     35  H   UNL     1       5.665   1.401  11.401  0.00  0.00    +0.000 HD
ATOM     36  H   UNL     1       6.798   1.416  12.637  0.00  0.00    +0.000 HD
ENDBRANCH  31  34
ENDBRANCH  29  31
ENDBRANCH  28  29
ENDBRANCH  23  28
ENDBRANCH  21  26
ENDBRANCH   1  21
TORSDOF 7
ENDMDL
MODEL 2
REMARK VINA RESULT:      -9.2      1.433      1.771
REMARK  Name = 
REMARK  7 active torsions:
REMARK  status: ('A' for Active; 'I' for Inactive)
REMARK    1  A    between atoms: N_1  and  S_2
REMARK    2  A    between atoms: S_2  and  N_5
REMARK    3  A    between atoms: N_5  and  C_6
REMARK    4  A    between atoms: C_6  and  C_7
REMARK    5  A    between atoms: C_10  and  C_11
REMARK    6  A    between atoms: C_11  and  C_13
REMARK    7  A    between atoms: C_18  and  C_19
REMARK                            x       y       z     vdW  Elec       q    Type
REMARK                         _______ _______ _______ _____ _____    ______ ____
ROOT
ATOM      1  C   UNL     1       3.269   4.892  18.982  0.00  0.00    +0.000 A 
ATOM      2  N   UNL     1       3.105   5.914  18.168  0.00  0.00    +0.000 NA
ATOM      3  C   UNL     1       2.453   6.937  18.821  0.00  0.00    +0.000 A 
ATOM      4  C   UNL     1       2.179   8.198  18.275  0.00  0.00    +0.000 A 
ATOM      5  C   UNL     1       1.505   9.154  19.043  0.00  0.00    +0.000 A 
ATOM      6  C   UNL     1       1.096   8.901  20.362  0.00  0.00    +0.000 A 
ATOM      7  C   UNL     1       1.392   7.632  20.913  0.00  0.00    +0.000 A 
ATOM      8  C   UNL     1       2.058   6.665  20.130  0.00  0.00    +0.000 A 
ATOM      9  S   UNL     1       2.525   5.044  20.518  0.00  0.00    +0.000 S 
ENDROOT
BRANCH   6  10
ATOM     10  C   UNL     1       0.344   9.931  21.127  0.00  0.00    +0.000 A 
ATOM     11  C   UNL     1      -0.349   9.604  22.329  0.00  0.00    +0.000 A 
ATOM     12  C   UNL     1      -1.005  10.566  23.114  0.00  0.00    +0.000 A 
ATOM     13  C   UNL     1      -0.984  11.875  22.683  0.00  0.00    +0.000 A 
ATOM     14  C   UNL     1      -0.329  12.205  21.500  0.00  0.00    +0.000 A 
ATOM     15  C   UNL     1       0.333  11.275  20.716  0.00  0.00    +0.000 A 
ATOM     16  C   UNL     1      -0.460  13.653  21.299  0.00  0.00    +0.000 C 
ATOM     17  O   UNL     1      -0.007  14.291  20.370  0.00  0.00    +0.000 OA
ATOM     18  N   UNL     1      -1.186  14.131  22.369  0.00  0.00    +0.000 N 
ATOM     19  C   UNL     1      -1.572  13.099  23.300  0.00  0.00    +0.000 C 
ATOM     20  H   UNL     1      -1.397  15.116  22.458  0.00  0.00    +0.000 HD
ENDBRANCH   6  10
BRANCH   1  21
ATOM     21  C   UNL     1       4.033   3.707  18.611  0.00  0.00    +0.000 C 
ATOM     22  O   UNL     1       3.804   2.570  19.019  0.00  0.00    +0.000 OA
BRANCH  21  26
ATOM     23  C   UNL     1       6.186   4.425  15.894  0.00  0.00    +0.000 A 
ATOM     24  N   UNL     1       7.059   4.521  16.872  0.00  0.00    +0.000 NA
ATOM     25  N   UNL     1       6.375   4.270  18.034  0.00  0.00    +0.000 NA
ATOM     26  C   UNL     1       5.117   4.042  17.700  0.00  0.00    +0.000 A 
ATOM     27  O   UNL     1       4.921   4.087  16.334  0.00  0.00    +0.000 OA
BRANCH  23  28
ATOM     28  C   UNL     1       6.427   4.559  14.432  0.00  0.00    +0.000 C 
BRANCH  28  29
ATOM     29  N   UNL     1       6.381   3.237  13.760  0.00  0.00    +0.000 NA
ATOM     30  H   UNL     1       7.274   2.752  13.864  0.00  0.00    +0.000 HD
BRANCH  29  31
ATOM     31  S   UNL     1       6.049   3.388  12.135  0.00  0.00    +0.000 S 
ATOM     32  O   UNL     1       7.101   4.155  11.527  0.00  0.00    +0.000 OA
ATOM     33  O   UNL     1       4.651   3.677  11.963  0.00  0.00    +0.000 OA
BRANCH  31  34
ATOM     34  N   UNL     1       6.271   1.797  11.725  0.00  0.00    +0.000 NA
ATOM     35  H   UNL     1       6.416   1.250  12.575  0.00  0.00    +0.000 HD
ATOM     36  H   UNL     1       7.082   1.717  11.108  0.00  0.00    +0.000 HD
ENDBRANCH  31  34
ENDBRANCH  29  31
ENDBRANCH  28  29
ENDBRANCH  23  28
ENDBRANCH  21  26
ENDBRANCH   1  21
TORSDOF 7
ENDMDL
MODEL 3
REMARK VINA RESULT:      -9.2      5.111     10.095
REMARK  Name = 
REMARK  7 active torsions:
REMARK  status: ('A' for Active; 'I' for Inactive)
REMARK    1  A    between atoms: N_1  and  S_2
REMARK    2  A    between atoms: S_2  and  N_5
REMARK    3  A    between atoms: N_5  and  C_6
REMARK    4  A    between atoms: C_6  and  C_7
REMARK    5  A    between atoms: C_10  and  C_11
REMARK    6  A    between atoms: C_11  and  C_13
REMARK    7  A    between atoms: C_18  and  C_19
REMARK                            x       y       z     vdW  Elec       q    Type
REMARK                         _______ _______ _______ _____ _____    ______ ____
ROOT
ATOM      1  C   UNL     1      -0.134  11.926  20.578  0.00  0.00    +0.000 A 
ATOM      2  N   UNL     1       0.475  11.789  19.419  0.00  0.00    +0.000 NA
ATOM      3  C   UNL     1       1.001  10.521  19.308  0.00  0.00    +0.000 A 
ATOM      4  C   UNL     1       1.652  10.011  18.177  0.00  0.00    +0.000 A 
ATOM      5  C   UNL     1       2.146   8.702  18.192  0.00  0.00    +0.000 A 
ATOM      6  C   UNL     1       2.003   7.862  19.308  0.00  0.00    +0.000 A 
ATOM      7  C   UNL     1       1.328   8.376  20.441  0.00  0.00    +0.000 A 
ATOM      8  C   UNL     1       0.846   9.703  20.427  0.00  0.00    +0.000 A 
ATOM      9  S   UNL     1       0.017  10.600  21.653  0.00  0.00    +0.000 S 
ENDROOT
BRANCH   6  10
ATOM     10  C   UNL     1       2.582   6.492  19.296  0.00  0.00    +0.000 A 
ATOM     11  C   UNL     1       3.544   6.102  18.320  0.00  0.00    +0.000 A 
ATOM     12  C   UNL     1       4.166   4.842  18.326  0.00  0.00    +0.000 A 
ATOM     13  C   UNL     1       3.807   3.949  19.313  0.00  0.00    +0.000 A 
ATOM     14  C   UNL     1       2.853   4.311  20.260  0.00  0.00    +0.000 A 
ATOM     15  C   UNL     1       2.236   5.550  20.280  0.00  0.00    +0.000 A 
ATOM     16  C   UNL     1       2.682   3.182  21.183  0.00  0.00    +0.000 C 
ATOM     17  O   UNL     1       1.932   3.144  22.137  0.00  0.00    +0.000 OA
ATOM     18  N   UNL     1       3.540   2.193  20.752  0.00  0.00    +0.000 N 
ATOM     19  C   UNL     1       4.295   2.566  19.581  0.00  0.00    +0.000 C 
ATOM     20  H   UNL     1       3.610   1.312  21.243  0.00  0.00    +0.000 HD
ENDBRANCH   6  10
BRANCH   1  21
ATOM     21  C   UNL     1      -0.891  13.121  20.931  0.00  0.00    +0.000 C 
ATOM     22  O   UNL     1      -0.427  14.094  21.523  0.00  0.00    +0.000 OA
BRANCH  21  26
ATOM     23  C   UNL     1      -4.013  12.393  19.429  0.00  0.00    +0.000 A 
ATOM     24  N   UNL     1      -4.407  13.324  20.270  0.00  0.00    +0.000 NA
ATOM     25  N   UNL     1      -3.292  13.729  20.958  0.00  0.00    +0.000 NA
ATOM     26  C   UNL     1      -2.277  13.013  20.504  0.00  0.00    +0.000 A 
ATOM     27  O   UNL     1      -2.653  12.155  19.489  0.00  0.00    +0.000 OA
BRANCH  23  28
ATOM     28  C   UNL     1      -4.826  11.665  18.418  0.00  0.00    +0.000 C 
BRANCH  28  29
ATOM     29  N   UNL     1      -4.384  11.994  17.040  0.00  0.00    +0.000 NA
ATOM     30  H   UNL     1      -5.190  12.090  16.420  0.00  0.00    +0.000 HD
BRANCH  29  31
ATOM     31  S   UNL     1      -3.381  10.817  16.422  0.00  0.00    +0.000 S 
ATOM     32  O   UNL     1      -3.598  10.736  15.004  0.00  0.00    +0.000 OA
ATOM     33  O   UNL     1      -3.397   9.675  17.296  0.00  0.00    +0.000 OA
BRANCH  31  34
ATOM     34  N   UNL     1      -1.946  11.607  16.678  0.00  0.00    +0.000 NA
ATOM     35  H   UNL     1      -1.174  10.959  16.513  0.00  0.00    +0.000 HD
ATOM     36  H   UNL     1      -1.919  11.955  17.638  0.00  0.00    +0.000 HD
ENDBRANCH  31  34
ENDBRANCH  29  31
ENDBRANCH  28  29
ENDBRANCH  23  28
ENDBRANCH  21  26
ENDBRANCH   1  21
TORSDOF 7
ENDMDL
MODEL 4
REMARK VINA RESULT:      -9.2      3.475     10.252
REMARK  Name = 
REMARK  7 active torsions:
REMARK  status: ('A' for Active; 'I' for Inactive)
REMARK    1  A    between atoms: N_1  and  S_2
REMARK    2  A    between atoms: S_2  and  N_5
REMARK    3  A    between atoms: N_5  and  C_6
REMARK    4  A    between atoms: C_6  and  C_7
REMARK    5  A    between atoms: C_10  and  C_11
REMARK    6  A    between atoms: C_11  and  C_13
REMARK    7  A    between atoms: C_18  and  C_19
REMARK                            x       y       z     vdW  Elec       q    Type
REMARK                         _______ _______ _______ _____ _____    ______ ____
ROOT
ATOM      1  C   UNL     1      -0.233  11.479  20.906  0.00  0.00    +0.000 A 
ATOM      2  N   UNL     1       0.342  11.710  19.744  0.00  0.00    +0.000 NA
ATOM      3  C   UNL     1       0.966  10.569  19.291  0.00  0.00    +0.000 A 
ATOM      4  C   UNL     1       1.615  10.439  18.055  0.00  0.00    +0.000 A 
ATOM      5  C   UNL     1       2.215   9.223  17.712  0.00  0.00    +0.000 A 
ATOM      6  C   UNL     1       2.183   8.107  18.563  0.00  0.00    +0.000 A 
ATOM      7  C   UNL     1       1.511   8.239  19.802  0.00  0.00    +0.000 A 
ATOM      8  C   UNL     1       0.920   9.473  20.151  0.00  0.00    +0.000 A 
ATOM      9  S   UNL     1       0.067   9.934  21.584  0.00  0.00    +0.000 S 
ENDROOT
BRANCH   6  10
ATOM     10  C   UNL     1       2.872   6.847  18.177  0.00  0.00    +0.000 A 
ATOM     11  C   UNL     1       2.240   5.579  18.331  0.00  0.00    +0.000 A 
ATOM     12  C   UNL     1       2.832   4.378  17.906  0.00  0.00    +0.000 A 
ATOM     13  C   UNL     1       4.085   4.441  17.334  0.00  0.00    +0.000 A 
ATOM     14  C   UNL     1       4.721   5.671  17.197  0.00  0.00    +0.000 A 
ATOM     15  C   UNL     1       4.153   6.868  17.598  0.00  0.00    +0.000 A 
ATOM     16  C   UNL     1       6.020   5.439  16.553  0.00  0.00    +0.000 C 
ATOM     17  O   UNL     1       6.843   6.287  16.273  0.00  0.00    +0.000 OA
ATOM     18  N   UNL     1       6.107   4.081  16.330  0.00  0.00    +0.000 N 
ATOM     19  C   UNL     1       4.947   3.355  16.786  0.00  0.00    +0.000 C 
ATOM     20  H   UNL     1       6.917   3.677  15.880  0.00  0.00    +0.000 HD
ENDBRANCH   6  10
BRANCH   1  21
ATOM     21  C   UNL     1      -1.073  12.465  21.577  0.00  0.00    +0.000 C 
ATOM     22  O   UNL     1      -0.736  13.113  22.566  0.00  0.00    +0.000 OA
BRANCH  21  26
ATOM     23  C   UNL     1      -3.988  12.240  19.581  0.00  0.00    +0.000 A 
ATOM     24  N   UNL     1      -4.362  13.220  20.373  0.00  0.00    +0.000 NA
ATOM     25  N   UNL     1      -3.323  13.443  21.240  0.00  0.00    +0.000 NA
ATOM     26  C   UNL     1      -2.372  12.578  20.933  0.00  0.00    +0.000 A 
ATOM     27  O   UNL     1      -2.709  11.791  19.849  0.00  0.00    +0.000 OA
BRANCH  23  28
ATOM     28  C   UNL     1      -4.731  11.651  18.435  0.00  0.00    +0.000 C 
BRANCH  28  29
ATOM     29  N   UNL     1      -4.177  12.122  17.141  0.00  0.00    +0.000 NA
ATOM     30  H   UNL     1      -4.930  12.301  16.474  0.00  0.00    +0.000 HD
BRANCH  29  31
ATOM     31  S   UNL     1      -3.141  11.000  16.475  0.00  0.00    +0.000 S 
ATOM     32  O   UNL     1      -3.217  11.107  15.044  0.00  0.00    +0.000 OA
ATOM     33  O   UNL     1      -3.266   9.758  17.188  0.00  0.00    +0.000 OA
BRANCH  31  34
ATOM     34  N   UNL     1      -1.723  11.704  16.968  0.00  0.00    +0.000 NA
ATOM     35  H   UNL     1      -1.910  12.303  17.773  0.00  0.00    +0.000 HD
ATOM     36  H   UNL     1      -1.333  12.253  16.199  0.00  0.00    +0.000 HD
ENDBRANCH  31  34
ENDBRANCH  29  31
ENDBRANCH  28  29
ENDBRANCH  23  28
ENDBRANCH  21  26
ENDBRANCH   1  21
TORSDOF 7
ENDMDL
MODEL 5
REMARK VINA RESULT:      -9.1      4.451     10.183
REMARK  Name = 
REMARK  7 active torsions:
REMARK  status: ('A' for Active; 'I' for Inactive)
REMARK    1  A    between atoms: N_1  and  S_2
REMARK    2  A    between atoms: S_2  and  N_5
REMARK    3  A    between atoms: N_5  and  C_6
REMARK    4  A    between atoms: C_6  and  C_7
REMARK    5  A    between atoms: C_10  and  C_11
REMARK    6  A    between atoms: C_11  and  C_13
REMARK    7  A    between atoms: C_18  and  C_19
REMARK                            x       y       z     vdW  Elec       q    Type
REMARK                         _______ _______ _______ _____ _____    ______ ____
ROOT
ATOM      1  C   UNL     1       0.214  11.473  21.050  0.00  0.00    +0.000 A 
ATOM      2  N   UNL     1       0.678  11.581  19.822  0.00  0.00    +0.000 NA
ATOM      3  C   UNL     1       1.153  10.363  19.389  0.00  0.00    +0.000 A 
ATOM      4  C   UNL     1       1.653  10.100  18.106  0.00  0.00    +0.000 A 
ATOM      5  C   UNL     1       2.110   8.816  17.789  0.00  0.00    +0.000 A 
ATOM      6  C   UNL     1       2.077   7.762  18.715  0.00  0.00    +0.000 A 
ATOM      7  C   UNL     1       1.554   8.029  20.003  0.00  0.00    +0.000 A 
ATOM      8  C   UNL     1       1.109   9.329  20.323  0.00  0.00    +0.000 A 
ATOM      9  S   UNL     1       0.455   9.951  21.800  0.00  0.00    +0.000 S 
ENDROOT
BRANCH   6  10
ATOM     10  C   UNL     1       2.613   6.423  18.349  0.00  0.00    +0.000 A 
ATOM     11  C   UNL     1       3.970   6.253  17.947  0.00  0.00    +0.000 A 
ATOM     12  C   UNL     1       4.528   4.994  17.668  0.00  0.00    +0.000 A 
ATOM     13  C   UNL     1       3.713   3.888  17.776  0.00  0.00    +0.000 A 
ATOM     14  C   UNL     1       2.381   4.043  18.147  0.00  0.00    +0.000 A 
ATOM     15  C   UNL     1       1.812   5.272  18.437  0.00  0.00    +0.000 A 
ATOM     16  C   UNL     1       1.765   2.711  18.191  0.00  0.00    +0.000 C 
ATOM     17  O   UNL     1       0.613   2.463  18.482  0.00  0.00    +0.000 OA
ATOM     18  N   UNL     1       2.753   1.814  17.845  0.00  0.00    +0.000 N 
ATOM     19  C   UNL     1       4.018   2.444  17.559  0.00  0.00    +0.000 C 
ATOM     20  H   UNL     1       2.569   0.820  17.816  0.00  0.00    +0.000 HD
ENDBRANCH   6  10
BRANCH   1  21
ATOM     21  C   UNL     1      -0.464  12.569  21.732  0.00  0.00    +0.000 C 
ATOM     22  O   UNL     1       0.003  13.201  22.677  0.00  0.00    +0.000 OA
BRANCH  21  26
ATOM     23  C   UNL     1      -3.560  12.552  20.015  0.00  0.00    +0.000 A 
ATOM     24  N   UNL     1      -3.657  13.730  20.592  0.00  0.00    +0.000 NA
ATOM     25  N   UNL     1      -2.510  13.904  21.323  0.00  0.00    +0.000 NA
ATOM     26  C   UNL     1      -1.778  12.815  21.159  0.00  0.00    +0.000 A 
ATOM     27  O   UNL     1      -2.370  11.911  20.299  0.00  0.00    +0.000 OA
BRANCH  23  28
ATOM     28  C   UNL     1      -4.517  11.908  19.076  0.00  0.00    +0.000 C 
BRANCH  28  29
ATOM     29  N   UNL     1      -4.226  12.289  17.672  0.00  0.00    +0.000 NA
ATOM     30  H   UNL     1      -5.092  12.380  17.139  0.00  0.00    +0.000 HD
BRANCH  29  31
ATOM     31  S   UNL     1      -3.260  11.160  16.919  0.00  0.00    +0.000 S 
ATOM     32  O   UNL     1      -3.559  11.172  15.514  0.00  0.00    +0.000 OA
ATOM     33  O   UNL     1      -3.224   9.963  17.715  0.00  0.00    +0.000 OA
BRANCH  31  34
ATOM     34  N   UNL     1      -1.812  11.937  17.143  0.00  0.00    +0.000 NA
ATOM     35  H   UNL     1      -1.133  11.579  16.470  0.00  0.00    +0.000 HD
ATOM     36  H   UNL     1      -1.486  11.776  18.098  0.00  0.00    +0.000 HD
ENDBRANCH  31  34
ENDBRANCH  29  31
ENDBRANCH  28  29
ENDBRANCH  23  28
ENDBRANCH  21  26
ENDBRANCH   1  21
TORSDOF 7
ENDMDL
MODEL 6
REMARK VINA RESULT:      -9.0      3.793     11.001
REMARK  Name = 
REMARK  7 active torsions:
REMARK  status: ('A' for Active; 'I' for Inactive)
REMARK    1  A    between atoms: N_1  and  S_2
REMARK    2  A    between atoms: S_2  and  N_5
REMARK    3  A    between atoms: N_5  and  C_6
REMARK    4  A    between atoms: C_6  and  C_7
REMARK    5  A    between atoms: C_10  and  C_11
REMARK    6  A    between atoms: C_11  and  C_13
REMARK    7  A    between atoms: C_18  and  C_19
REMARK                            x       y       z     vdW  Elec       q    Type
REMARK                         _______ _______ _______ _____ _____    ______ ____
ROOT
ATOM      1  C   UNL     1      -0.524  11.510  22.159  0.00  0.00    +0.000 A 
ATOM      2  N   UNL     1       0.017  11.619  20.964  0.00  0.00    +0.000 NA
ATOM      3  C   UNL     1       0.569  10.416  20.583  0.00  0.00    +0.000 A 
ATOM      4  C   UNL     1       1.164  10.157  19.341  0.00  0.00    +0.000 A 
ATOM      5  C   UNL     1       1.693   8.888  19.077  0.00  0.00    +0.000 A 
ATOM      6  C   UNL     1       1.641   7.846  20.017  0.00  0.00    +0.000 A 
ATOM      7  C   UNL     1       1.023   8.110  21.262  0.00  0.00    +0.000 A 
ATOM      8  C   UNL     1       0.505   9.395  21.530  0.00  0.00    +0.000 A 
ATOM      9  S   UNL     1      -0.272  10.010  22.950  0.00  0.00    +0.000 S 
ENDROOT
BRANCH   6  10
ATOM     10  C   UNL     1       2.255   6.527  19.710  0.00  0.00    +0.000 A 
ATOM     11  C   UNL     1       2.001   5.384  20.524  0.00  0.00    +0.000 A 
ATOM     12  C   UNL     1       2.504   4.108  20.219  0.00  0.00    +0.000 A 
ATOM     13  C   UNL     1       3.287   3.973  19.094  0.00  0.00    +0.000 A 
ATOM     14  C   UNL     1       3.559   5.085  18.303  0.00  0.00    +0.000 A 
ATOM     15  C   UNL     1       3.066   6.350  18.577  0.00  0.00    +0.000 A 
ATOM     16  C   UNL     1       4.397   4.647  17.179  0.00  0.00    +0.000 C 
ATOM     17  O   UNL     1       4.823   5.351  16.286  0.00  0.00    +0.000 OA
ATOM     18  N   UNL     1       4.591   3.292  17.343  0.00  0.00    +0.000 N 
ATOM     19  C   UNL     1       3.941   2.763  18.517  0.00  0.00    +0.000 C 
ATOM     20  H   UNL     1       5.134   2.758  16.678  0.00  0.00    +0.000 HD
ENDBRANCH   6  10
BRANCH   1  21
ATOM     21  C   UNL     1      -1.290  12.586  22.776  0.00  0.00    +0.000 C 
ATOM     22  O   UNL     1      -0.830  13.410  23.564  0.00  0.00    +0.000 OA
BRANCH  21  26
ATOM     23  C   UNL     1      -4.420  12.766  21.132  0.00  0.00    +0.000 A 
ATOM     24  N   UNL     1      -4.836  12.361  22.311  0.00  0.00    +0.000 NA
ATOM     25  N   UNL     1      -3.720  12.232  23.098  0.00  0.00    +0.000 NA
ATOM     26  C   UNL     1      -2.680  12.557  22.349  0.00  0.00    +0.000 A 
ATOM     27  O   UNL     1      -3.051  12.949  21.078  0.00  0.00    +0.000 OA
BRANCH  23  28
ATOM     28  C   UNL     1      -5.238  13.104  19.936  0.00  0.00    +0.000 C 
BRANCH  28  29
ATOM     29  N   UNL     1      -4.676  12.481  18.711  0.00  0.00    +0.000 NA
ATOM     30  H   UNL     1      -4.218  13.184  18.130  0.00  0.00    +0.000 HD
BRANCH  29  31
ATOM     31  S   UNL     1      -5.860  11.738  17.805  0.00  0.00    +0.000 S 
ATOM     32  O   UNL     1      -6.752  12.749  17.309  0.00  0.00    +0.000 OA
ATOM     33  O   UNL     1      -6.302  10.551  18.486  0.00  0.00    +0.000 OA
BRANCH  31  34
ATOM     34  N   UNL     1      -4.891  11.248  16.552  0.00  0.00    +0.000 NA
ATOM     35  H   UNL     1      -3.983  10.965  16.924  0.00  0.00    +0.000 HD
ATOM     36  H   UNL     1      -4.780  12.018  15.890  0.00  0.00    +0.000 HD
ENDBRANCH  31  34
ENDBRANCH  29  31
ENDBRANCH  28  29
ENDBRANCH  23  28
ENDBRANCH  21  26
ENDBRANCH   1  21
TORSDOF 7
ENDMDL
MODEL 7
REMARK VINA RESULT:      -9.0      4.630     11.776
REMARK  Name = 
REMARK  7 active torsions:
REMARK  status: ('A' for Active; 'I' for Inactive)
REMARK    1  A    between atoms: N_1  and  S_2
REMARK    2  A    between atoms: S_2  and  N_5
REMARK    3  A    between atoms: N_5  and  C_6
REMARK    4  A    between atoms: C_6  and  C_7
REMARK    5  A    between atoms: C_10  and  C_11
REMARK    6  A    between atoms: C_11  and  C_13
REMARK    7  A    between atoms: C_18  and  C_19
REMARK                            x       y       z     vdW  Elec       q    Type
REMARK                         _______ _______ _______ _____ _____    ______ ____
ROOT
ATOM      1  C   UNL     1       0.386  11.487  20.920  0.00  0.00    +0.000 A 
ATOM      2  N   UNL     1       0.793  11.488  19.667  0.00  0.00    +0.000 NA
ATOM      3  C   UNL     1       1.213  10.227  19.307  0.00  0.00    +0.000 A 
ATOM      4  C   UNL     1       1.643   9.853  18.027  0.00  0.00    +0.000 A 
ATOM      5  C   UNL     1       2.049   8.536  17.788  0.00  0.00    +0.000 A 
ATOM      6  C   UNL     1       2.033   7.555  18.793  0.00  0.00    +0.000 A 
ATOM      7  C   UNL     1       1.582   7.934  20.080  0.00  0.00    +0.000 A 
ATOM      8  C   UNL     1       1.188   9.269  20.320  0.00  0.00    +0.000 A 
ATOM      9  S   UNL     1       0.623  10.020  21.773  0.00  0.00    +0.000 S 
ENDROOT
BRANCH   6  10
ATOM     10  C   UNL     1       2.516   6.178  18.507  0.00  0.00    +0.000 A 
ATOM     11  C   UNL     1       3.889   5.915  18.232  0.00  0.00    +0.000 A 
ATOM     12  C   UNL     1       4.390   4.617  18.033  0.00  0.00    +0.000 A 
ATOM     13  C   UNL     1       3.501   3.566  18.091  0.00  0.00    +0.000 A 
ATOM     14  C   UNL     1       2.153   3.811  18.337  0.00  0.00    +0.000 A 
ATOM     15  C   UNL     1       1.640   5.079  18.548  0.00  0.00    +0.000 A 
ATOM     16  C   UNL     1       1.455   2.520  18.355  0.00  0.00    +0.000 C 
ATOM     17  O   UNL     1       0.268   2.350  18.546  0.00  0.00    +0.000 OA
ATOM     18  N   UNL     1       2.411   1.556  18.119  0.00  0.00    +0.000 N 
ATOM     19  C   UNL     1       3.734   2.101  17.934  0.00  0.00    +0.000 C 
ATOM     20  H   UNL     1       2.169   0.575  18.096  0.00  0.00    +0.000 HD
ENDBRANCH   6  10
BRANCH   1  21
ATOM     21  C   UNL     1      -0.228  12.652  21.546  0.00  0.00    +0.000 C 
ATOM     22  O   UNL     1       0.368  13.463  22.252  0.00  0.00    +0.000 OA
BRANCH  21  26
ATOM     23  C   UNL     1      -3.729  13.167  21.423  0.00  0.00    +0.000 A 
ATOM     24  N   UNL     1      -3.587  12.482  20.310  0.00  0.00    +0.000 NA
ATOM     25  N   UNL     1      -2.251  12.193  20.194  0.00  0.00    +0.000 NA
ATOM     26  C   UNL     1      -1.648  12.728  21.241  0.00  0.00    +0.000 A 
ATOM     27  O   UNL     1      -2.537  13.342  22.102  0.00  0.00    +0.000 OA
BRANCH  23  28
ATOM     28  C   UNL     1      -4.985  13.679  22.034  0.00  0.00    +0.000 C 
BRANCH  28  29
ATOM     29  N   UNL     1      -5.918  12.568  22.345  0.00  0.00    +0.000 NA
ATOM     30  H   UNL     1      -6.741  12.613  21.742  0.00  0.00    +0.000 HD
BRANCH  29  31
ATOM     31  S   UNL     1      -6.423  12.619  23.931  0.00  0.00    +0.000 S 
ATOM     32  O   UNL     1      -5.434  11.966  24.743  0.00  0.00    +0.000 OA
ATOM     33  O   UNL     1      -7.827  12.318  23.991  0.00  0.00    +0.000 OA
BRANCH  31  34
ATOM     34  N   UNL     1      -6.267  14.256  24.149  0.00  0.00    +0.000 NA
ATOM     35  H   UNL     1      -6.961  14.737  23.575  0.00  0.00    +0.000 HD
ATOM     36  H   UNL     1      -5.323  14.544  23.883  0.00  0.00    +0.000 HD
ENDBRANCH  31  34
ENDBRANCH  29  31
ENDBRANCH  28  29
ENDBRANCH  23  28
ENDBRANCH  21  26
ENDBRANCH   1  21
TORSDOF 7
ENDMDL
MODEL 8
REMARK VINA RESULT:      -8.9      3.631     10.172
REMARK  Name = 
REMARK  7 active torsions:
REMARK  status: ('A' for Active; 'I' for Inactive)
REMARK    1  A    between atoms: N_1  and  S_2
REMARK    2  A    between atoms: S_2  and  N_5
REMARK    3  A    between atoms: N_5  and  C_6
REMARK    4  A    between atoms: C_6  and  C_7
REMARK    5  A    between atoms: C_10  and  C_11
REMARK    6  A    between atoms: C_11  and  C_13
REMARK    7  A    between atoms: C_18  and  C_19
REMARK                            x       y       z     vdW  Elec       q    Type
REMARK                         _______ _______ _______ _____ _____    ______ ____
ROOT
ATOM      1  C   UNL     1       0.258  10.788  20.566  0.00  0.00    +0.000 A 
ATOM      2  N   UNL     1       0.289   9.647  21.222  0.00  0.00    +0.000 NA
ATOM      3  C   UNL     1       1.051   8.728  20.535  0.00  0.00    +0.000 A 
ATOM      4  C   UNL     1       1.354   7.434  20.981  0.00  0.00    +0.000 A 
ATOM      5  C   UNL     1       2.138   6.592  20.186  0.00  0.00    +0.000 A 
ATOM      6  C   UNL     1       2.651   7.001  18.944  0.00  0.00    +0.000 A 
ATOM      7  C   UNL     1       2.357   8.315  18.507  0.00  0.00    +0.000 A 
ATOM      8  C   UNL     1       1.552   9.155  19.306  0.00  0.00    +0.000 A 
ATOM      9  S   UNL     1       1.011  10.775  19.026  0.00  0.00    +0.000 S 
ENDROOT
BRANCH   6  10
ATOM     10  C   UNL     1       3.444   6.058  18.111  0.00  0.00    +0.000 A 
ATOM     11  C   UNL     1       2.906   4.806  17.692  0.00  0.00    +0.000 A 
ATOM     12  C   UNL     1       3.600   3.927  16.843  0.00  0.00    +0.000 A 
ATOM     13  C   UNL     1       4.859   4.295  16.421  0.00  0.00    +0.000 A 
ATOM     14  C   UNL     1       5.404   5.505  16.840  0.00  0.00    +0.000 A 
ATOM     15  C   UNL     1       4.735   6.392  17.667  0.00  0.00    +0.000 A 
ATOM     16  C   UNL     1       6.733   5.637  16.232  0.00  0.00    +0.000 C 
ATOM     17  O   UNL     1       7.497   6.570  16.375  0.00  0.00    +0.000 OA
ATOM     18  N   UNL     1       6.930   4.503  15.474  0.00  0.00    +0.000 N 
ATOM     19  C   UNL     1       5.816   3.587  15.522  0.00  0.00    +0.000 C 
ATOM     20  H   UNL     1       7.780   4.370  14.944  0.00  0.00    +0.000 HD
ENDBRANCH   6  10
BRANCH   1  21
ATOM     21  C   UNL     1      -0.371  11.988  21.105  0.00  0.00    +0.000 C 
ATOM     22  O   UNL     1       0.176  12.781  21.870  0.00  0.00    +0.000 OA
BRANCH  21  26
ATOM     23  C   UNL     1      -3.449  12.050  19.358  0.00  0.00    +0.000 A 
ATOM     24  N   UNL     1      -3.842  12.615  20.478  0.00  0.00    +0.000 NA
ATOM     25  N   UNL     1      -2.744  12.669  21.298  0.00  0.00    +0.000 NA
ATOM     26  C   UNL     1      -1.739  12.124  20.633  0.00  0.00    +0.000 A 
ATOM     27  O   UNL     1      -2.104  11.734  19.359  0.00  0.00    +0.000 OA
BRANCH  23  28
ATOM     28  C   UNL     1      -4.244  11.803  18.125  0.00  0.00    +0.000 C 
BRANCH  28  29
ATOM     29  N   UNL     1      -3.876  10.506  17.504  0.00  0.00    +0.000 NA
ATOM     30  H   UNL     1      -3.231   9.992  18.105  0.00  0.00    +0.000 HD
BRANCH  29  31
ATOM     31  S   UNL     1      -3.153  10.724  16.019  0.00  0.00    +0.000 S 
ATOM     32  O   UNL     1      -4.017  11.538  15.210  0.00  0.00    +0.000 OA
ATOM     33  O   UNL     1      -2.593   9.475  15.579  0.00  0.00    +0.000 OA
BRANCH  31  34
ATOM     34  N   UNL     1      -1.891  11.668  16.534  0.00  0.00    +0.000 NA
ATOM     35  H   UNL     1      -2.243  12.599  16.763  0.00  0.00    +0.000 HD
ATOM     36  H   UNL     1      -1.188  11.725  15.795  0.00  0.00    +0.000 HD
ENDBRANCH  31  34
ENDBRANCH  29  31
ENDBRANCH  28  29
ENDBRANCH  23  28
ENDBRANCH  21  26
ENDBRANCH   1  21
TORSDOF 7
ENDMDL
MODEL 9
REMARK VINA RESULT:      -8.9      3.563     10.605
REMARK  Name = 
REMARK  7 active torsions:
REMARK  status: ('A' for Active; 'I' for Inactive)
REMARK    1  A    between atoms: N_1  and  S_2
REMARK    2  A    between atoms: S_2  and  N_5
REMARK    3  A    between atoms: N_5  and  C_6
REMARK    4  A    between atoms: C_6  and  C_7
REMARK    5  A    between atoms: C_10  and  C_11
REMARK    6  A    between atoms: C_11  and  C_13
REMARK    7  A    between atoms: C_18  and  C_19
REMARK                            x       y       z     vdW  Elec       q    Type
REMARK                         _______ _______ _______ _____ _____    ______ ____
ROOT
ATOM      1  C   UNL     1      -0.215  11.439  21.652  0.00  0.00    +0.000 A 
ATOM      2  N   UNL     1       0.215  11.753  20.447  0.00  0.00    +0.000 NA
ATOM      3  C   UNL     1       0.812  10.660  19.859  0.00  0.00    +0.000 A 
ATOM      4  C   UNL     1       1.316  10.621  18.552  0.00  0.00    +0.000 A 
ATOM      5  C   UNL     1       1.905   9.446  18.071  0.00  0.00    +0.000 A 
ATOM      6  C   UNL     1       2.003   8.284  18.854  0.00  0.00    +0.000 A 
ATOM      7  C   UNL     1       1.476   8.325  20.167  0.00  0.00    +0.000 A 
ATOM      8  C   UNL     1       0.897   9.517  20.653  0.00  0.00    +0.000 A 
ATOM      9  S   UNL     1       0.204   9.870  22.200  0.00  0.00    +0.000 S 
ENDROOT
BRANCH   6  10
ATOM     10  C   UNL     1       2.676   7.071  18.317  0.00  0.00    +0.000 A 
ATOM     11  C   UNL     1       2.053   5.791  18.376  0.00  0.00    +0.000 A 
ATOM     12  C   UNL     1       2.628   4.639  17.811  0.00  0.00    +0.000 A 
ATOM     13  C   UNL     1       3.854   4.765  17.194  0.00  0.00    +0.000 A 
ATOM     14  C   UNL     1       4.482   6.006  17.149  0.00  0.00    +0.000 A 
ATOM     15  C   UNL     1       3.930   7.156  17.688  0.00  0.00    +0.000 A 
ATOM     16  C   UNL     1       5.751   5.845  16.429  0.00  0.00    +0.000 C 
ATOM     17  O   UNL     1       6.559   6.721  16.196  0.00  0.00    +0.000 OA
ATOM     18  N   UNL     1       5.830   4.516  16.072  0.00  0.00    +0.000 N 
ATOM     19  C   UNL     1       4.693   3.742  16.506  0.00  0.00    +0.000 C 
ATOM     20  H   UNL     1       6.620   4.161  15.550  0.00  0.00    +0.000 HD
ENDBRANCH   6  10
BRANCH   1  21
ATOM     21  C   UNL     1      -0.996  12.357  22.471  0.00  0.00    +0.000 C 
ATOM     22  O   UNL     1      -0.540  13.040  23.386  0.00  0.00    +0.000 OA
BRANCH  21  26
ATOM     23  C   UNL     1      -4.147  12.384  20.858  0.00  0.00    +0.000 A 
ATOM     24  N   UNL     1      -4.560  12.395  22.106  0.00  0.00    +0.000 NA
ATOM     25  N   UNL     1      -3.437  12.382  22.892  0.00  0.00    +0.000 NA
ATOM     26  C   UNL     1      -2.396  12.355  22.077  0.00  0.00    +0.000 A 
ATOM     27  O   UNL     1      -2.770  12.393  20.748  0.00  0.00    +0.000 OA
BRANCH  23  28
ATOM     28  C   UNL     1      -4.967  12.441  19.618  0.00  0.00    +0.000 C 
BRANCH  28  29
ATOM     29  N   UNL     1      -4.109  12.414  18.408  0.00  0.00    +0.000 NA
ATOM     30  H   UNL     1      -4.206  13.283  17.881  0.00  0.00    +0.000 HD
BRANCH  29  31
ATOM     31  S   UNL     1      -4.504  11.143  17.406  0.00  0.00    +0.000 S 
ATOM     32  O   UNL     1      -4.007   9.931  17.996  0.00  0.00    +0.000 OA
ATOM     33  O   UNL     1      -4.259  11.523  16.042  0.00  0.00    +0.000 OA
BRANCH  31  34
ATOM     34  N   UNL     1      -6.145  11.193  17.639  0.00  0.00    +0.000 NA
ATOM     35  H   UNL     1      -6.338  11.527  18.584  0.00  0.00    +0.000 HD
ATOM     36  H   UNL     1      -6.534  10.257  17.506  0.00  0.00    +0.000 HD
ENDBRANCH  31  34
ENDBRANCH  29  31
ENDBRANCH  28  29
ENDBRANCH  23  28
ENDBRANCH  21  26
ENDBRANCH   1  21
TORSDOF 7
ENDMDL
