MODEL 1
REMARK VINA RESULT:      -7.9      0.000      0.000
REMARK  Name = 
REMARK  12 active torsions:
REMARK  status: ('A' for Active; 'I' for Inactive)
REMARK    1  A    between atoms: C_1  and  C_2
REMARK    2  A    between atoms: C_2  and  N_3
REMARK    3  A    between atoms: N_3  and  C_4
REMARK    4  A    between atoms: N_3  and  C_6
REMARK    5  A    between atoms: C_4  and  C_5
REMARK    6  A    between atoms: C_6  and  C_7
REMARK    7  A    between atoms: C_8  and  C_9
REMARK    8  A    between atoms: C_15  and  S_16
REMARK    9  A    between atoms: S_16  and  N_19
REMARK   10  A    between atoms: N_19  and  C_20
REMARK   11  A    between atoms: C_25  and  C_26
REMARK   12  A    between atoms: C_26  and  O_28
REMARK                            x       y       z     vdW  Elec       q    Type
REMARK                         _______ _______ _______ _____ _____    ______ ____
ROOT
ATOM      1  N   UNL     1       1.735   8.277  19.804  0.00  0.00    +0.000 N 
ATOM      2  H   UNL     1       2.355   8.619  20.556  0.00  0.00    +0.000 HD
ENDROOT
BRANCH   1   3
ATOM      3  C   UNL     1       2.454   7.447  18.871  0.00  0.00    +0.000 A 
ATOM      4  C   UNL     1       3.078   8.102  17.802  0.00  0.00    +0.000 A 
ATOM      5  C   UNL     1       3.892   7.393  16.919  0.00  0.00    +0.000 A 
ATOM      6  C   UNL     1       4.090   6.023  17.113  0.00  0.00    +0.000 A 
ATOM      7  C   UNL     1       3.462   5.347  18.163  0.00  0.00    +0.000 A 
ATOM      8  C   UNL     1       2.629   6.060  19.047  0.00  0.00    +0.000 A 
ATOM      9  O   UNL     1       3.611   4.008  18.387  0.00  0.00    +0.000 OA
ATOM     10  C   UNL     1       4.519   3.216  17.608  0.00  0.00    +0.000 C 
ATOM     11  C   UNL     1       5.139   3.933  16.477  0.00  0.00    +0.000 A 
ATOM     12  C   UNL     1       5.998   3.474  15.498  0.00  0.00    +0.000 A 
ATOM     13  C   UNL     1       6.322   4.573  14.676  0.00  0.00    +0.000 A 
ATOM     14  C   UNL     1       5.647   5.668  15.175  0.00  0.00    +0.000 A 
ATOM     15  N   UNL     1       4.921   5.268  16.272  0.00  0.00    +0.000 N 
BRANCH   8  16
ATOM     16  C   UNL     1       1.872   5.383  20.131  0.00  0.00    +0.000 C 
ATOM     17  O   UNL     1       0.934   4.638  19.883  0.00  0.00    +0.000 OA
BRANCH  16  18
ATOM     18  O   UNL     1       2.262   5.684  21.387  0.00  0.00    +0.000 OA
ATOM     19  H   UNL     1       1.566   5.528  22.056  0.00  0.00    +0.000 HD
ENDBRANCH  16  18
ENDBRANCH   8  16
ENDBRANCH   1   3
BRANCH   1  20
ATOM     20  S   UNL     1       1.009   9.688  19.155  0.00  0.00    +0.000 S 
ATOM     21  O   UNL     1       0.137   9.308  18.067  0.00  0.00    +0.000 OA
ATOM     22  O   UNL     1       2.084  10.630  18.934  0.00  0.00    +0.000 OA
BRANCH  20  29
ATOM     23  C   UNL     1      -0.668  11.543  20.446  0.00  0.00    +0.000 A 
ATOM     24  C   UNL     1      -1.392  11.956  21.575  0.00  0.00    +0.000 A 
ATOM     25  C   UNL     1      -1.388  11.195  22.738  0.00  0.00    +0.000 A 
ATOM     26  F   UNL     1      -2.059  11.631  23.812  0.00  0.00    +0.000 F 
ATOM     27  C   UNL     1      -0.690  10.000  22.807  0.00  0.00    +0.000 A 
ATOM     28  C   UNL     1       0.012   9.554  21.688  0.00  0.00    +0.000 A 
ATOM     29  C   UNL     1       0.021  10.318  20.504  0.00  0.00    +0.000 A 
BRANCH  23  31
ATOM     30  C   UNL     1      -1.559  12.416  18.293  0.00  0.00    +0.000 C 
ATOM     31  C   UNL     1      -0.679  12.473  19.305  0.00  0.00    +0.000 C 
BRANCH  30  32
ATOM     32  C   UNL     1      -2.695  11.440  18.143  0.00  0.00    +0.000 C 
BRANCH  32  33
ATOM     33  N   UNL     1      -3.368  11.530  16.832  0.00  0.00    +0.000 NA
BRANCH  33  35
ATOM     34  C   UNL     1      -3.545  10.088  14.756  0.00  0.00    +0.000 C 
ATOM     35  C   UNL     1      -2.657  10.753  15.801  0.00  0.00    +0.000 C 
ENDBRANCH  33  35
BRANCH  33  36
ATOM     36  C   UNL     1      -4.793  11.174  16.963  0.00  0.00    +0.000 C 
ATOM     37  C   UNL     1      -5.755  12.334  17.227  0.00  0.00    +0.000 C 
ENDBRANCH  33  36
ENDBRANCH  32  33
ENDBRANCH  30  32
ENDBRANCH  23  31
ENDBRANCH  20  29
ENDBRANCH   1  20
TORSDOF 10
ENDMDL
MODEL 2
REMARK VINA RESULT:      -7.7      0.467      1.315
REMARK  Name = 
REMARK  12 active torsions:
REMARK  status: ('A' for Active; 'I' for Inactive)
REMARK    1  A    between atoms: C_1  and  C_2
REMARK    2  A    between atoms: C_2  and  N_3
REMARK    3  A    between atoms: N_3  and  C_4
REMARK    4  A    between atoms: N_3  and  C_6
REMARK    5  A    between atoms: C_4  and  C_5
REMARK    6  A    between atoms: C_6  and  C_7
REMARK    7  A    between atoms: C_8  and  C_9
REMARK    8  A    between atoms: C_15  and  S_16
REMARK    9  A    between atoms: S_16  and  N_19
REMARK   10  A    between atoms: N_19  and  C_20
REMARK   11  A    between atoms: C_25  and  C_26
REMARK   12  A    between atoms: C_26  and  O_28
REMARK                            x       y       z     vdW  Elec       q    Type
REMARK                         _______ _______ _______ _____ _____    ______ ____
ROOT
ATOM      1  N   UNL     1       1.746   8.347  19.722  0.00  0.00    +0.000 N 
ATOM      2  H   UNL     1       2.371   8.716  20.458  0.00  0.00    +0.000 HD
ENDROOT
BRANCH   1   3
ATOM      3  C   UNL     1       2.464   7.500  18.804  0.00  0.00    +0.000 A 
ATOM      4  C   UNL     1       3.128   8.141  17.751  0.00  0.00    +0.000 A 
ATOM      5  C   UNL     1       3.943   7.414  16.884  0.00  0.00    +0.000 A 
ATOM      6  C   UNL     1       4.102   6.038  17.079  0.00  0.00    +0.000 A 
ATOM      7  C   UNL     1       3.433   5.376  18.113  0.00  0.00    +0.000 A 
ATOM      8  C   UNL     1       2.599   6.109  18.980  0.00  0.00    +0.000 A 
ATOM      9  O   UNL     1       3.543   4.034  18.337  0.00  0.00    +0.000 OA
ATOM     10  C   UNL     1       4.448   3.220  17.577  0.00  0.00    +0.000 C 
ATOM     11  C   UNL     1       5.110   3.923  16.461  0.00  0.00    +0.000 A 
ATOM     12  C   UNL     1       5.979   3.444  15.501  0.00  0.00    +0.000 A 
ATOM     13  C   UNL     1       6.350   4.536  14.689  0.00  0.00    +0.000 A 
ATOM     14  C   UNL     1       5.692   5.647  15.175  0.00  0.00    +0.000 A 
ATOM     15  N   UNL     1       4.932   5.263  16.255  0.00  0.00    +0.000 N 
BRANCH   8  16
ATOM     16  C   UNL     1       1.802   5.449  20.045  0.00  0.00    +0.000 C 
ATOM     17  O   UNL     1       1.799   5.872  21.193  0.00  0.00    +0.000 OA
BRANCH  16  18
ATOM     18  O   UNL     1       1.130   4.341  19.667  0.00  0.00    +0.000 OA
ATOM     19  H   UNL     1       1.021   3.689  20.388  0.00  0.00    +0.000 HD
ENDBRANCH  16  18
ENDBRANCH   8  16
ENDBRANCH   1   3
BRANCH   1  20
ATOM     20  S   UNL     1       0.997   9.731  19.044  0.00  0.00    +0.000 S 
ATOM     21  O   UNL     1       0.139   9.315  17.959  0.00  0.00    +0.000 OA
ATOM     22  O   UNL     1       2.054  10.691  18.813  0.00  0.00    +0.000 OA
BRANCH  20  29
ATOM     23  C   UNL     1      -0.924  11.424  20.214  0.00  0.00    +0.000 A 
ATOM     24  C   UNL     1      -1.647  11.862  21.335  0.00  0.00    +0.000 A 
ATOM     25  C   UNL     1      -1.428  11.294  22.585  0.00  0.00    +0.000 A 
ATOM     26  F   UNL     1      -2.105  11.756  23.644  0.00  0.00    +0.000 F 
ATOM     27  C   UNL     1      -0.511  10.268  22.753  0.00  0.00    +0.000 A 
ATOM     28  C   UNL     1       0.195   9.796  21.648  0.00  0.00    +0.000 A 
ATOM     29  C   UNL     1      -0.012  10.366  20.376  0.00  0.00    +0.000 A 
BRANCH  23  31
ATOM     30  C   UNL     1      -2.090  11.792  18.047  0.00  0.00    +0.000 C 
ATOM     31  C   UNL     1      -1.180  12.157  18.964  0.00  0.00    +0.000 C 
BRANCH  30  32
ATOM     32  C   UNL     1      -3.025  10.615  18.127  0.00  0.00    +0.000 C 
BRANCH  32  33
ATOM     33  N   UNL     1      -4.224  10.768  17.279  0.00  0.00    +0.000 NA
BRANCH  33  35
ATOM     34  C   UNL     1      -5.978  12.581  17.047  0.00  0.00    +0.000 C 
ATOM     35  C   UNL     1      -5.260  11.577  17.942  0.00  0.00    +0.000 C 
ENDBRANCH  33  35
BRANCH  33  36
ATOM     36  C   UNL     1      -3.846  11.268  15.944  0.00  0.00    +0.000 C 
ATOM     37  C   UNL     1      -3.518  10.205  14.894  0.00  0.00    +0.000 C 
ENDBRANCH  33  36
ENDBRANCH  32  33
ENDBRANCH  30  32
ENDBRANCH  23  31
ENDBRANCH  20  29
ENDBRANCH   1  20
TORSDOF 10
ENDMDL
MODEL 3
REMARK VINA RESULT:      -7.7      2.123      3.463
REMARK  Name = 
REMARK  12 active torsions:
REMARK  status: ('A' for Active; 'I' for Inactive)
REMARK    1  A    between atoms: C_1  and  C_2
REMARK    2  A    between atoms: C_2  and  N_3
REMARK    3  A    between atoms: N_3  and  C_4
REMARK    4  A    between atoms: N_3  and  C_6
REMARK    5  A    between atoms: C_4  and  C_5
REMARK    6  A    between atoms: C_6  and  C_7
REMARK    7  A    between atoms: C_8  and  C_9
REMARK    8  A    between atoms: C_15  and  S_16
REMARK    9  A    between atoms: S_16  and  N_19
REMARK   10  A    between atoms: N_19  and  C_20
REMARK   11  A    between atoms: C_25  and  C_26
REMARK   12  A    between atoms: C_26  and  O_28
REMARK                            x       y       z     vdW  Elec       q    Type
REMARK                         _______ _______ _______ _____ _____    ______ ____
ROOT
ATOM      1  N   UNL     1      -0.142   9.568  20.595  0.00  0.00    +0.000 N 
ATOM      2  H   UNL     1      -0.970   9.075  20.968  0.00  0.00    +0.000 HD
ENDROOT
BRANCH   1   3
ATOM      3  C   UNL     1       0.896   8.639  20.224  0.00  0.00    +0.000 A 
ATOM      4  C   UNL     1       1.086   7.542  21.072  0.00  0.00    +0.000 A 
ATOM      5  C   UNL     1       1.985   6.533  20.730  0.00  0.00    +0.000 A 
ATOM      6  C   UNL     1       2.692   6.619  19.526  0.00  0.00    +0.000 A 
ATOM      7  C   UNL     1       2.530   7.716  18.674  0.00  0.00    +0.000 A 
ATOM      8  C   UNL     1       1.632   8.741  19.027  0.00  0.00    +0.000 A 
ATOM      9  O   UNL     1       3.207   7.855  17.496  0.00  0.00    +0.000 OA
ATOM     10  C   UNL     1       4.063   6.816  16.998  0.00  0.00    +0.000 C 
ATOM     11  C   UNL     1       4.258   5.687  17.929  0.00  0.00    +0.000 A 
ATOM     12  C   UNL     1       5.053   4.565  17.808  0.00  0.00    +0.000 A 
ATOM     13  C   UNL     1       4.848   3.781  18.963  0.00  0.00    +0.000 A 
ATOM     14  C   UNL     1       3.939   4.451  19.755  0.00  0.00    +0.000 A 
ATOM     15  N   UNL     1       3.587   5.619  19.119  0.00  0.00    +0.000 N 
BRANCH   8  16
ATOM     16  C   UNL     1       1.478   9.967  18.204  0.00  0.00    +0.000 C 
ATOM     17  O   UNL     1       2.338  10.836  18.188  0.00  0.00    +0.000 OA
BRANCH  16  18
ATOM     18  O   UNL     1       0.317  10.069  17.524  0.00  0.00    +0.000 OA
ATOM     19  H   UNL     1       0.378   9.747  16.602  0.00  0.00    +0.000 HD
ENDBRANCH  16  18
ENDBRANCH   8  16
ENDBRANCH   1   3
BRANCH   1  20
ATOM     20  S   UNL     1       0.269  10.715  21.801  0.00  0.00    +0.000 S 
ATOM     21  O   UNL     1       1.358  11.532  21.318  0.00  0.00    +0.000 OA
ATOM     22  O   UNL     1       0.402   9.975  23.035  0.00  0.00    +0.000 OA
BRANCH  20  29
ATOM     23  C   UNL     1      -1.619  12.619  20.944  0.00  0.00    +0.000 A 
ATOM     24  C   UNL     1      -2.774  13.385  21.174  0.00  0.00    +0.000 A 
ATOM     25  C   UNL     1      -3.456  13.295  22.381  0.00  0.00    +0.000 A 
ATOM     26  F   UNL     1      -4.533  14.063  22.587  0.00  0.00    +0.000 F 
ATOM     27  C   UNL     1      -3.030  12.432  23.379  0.00  0.00    +0.000 A 
ATOM     28  C   UNL     1      -1.905  11.639  23.162  0.00  0.00    +0.000 A 
ATOM     29  C   UNL     1      -1.199  11.725  21.945  0.00  0.00    +0.000 A 
BRANCH  23  31
ATOM     30  C   UNL     1      -1.434  12.524  18.465  0.00  0.00    +0.000 C 
ATOM     31  C   UNL     1      -0.936  12.864  19.664  0.00  0.00    +0.000 C 
BRANCH  30  32
ATOM     32  C   UNL     1      -2.765  11.875  18.196  0.00  0.00    +0.000 C 
BRANCH  32  33
ATOM     33  N   UNL     1      -2.663  10.673  17.346  0.00  0.00    +0.000 NA
BRANCH  33  35
ATOM     34  C   UNL     1      -5.021  10.306  18.197  0.00  0.00    +0.000 C 
ATOM     35  C   UNL     1      -3.736   9.707  17.636  0.00  0.00    +0.000 C 
ENDBRANCH  33  35
BRANCH  33  36
ATOM     36  C   UNL     1      -2.581  11.057  15.924  0.00  0.00    +0.000 C 
ATOM     37  C   UNL     1      -3.282  10.127  14.933  0.00  0.00    +0.000 C 
ENDBRANCH  33  36
ENDBRANCH  32  33
ENDBRANCH  30  32
ENDBRANCH  23  31
ENDBRANCH  20  29
ENDBRANCH   1  20
TORSDOF 10
ENDMDL
MODEL 4
REMARK VINA RESULT:      -7.6      3.105      9.347
REMARK  Name = 
REMARK  12 active torsions:
REMARK  status: ('A' for Active; 'I' for Inactive)
REMARK    1  A    between atoms: C_1  and  C_2
REMARK    2  A    between atoms: C_2  and  N_3
REMARK    3  A    between atoms: N_3  and  C_4
REMARK    4  A    between atoms: N_3  and  C_6
REMARK    5  A    between atoms: C_4  and  C_5
REMARK    6  A    between atoms: C_6  and  C_7
REMARK    7  A    between atoms: C_8  and  C_9
REMARK    8  A    between atoms: C_15  and  S_16
REMARK    9  A    between atoms: S_16  and  N_19
REMARK   10  A    between atoms: N_19  and  C_20
REMARK   11  A    between atoms: C_25  and  C_26
REMARK   12  A    between atoms: C_26  and  O_28
REMARK                            x       y       z     vdW  Elec       q    Type
REMARK                         _______ _______ _______ _____ _____    ______ ____
ROOT
ATOM      1  N   UNL     1       0.869  10.606  20.454  0.00  0.00    +0.000 N 
ATOM      2  H   UNL     1       1.213  11.170  21.248  0.00  0.00    +0.000 HD
ENDROOT
BRANCH   1   3
ATOM      3  C   UNL     1      -0.412  11.078  19.994  0.00  0.00    +0.000 A 
ATOM      4  C   UNL     1      -0.789  10.703  18.699  0.00  0.00    +0.000 A 
ATOM      5  C   UNL     1      -2.059  11.016  18.216  0.00  0.00    +0.000 A 
ATOM      6  C   UNL     1      -2.960  11.700  19.038  0.00  0.00    +0.000 A 
ATOM      7  C   UNL     1      -2.597  12.100  20.327  0.00  0.00    +0.000 A 
ATOM      8  C   UNL     1      -1.309  11.796  20.810  0.00  0.00    +0.000 A 
ATOM      9  O   UNL     1      -3.434  12.782  21.163  0.00  0.00    +0.000 OA
ATOM     10  C   UNL     1      -4.798  13.045  20.805  0.00  0.00    +0.000 C 
ATOM     11  C   UNL     1      -5.152  12.659  19.425  0.00  0.00    +0.000 A 
ATOM     12  C   UNL     1      -6.336  12.821  18.734  0.00  0.00    +0.000 A 
ATOM     13  C   UNL     1      -6.159  12.244  17.459  0.00  0.00    +0.000 A 
ATOM     14  C   UNL     1      -4.871  11.752  17.409  0.00  0.00    +0.000 A 
ATOM     15  N   UNL     1      -4.260  12.015  18.613  0.00  0.00    +0.000 N 
BRANCH   8  16
ATOM     16  C   UNL     1      -0.839  12.263  22.139  0.00  0.00    +0.000 C 
ATOM     17  O   UNL     1      -0.572  11.474  23.034  0.00  0.00    +0.000 OA
BRANCH  16  18
ATOM     18  O   UNL     1      -0.776  13.602  22.295  0.00  0.00    +0.000 OA
ATOM     19  H   UNL     1      -0.077  13.887  22.917  0.00  0.00    +0.000 HD
ENDBRANCH  16  18
ENDBRANCH   8  16
ENDBRANCH   1   3
BRANCH   1  20
ATOM     20  S   UNL     1       0.920   8.985  21.011  0.00  0.00    +0.000 S 
ATOM     21  O   UNL     1      -0.428   8.470  21.078  0.00  0.00    +0.000 OA
ATOM     22  O   UNL     1       1.760   8.989  22.188  0.00  0.00    +0.000 OA
BRANCH  20  29
ATOM     23  C   UNL     1       2.140   6.755  19.801  0.00  0.00    +0.000 A 
ATOM     24  C   UNL     1       2.870   6.184  18.746  0.00  0.00    +0.000 A 
ATOM     25  C   UNL     1       3.299   6.961  17.678  0.00  0.00    +0.000 A 
ATOM     26  F   UNL     1       4.023   6.397  16.703  0.00  0.00    +0.000 F 
ATOM     27  C   UNL     1       3.000   8.314  17.613  0.00  0.00    +0.000 A 
ATOM     28  C   UNL     1       2.250   8.897  18.633  0.00  0.00    +0.000 A 
ATOM     29  C   UNL     1       1.813   8.122  19.726  0.00  0.00    +0.000 A 
BRANCH  23  31
ATOM     30  C   UNL     1       2.290   4.601  21.036  0.00  0.00    +0.000 C 
ATOM     31  C   UNL     1       1.816   5.851  20.916  0.00  0.00    +0.000 C 
BRANCH  30  32
ATOM     32  C   UNL     1       3.245   3.908  20.102  0.00  0.00    +0.000 C 
BRANCH  32  33
ATOM     33  N   UNL     1       2.895   2.494  19.859  0.00  0.00    +0.000 NA
BRANCH  33  35
ATOM     34  C   UNL     1       0.637   2.398  18.713  0.00  0.00    +0.000 C 
ATOM     35  C   UNL     1       1.447   2.260  19.997  0.00  0.00    +0.000 C 
ENDBRANCH  33  35
BRANCH  33  36
ATOM     36  C   UNL     1       3.447   2.046  18.567  0.00  0.00    +0.000 C 
ATOM     37  C   UNL     1       4.106   3.123  17.705  0.00  0.00    +0.000 C 
ENDBRANCH  33  36
ENDBRANCH  32  33
ENDBRANCH  30  32
ENDBRANCH  23  31
ENDBRANCH  20  29
ENDBRANCH   1  20
TORSDOF 10
ENDMDL
MODEL 5
REMARK VINA RESULT:      -7.6      2.099      3.332
REMARK  Name = 
REMARK  12 active torsions:
REMARK  status: ('A' for Active; 'I' for Inactive)
REMARK    1  A    between atoms: C_1  and  C_2
REMARK    2  A    between atoms: C_2  and  N_3
REMARK    3  A    between atoms: N_3  and  C_4
REMARK    4  A    between atoms: N_3  and  C_6
REMARK    5  A    between atoms: C_4  and  C_5
REMARK    6  A    between atoms: C_6  and  C_7
REMARK    7  A    between atoms: C_8  and  C_9
REMARK    8  A    between atoms: C_15  and  S_16
REMARK    9  A    between atoms: S_16  and  N_19
REMARK   10  A    between atoms: N_19  and  C_20
REMARK   11  A    between atoms: C_25  and  C_26
REMARK   12  A    between atoms: C_26  and  O_28
REMARK                            x       y       z     vdW  Elec       q    Type
REMARK                         _______ _______ _______ _____ _____    ______ ____
ROOT
ATOM      1  N   UNL     1      -0.117   9.624  20.531  0.00  0.00    +0.000 N 
ATOM      2  H   UNL     1      -1.031   9.189  20.739  0.00  0.00    +0.000 HD
ENDROOT
BRANCH   1   3
ATOM      3  C   UNL     1       0.881   8.628  20.237  0.00  0.00    +0.000 A 
ATOM      4  C   UNL     1       0.898   7.496  21.061  0.00  0.00    +0.000 A 
ATOM      5  C   UNL     1       1.751   6.430  20.779  0.00  0.00    +0.000 A 
ATOM      6  C   UNL     1       2.585   6.494  19.658  0.00  0.00    +0.000 A 
ATOM      7  C   UNL     1       2.597   7.622  18.833  0.00  0.00    +0.000 A 
ATOM      8  C   UNL     1       1.745   8.704  19.126  0.00  0.00    +0.000 A 
ATOM      9  O   UNL     1       3.402   7.739  17.736  0.00  0.00    +0.000 OA
ATOM     10  C   UNL     1       4.226   6.651  17.293  0.00  0.00    +0.000 C 
ATOM     11  C   UNL     1       4.237   5.486  18.199  0.00  0.00    +0.000 A 
ATOM     12  C   UNL     1       4.954   4.308  18.122  0.00  0.00    +0.000 A 
ATOM     13  C   UNL     1       4.571   3.512  19.221  0.00  0.00    +0.000 A 
ATOM     14  C   UNL     1       3.635   4.229  19.938  0.00  0.00    +0.000 A 
ATOM     15  N   UNL     1       3.441   5.438  19.311  0.00  0.00    +0.000 N 
BRANCH   8  16
ATOM     16  C   UNL     1       1.771   9.960  18.334  0.00  0.00    +0.000 C 
ATOM     17  O   UNL     1       1.837  11.054  18.877  0.00  0.00    +0.000 OA
BRANCH  16  18
ATOM     18  O   UNL     1       1.671   9.807  16.997  0.00  0.00    +0.000 OA
ATOM     19  H   UNL     1       1.660  10.654  16.510  0.00  0.00    +0.000 HD
ENDBRANCH  16  18
ENDBRANCH   8  16
ENDBRANCH   1   3
BRANCH   1  20
ATOM     20  S   UNL     1       0.203  10.640  21.874  0.00  0.00    +0.000 S 
ATOM     21  O   UNL     1       1.313  11.507  21.552  0.00  0.00    +0.000 OA
ATOM     22  O   UNL     1       0.266   9.773  23.030  0.00  0.00    +0.000 OA
BRANCH  20  29
ATOM     23  C   UNL     1      -1.732  12.498  21.024  0.00  0.00    +0.000 A 
ATOM     24  C   UNL     1      -2.898  13.245  21.261  0.00  0.00    +0.000 A 
ATOM     25  C   UNL     1      -3.561  13.154  22.479  0.00  0.00    +0.000 A 
ATOM     26  F   UNL     1      -4.650  13.904  22.692  0.00  0.00    +0.000 F 
ATOM     27  C   UNL     1      -3.106  12.311  23.481  0.00  0.00    +0.000 A 
ATOM     28  C   UNL     1      -1.968  11.537  23.256  0.00  0.00    +0.000 A 
ATOM     29  C   UNL     1      -1.281  11.623  22.028  0.00  0.00    +0.000 A 
BRANCH  23  31
ATOM     30  C   UNL     1      -1.481  12.221  18.564  0.00  0.00    +0.000 C 
ATOM     31  C   UNL     1      -1.071  12.742  19.732  0.00  0.00    +0.000 C 
BRANCH  30  32
ATOM     32  C   UNL     1      -2.681  11.338  18.345  0.00  0.00    +0.000 C 
BRANCH  32  33
ATOM     33  N   UNL     1      -3.351  11.582  17.053  0.00  0.00    +0.000 NA
BRANCH  33  35
ATOM     34  C   UNL     1      -3.436  10.027  15.053  0.00  0.00    +0.000 C 
ATOM     35  C   UNL     1      -2.618  10.965  15.933  0.00  0.00    +0.000 C 
ENDBRANCH  33  35
BRANCH  33  36
ATOM     36  C   UNL     1      -4.768  11.177  17.127  0.00  0.00    +0.000 C 
ATOM     37  C   UNL     1      -5.415  11.242  18.511  0.00  0.00    +0.000 C 
ENDBRANCH  33  36
ENDBRANCH  32  33
ENDBRANCH  30  32
ENDBRANCH  23  31
ENDBRANCH  20  29
ENDBRANCH   1  20
TORSDOF 10
ENDMDL
MODEL 6
REMARK VINA RESULT:      -7.5      3.443      9.974
REMARK  Name = 
REMARK  12 active torsions:
REMARK  status: ('A' for Active; 'I' for Inactive)
REMARK    1  A    between atoms: C_1  and  C_2
REMARK    2  A    between atoms: C_2  and  N_3
REMARK    3  A    between atoms: N_3  and  C_4
REMARK    4  A    between atoms: N_3  and  C_6
REMARK    5  A    between atoms: C_4  and  C_5
REMARK    6  A    between atoms: C_6  and  C_7
REMARK    7  A    between atoms: C_8  and  C_9
REMARK    8  A    between atoms: C_15  and  S_16
REMARK    9  A    between atoms: S_16  and  N_19
REMARK   10  A    between atoms: N_19  and  C_20
REMARK   11  A    between atoms: C_25  and  C_26
REMARK   12  A    between atoms: C_26  and  O_28
REMARK                            x       y       z     vdW  Elec       q    Type
REMARK                         _______ _______ _______ _____ _____    ______ ____
ROOT
ATOM      1  N   UNL     1       0.366  10.470  20.303  0.00  0.00    +0.000 N 
ATOM      2  H   UNL     1       1.255  10.995  20.349  0.00  0.00    +0.000 HD
ENDROOT
BRANCH   1   3
ATOM      3  C   UNL     1      -0.710  11.212  20.911  0.00  0.00    +0.000 A 
ATOM      4  C   UNL     1      -0.587  11.485  22.278  0.00  0.00    +0.000 A 
ATOM      5  C   UNL     1      -1.521  12.296  22.922  0.00  0.00    +0.000 A 
ATOM      6  C   UNL     1      -2.579  12.844  22.190  0.00  0.00    +0.000 A 
ATOM      7  C   UNL     1      -2.730  12.568  20.828  0.00  0.00    +0.000 A 
ATOM      8  C   UNL     1      -1.794  11.738  20.181  0.00  0.00    +0.000 A 
ATOM      9  O   UNL     1      -3.753  13.066  20.072  0.00  0.00    +0.000 OA
ATOM     10  C   UNL     1      -4.695  14.003  20.612  0.00  0.00    +0.000 C 
ATOM     11  C   UNL     1      -4.550  14.248  22.061  0.00  0.00    +0.000 A 
ATOM     12  C   UNL     1      -5.310  15.028  22.910  0.00  0.00    +0.000 A 
ATOM     13  C   UNL     1      -4.723  14.947  24.190  0.00  0.00    +0.000 A 
ATOM     14  C   UNL     1      -3.627  14.117  24.084  0.00  0.00    +0.000 A 
ATOM     15  N   UNL     1      -3.530  13.689  22.781  0.00  0.00    +0.000 N 
BRANCH   8  16
ATOM     16  C   UNL     1      -1.947  11.345  18.757  0.00  0.00    +0.000 C 
ATOM     17  O   UNL     1      -2.044  10.171  18.427  0.00  0.00    +0.000 OA
BRANCH  16  18
ATOM     18  O   UNL     1      -1.923  12.360  17.868  0.00  0.00    +0.000 OA
ATOM     19  H   UNL     1      -1.240  13.032  18.065  0.00  0.00    +0.000 HD
ENDBRANCH  16  18
ENDBRANCH   8  16
ENDBRANCH   1   3
BRANCH   1  20
ATOM     20  S   UNL     1       0.717   8.944  20.999  0.00  0.00    +0.000 S 
ATOM     21  O   UNL     1      -0.516   8.211  21.168  0.00  0.00    +0.000 OA
ATOM     22  O   UNL     1       1.574   9.205  22.134  0.00  0.00    +0.000 OA
BRANCH  20  29
ATOM     23  C   UNL     1       2.156   6.799  19.878  0.00  0.00    +0.000 A 
ATOM     24  C   UNL     1       2.960   6.268  18.857  0.00  0.00    +0.000 A 
ATOM     25  C   UNL     1       3.349   7.054  17.779  0.00  0.00    +0.000 A 
ATOM     26  F   UNL     1       4.146   6.532  16.838  0.00  0.00    +0.000 F 
ATOM     27  C   UNL     1       2.937   8.374  17.672  0.00  0.00    +0.000 A 
ATOM     28  C   UNL     1       2.113   8.914  18.658  0.00  0.00    +0.000 A 
ATOM     29  C   UNL     1       1.715   8.130  19.759  0.00  0.00    +0.000 A 
BRANCH  23  31
ATOM     30  C   UNL     1       1.485   4.621  20.875  0.00  0.00    +0.000 C 
ATOM     31  C   UNL     1       1.880   5.897  21.007  0.00  0.00    +0.000 C 
BRANCH  30  32
ATOM     32  C   UNL     1       1.284   3.871  19.585  0.00  0.00    +0.000 C 
BRANCH  32  33
ATOM     33  N   UNL     1       2.053   2.612  19.521  0.00  0.00    +0.000 NA
BRANCH  33  35
ATOM     34  C   UNL     1       2.468   3.378  17.142  0.00  0.00    +0.000 C 
ATOM     35  C   UNL     1       2.347   2.224  18.131  0.00  0.00    +0.000 C 
ENDBRANCH  33  35
BRANCH  33  36
ATOM     36  C   UNL     1       3.251   2.700  20.377  0.00  0.00    +0.000 C 
ATOM     37  C   UNL     1       4.479   1.924  19.900  0.00  0.00    +0.000 C 
ENDBRANCH  33  36
ENDBRANCH  32  33
ENDBRANCH  30  32
ENDBRANCH  23  31
ENDBRANCH  20  29
ENDBRANCH   1  20
TORSDOF 10
ENDMDL
MODEL 7
REMARK VINA RESULT:      -7.5      3.901      8.921
REMARK  Name = 
REMARK  12 active torsions:
REMARK  status: ('A' for Active; 'I' for Inactive)
REMARK    1  A    between atoms: C_1  and  C_2
REMARK    2  A    between atoms: C_2  and  N_3
REMARK    3  A    between atoms: N_3  and  C_4
REMARK    4  A    between atoms: N_3  and  C_6
REMARK    5  A    between atoms: C_4  and  C_5
REMARK    6  A    between atoms: C_6  and  C_7
REMARK    7  A    between atoms: C_8  and  C_9
REMARK    8  A    between atoms: C_15  and  S_16
REMARK    9  A    between atoms: S_16  and  N_19
REMARK   10  A    between atoms: N_19  and  C_20
REMARK   11  A    between atoms: C_25  and  C_26
REMARK   12  A    between atoms: C_26  and  O_28
REMARK                            x       y       z     vdW  Elec       q    Type
REMARK                         _______ _______ _______ _____ _____    ______ ____
ROOT
ATOM      1  N   UNL     1       2.762   4.558  17.881  0.00  0.00    +0.000 N 
ATOM      2  H   UNL     1       2.732   4.566  16.848  0.00  0.00    +0.000 HD
ENDROOT
BRANCH   1   3
ATOM      3  C   UNL     1       2.510   5.869  18.422  0.00  0.00    +0.000 A 
ATOM      4  C   UNL     1       2.763   6.955  17.574  0.00  0.00    +0.000 A 
ATOM      5  C   UNL     1       2.438   8.251  17.972  0.00  0.00    +0.000 A 
ATOM      6  C   UNL     1       1.847   8.460  19.222  0.00  0.00    +0.000 A 
ATOM      7  C   UNL     1       1.604   7.392  20.091  0.00  0.00    +0.000 A 
ATOM      8  C   UNL     1       1.945   6.085  19.694  0.00  0.00    +0.000 A 
ATOM      9  O   UNL     1       1.043   7.546  21.326  0.00  0.00    +0.000 OA
ATOM     10  C   UNL     1       0.565   8.821  21.778  0.00  0.00    +0.000 C 
ATOM     11  C   UNL     1       0.870   9.944  20.870  0.00  0.00    +0.000 A 
ATOM     12  C   UNL     1       0.620  11.294  21.014  0.00  0.00    +0.000 A 
ATOM     13  C   UNL     1       1.079  11.932  19.842  0.00  0.00    +0.000 A 
ATOM     14  C   UNL     1       1.599  10.952  19.022  0.00  0.00    +0.000 A 
ATOM     15  N   UNL     1       1.473   9.740  19.660  0.00  0.00    +0.000 N 
BRANCH   8  16
ATOM     16  C   UNL     1       1.785   4.923  20.605  0.00  0.00    +0.000 C 
ATOM     17  O   UNL     1       0.932   4.070  20.404  0.00  0.00    +0.000 OA
BRANCH  16  18
ATOM     18  O   UNL     1       2.607   4.905  21.675  0.00  0.00    +0.000 OA
ATOM     19  H   UNL     1       2.983   5.782  21.889  0.00  0.00    +0.000 HD
ENDBRANCH  16  18
ENDBRANCH   8  16
ENDBRANCH   1   3
BRANCH   1  20
ATOM     20  S   UNL     1       4.276   3.858  18.273  0.00  0.00    +0.000 S 
ATOM     21  O   UNL     1       4.502   2.718  17.414  0.00  0.00    +0.000 OA
ATOM     22  O   UNL     1       4.290   3.702  19.711  0.00  0.00    +0.000 OA
BRANCH  20  29
ATOM     23  C   UNL     1       5.554   5.716  16.589  0.00  0.00    +0.000 A 
ATOM     24  C   UNL     1       6.536   6.697  16.373  0.00  0.00    +0.000 A 
ATOM     25  C   UNL     1       7.419   7.051  17.386  0.00  0.00    +0.000 A 
ATOM     26  F   UNL     1       8.369   7.963  17.141  0.00  0.00    +0.000 F 
ATOM     27  C   UNL     1       7.340   6.465  18.640  0.00  0.00    +0.000 A 
ATOM     28  C   UNL     1       6.354   5.512  18.887  0.00  0.00    +0.000 A 
ATOM     29  C   UNL     1       5.455   5.138  17.868  0.00  0.00    +0.000 A 
BRANCH  23  31
ATOM     30  C   UNL     1       5.157   4.592  14.406  0.00  0.00    +0.000 C 
ATOM     31  C   UNL     1       4.735   5.365  15.419  0.00  0.00    +0.000 C 
BRANCH  30  32
ATOM     32  C   UNL     1       6.500   3.922  14.286  0.00  0.00    +0.000 C 
BRANCH  32  33
ATOM     33  N   UNL     1       6.907   3.686  12.887  0.00  0.00    +0.000 NA
BRANCH  33  35
ATOM     34  C   UNL     1       6.350   1.774  11.321  0.00  0.00    +0.000 C 
ATOM     35  C   UNL     1       5.865   2.973  12.129  0.00  0.00    +0.000 C 
ENDBRANCH  33  35
BRANCH  33  36
ATOM     36  C   UNL     1       7.336   4.951  12.259  0.00  0.00    +0.000 C 
ATOM     37  C   UNL     1       8.469   5.701  12.961  0.00  0.00    +0.000 C 
ENDBRANCH  33  36
ENDBRANCH  32  33
ENDBRANCH  30  32
ENDBRANCH  23  31
ENDBRANCH  20  29
ENDBRANCH   1  20
TORSDOF 10
ENDMDL
MODEL 8
REMARK VINA RESULT:      -7.5      0.979      1.376
REMARK  Name = 
REMARK  12 active torsions:
REMARK  status: ('A' for Active; 'I' for Inactive)
REMARK    1  A    between atoms: C_1  and  C_2
REMARK    2  A    between atoms: C_2  and  N_3
REMARK    3  A    between atoms: N_3  and  C_4
REMARK    4  A    between atoms: N_3  and  C_6
REMARK    5  A    between atoms: C_4  and  C_5
REMARK    6  A    between atoms: C_6  and  C_7
REMARK    7  A    between atoms: C_8  and  C_9
REMARK    8  A    between atoms: C_15  and  S_16
REMARK    9  A    between atoms: S_16  and  N_19
REMARK   10  A    between atoms: N_19  and  C_20
REMARK   11  A    between atoms: C_25  and  C_26
REMARK   12  A    between atoms: C_26  and  O_28
REMARK                            x       y       z     vdW  Elec       q    Type
REMARK                         _______ _______ _______ _____ _____    ______ ____
ROOT
ATOM      1  N   UNL     1       1.659   8.326  19.820  0.00  0.00    +0.000 N 
ATOM      2  H   UNL     1       2.275   8.690  20.565  0.00  0.00    +0.000 HD
ENDROOT
BRANCH   1   3
ATOM      3  C   UNL     1       2.390   7.496  18.896  0.00  0.00    +0.000 A 
ATOM      4  C   UNL     1       3.012   8.150  17.826  0.00  0.00    +0.000 A 
ATOM      5  C   UNL     1       3.837   7.444  16.951  0.00  0.00    +0.000 A 
ATOM      6  C   UNL     1       4.047   6.077  17.155  0.00  0.00    +0.000 A 
ATOM      7  C   UNL     1       3.420   5.401  18.207  0.00  0.00    +0.000 A 
ATOM      8  C   UNL     1       2.577   6.112  19.082  0.00  0.00    +0.000 A 
ATOM      9  O   UNL     1       3.581   4.065  18.440  0.00  0.00    +0.000 OA
ATOM     10  C   UNL     1       4.501   3.277  17.670  0.00  0.00    +0.000 C 
ATOM     11  C   UNL     1       5.118   3.993  16.537  0.00  0.00    +0.000 A 
ATOM     12  C   UNL     1       5.987   3.535  15.565  0.00  0.00    +0.000 A 
ATOM     13  C   UNL     1       6.304   4.633  14.737  0.00  0.00    +0.000 A 
ATOM     14  C   UNL     1       5.617   5.724  15.226  0.00  0.00    +0.000 A 
ATOM     15  N   UNL     1       4.889   5.324  16.323  0.00  0.00    +0.000 N 
BRANCH   8  16
ATOM     16  C   UNL     1       1.822   5.435  20.167  0.00  0.00    +0.000 C 
ATOM     17  O   UNL     1       0.903   4.666  19.919  0.00  0.00    +0.000 OA
BRANCH  16  18
ATOM     18  O   UNL     1       2.189   5.763  21.423  0.00  0.00    +0.000 OA
ATOM     19  H   UNL     1       3.145   5.954  21.510  0.00  0.00    +0.000 HD
ENDBRANCH  16  18
ENDBRANCH   8  16
ENDBRANCH   1   3
BRANCH   1  20
ATOM     20  S   UNL     1       0.904   9.713  19.155  0.00  0.00    +0.000 S 
ATOM     21  O   UNL     1       0.024   9.300  18.086  0.00  0.00    +0.000 OA
ATOM     22  O   UNL     1       1.961  10.667  18.903  0.00  0.00    +0.000 OA
BRANCH  20  29
ATOM     23  C   UNL     1      -0.883  11.500  20.393  0.00  0.00    +0.000 A 
ATOM     24  C   UNL     1      -1.591  11.933  21.526  0.00  0.00    +0.000 A 
ATOM     25  C   UNL     1      -1.460  11.269  22.740  0.00  0.00    +0.000 A 
ATOM     26  F   UNL     1      -2.119  11.725  23.813  0.00  0.00    +0.000 F 
ATOM     27  C   UNL     1      -0.646  10.153  22.860  0.00  0.00    +0.000 A 
ATOM     28  C   UNL     1       0.042   9.687  21.741  0.00  0.00    +0.000 A 
ATOM     29  C   UNL     1      -0.077  10.353  20.505  0.00  0.00    +0.000 A 
BRANCH  23  31
ATOM     30  C   UNL     1      -2.070  12.241  18.335  0.00  0.00    +0.000 C 
ATOM     31  C   UNL     1      -1.037  12.333  19.189  0.00  0.00    +0.000 C 
BRANCH  30  32
ATOM     32  C   UNL     1      -3.255  11.322  18.453  0.00  0.00    +0.000 C 
BRANCH  32  33
ATOM     33  N   UNL     1      -4.542  12.042  18.525  0.00  0.00    +0.000 NA
BRANCH  33  35
ATOM     34  C   UNL     1      -6.686  10.691  18.537  0.00  0.00    +0.000 C 
ATOM     35  C   UNL     1      -5.586  11.372  17.730  0.00  0.00    +0.000 C 
ENDBRANCH  33  35
BRANCH  33  36
ATOM     36  C   UNL     1      -4.923  12.270  19.931  0.00  0.00    +0.000 C 
ATOM     37  C   UNL     1      -4.748  13.696  20.454  0.00  0.00    +0.000 C 
ENDBRANCH  33  36
ENDBRANCH  32  33
ENDBRANCH  30  32
ENDBRANCH  23  31
ENDBRANCH  20  29
ENDBRANCH   1  20
TORSDOF 10
ENDMDL
MODEL 9
REMARK VINA RESULT:      -7.3      1.906      3.183
REMARK  Name = 
REMARK  12 active torsions:
REMARK  status: ('A' for Active; 'I' for Inactive)
REMARK    1  A    between atoms: C_1  and  C_2
REMARK    2  A    between atoms: C_2  and  N_3
REMARK    3  A    between atoms: N_3  and  C_4
REMARK    4  A    between atoms: N_3  and  C_6
REMARK    5  A    between atoms: C_4  and  C_5
REMARK    6  A    between atoms: C_6  and  C_7
REMARK    7  A    between atoms: C_8  and  C_9
REMARK    8  A    between atoms: C_15  and  S_16
REMARK    9  A    between atoms: S_16  and  N_19
REMARK   10  A    between atoms: N_19  and  C_20
REMARK   11  A    between atoms: C_25  and  C_26
REMARK   12  A    between atoms: C_26  and  O_28
REMARK                            x       y       z     vdW  Elec       q    Type
REMARK                         _______ _______ _______ _____ _____    ______ ____
ROOT
ATOM      1  N   UNL     1       1.544   8.444  19.754  0.00  0.00    +0.000 N 
ATOM      2  H   UNL     1       2.142   8.828  20.504  0.00  0.00    +0.000 HD
ENDROOT
BRANCH   1   3
ATOM      3  C   UNL     1       2.300   7.598  18.865  0.00  0.00    +0.000 A 
ATOM      4  C   UNL     1       2.958   8.233  17.806  0.00  0.00    +0.000 A 
ATOM      5  C   UNL     1       3.806   7.510  16.967  0.00  0.00    +0.000 A 
ATOM      6  C   UNL     1       4.003   6.145  17.198  0.00  0.00    +0.000 A 
ATOM      7  C   UNL     1       3.341   5.489  18.239  0.00  0.00    +0.000 A 
ATOM      8  C   UNL     1       2.474   6.216  19.076  0.00  0.00    +0.000 A 
ATOM      9  O   UNL     1       3.488   4.155  18.496  0.00  0.00    +0.000 OA
ATOM     10  C   UNL     1       4.427   3.352  17.767  0.00  0.00    +0.000 C 
ATOM     11  C   UNL     1       5.083   4.048  16.644  0.00  0.00    +0.000 A 
ATOM     12  C   UNL     1       5.979   3.572  15.706  0.00  0.00    +0.000 A 
ATOM     13  C   UNL     1       6.327   4.656  14.873  0.00  0.00    +0.000 A 
ATOM     14  C   UNL     1       5.631   5.758  15.324  0.00  0.00    +0.000 A 
ATOM     15  N   UNL     1       4.867   5.377  16.403  0.00  0.00    +0.000 N 
BRANCH   8  16
ATOM     16  C   UNL     1       1.682   5.558  20.147  0.00  0.00    +0.000 C 
ATOM     17  O   UNL     1       1.571   6.060  21.257  0.00  0.00    +0.000 OA
BRANCH  16  18
ATOM     18  O   UNL     1       1.144   4.363  19.822  0.00  0.00    +0.000 OA
ATOM     19  H   UNL     1       0.656   4.376  18.974  0.00  0.00    +0.000 HD
ENDBRANCH  16  18
ENDBRANCH   8  16
ENDBRANCH   1   3
BRANCH   1  20
ATOM     20  S   UNL     1       0.798   9.812  19.040  0.00  0.00    +0.000 S 
ATOM     21  O   UNL     1      -0.095   9.367  17.996  0.00  0.00    +0.000 OA
ATOM     22  O   UNL     1       1.864  10.744  18.742  0.00  0.00    +0.000 OA
BRANCH  20  29
ATOM     23  C   UNL     1      -1.028  11.612  20.200  0.00  0.00    +0.000 A 
ATOM     24  C   UNL     1      -1.716  12.103  21.322  0.00  0.00    +0.000 A 
ATOM     25  C   UNL     1      -1.508  11.549  22.579  0.00  0.00    +0.000 A 
ATOM     26  F   UNL     1      -2.150  12.060  23.638  0.00  0.00    +0.000 F 
ATOM     27  C   UNL     1      -0.638  10.484  22.756  0.00  0.00    +0.000 A 
ATOM     28  C   UNL     1       0.032   9.960  21.652  0.00  0.00    +0.000 A 
ATOM     29  C   UNL     1      -0.163  10.516  20.372  0.00  0.00    +0.000 A 
BRANCH  23  31
ATOM     30  C   UNL     1      -0.555  13.399  18.535  0.00  0.00    +0.000 C 
ATOM     31  C   UNL     1      -1.266  12.335  18.940  0.00  0.00    +0.000 C 
BRANCH  30  32
ATOM     32  C   UNL     1       0.612  14.026  19.249  0.00  0.00    +0.000 C 
BRANCH  32  33
ATOM     33  N   UNL     1       1.099  15.256  18.596  0.00  0.00    +0.000 NA
BRANCH  33  35
ATOM     34  C   UNL     1      -0.526  17.146  18.141  0.00  0.00    +0.000 C 
ATOM     35  C   UNL     1       0.420  16.455  19.117  0.00  0.00    +0.000 C 
ENDBRANCH  33  35
BRANCH  33  36
ATOM     36  C   UNL     1       2.571  15.328  18.673  0.00  0.00    +0.000 C 
ATOM     37  C   UNL     1       3.323  14.024  18.411  0.00  0.00    +0.000 C 
ENDBRANCH  33  36
ENDBRANCH  32  33
ENDBRANCH  30  32
ENDBRANCH  23  31
ENDBRANCH  20  29
ENDBRANCH   1  20
TORSDOF 10
ENDMDL
