MODEL 1
REMARK VINA RESULT:      -7.8      0.000      0.000
REMARK  Name = 
REMARK  12 active torsions:
REMARK  status: ('A' for Active; 'I' for Inactive)
REMARK    1  A    between atoms: C_1  and  C_2
REMARK    2  A    between atoms: C_2  and  O_3
REMARK    3  A    between atoms: O_3  and  C_4
REMARK    4  A    between atoms: C_6  and  N_7
REMARK    5  A    between atoms: C_13  and  O_14
REMARK    6  A    between atoms: O_14  and  C_15
REMARK    7  A    between atoms: C_15  and  C_16
REMARK    8  A    between atoms: C_18  and  N_19
REMARK    9  A    between atoms: C_20  and  C_22
REMARK   10  A    between atoms: C_22  and  N_23
REMARK   11  A    between atoms: C_27  and  C_28
REMARK   12  A    between atoms: C_28  and  C_29
REMARK                            x       y       z     vdW  Elec       q    Type
REMARK                         _______ _______ _______ _____ _____    ______ ____
ROOT
ATOM      1  N   UNL     1       2.234   6.442  20.639  0.00  0.00    +0.000 N 
ATOM      2  C   UNL     1       1.503   5.265  20.756  0.00  0.00    +0.000 C 
ATOM      3  O   UNL     1       0.291   5.154  20.576  0.00  0.00    +0.000 OA
ATOM      4  H   UNL     1       3.238   6.346  20.591  0.00  0.00    +0.000 HD
ENDROOT
BRANCH   1  10
ATOM      5  C   UNL     1       1.668   8.355  19.181  0.00  0.00    +0.000 A 
ATOM      6  C   UNL     1       1.261   9.700  19.063  0.00  0.00    +0.000 A 
ATOM      7  C   UNL     1       0.875  10.495  20.155  0.00  0.00    +0.000 A 
ATOM      8  C   UNL     1       0.857   9.845  21.407  0.00  0.00    +0.000 A 
ATOM      9  C   UNL     1       1.297   8.518  21.546  0.00  0.00    +0.000 A 
ATOM     10  C   UNL     1       1.712   7.751  20.447  0.00  0.00    +0.000 A 
BRANCH   7  11
ATOM     11  N   UNL     1       0.578  11.836  19.981  0.00  0.00    +0.000 N 
ATOM     12  C   UNL     1      -0.721  12.332  19.507  0.00  0.00    +0.000 C 
ATOM     13  C   UNL     1      -0.504  13.285  18.322  0.00  0.00    +0.000 C 
ATOM     14  O   UNL     1       0.373  14.370  18.672  0.00  0.00    +0.000 OA
ATOM     15  C   UNL     1       1.651  13.859  19.080  0.00  0.00    +0.000 C 
ATOM     16  C   UNL     1       1.539  12.911  20.285  0.00  0.00    +0.000 C 
ENDBRANCH   7  11
BRANCH   5  17
ATOM     17  O   UNL     1       2.063   7.840  17.972  0.00  0.00    +0.000 OA
BRANCH  17  19
ATOM     18  C   UNL     1       4.272   7.471  17.109  0.00  0.00    +0.000 C 
ATOM     19  C   UNL     1       3.137   6.910  17.947  0.00  0.00    +0.000 C 
ENDBRANCH  17  19
ENDBRANCH   5  17
BRANCH   8  20
ATOM     20  O   UNL     1       0.431  10.580  22.485  0.00  0.00    +0.000 OA
BRANCH  20  21
ATOM     21  C   UNL     1      -0.824  10.258  23.074  0.00  0.00    +0.000 C 
ATOM     22  C   UNL     1      -1.664  11.524  23.019  0.00  0.00    +0.000 C 
ENDBRANCH  20  21
ENDBRANCH   8  20
ENDBRANCH   1  10
BRANCH   2  23
ATOM     23  C   UNL     1       2.358   4.030  21.035  0.00  0.00    +0.000 C 
BRANCH  23  24
ATOM     24  N   UNL     1       2.753   3.404  19.789  0.00  0.00    +0.000 N 
ATOM     25  C   UNL     1       2.192   2.274  19.283  0.00  0.00    +0.000 C 
ATOM     26  O   UNL     1       1.290   1.612  19.762  0.00  0.00    +0.000 OA
ATOM     27  N   UNL     1       2.880   1.919  18.146  0.00  0.00    +0.000 N 
ATOM     28  C   UNL     1       3.991   2.792  17.870  0.00  0.00    +0.000 C 
ATOM     29  C   UNL     1       3.878   3.719  19.082  0.00  0.00    +0.000 C 
ATOM     30  O   UNL     1       4.673   4.598  19.375  0.00  0.00    +0.000 OA
ATOM     31  H   UNL     1       2.694   1.044  17.675  0.00  0.00    +0.000 HD
BRANCH  28  32
ATOM     32  C   UNL     1       3.847   3.568  16.561  0.00  0.00    +0.000 C 
BRANCH  32  33
ATOM     33  C   UNL     1       5.170   4.062  16.009  0.00  0.00    +0.000 A 
ATOM     34  C   UNL     1       6.241   4.307  16.874  0.00  0.00    +0.000 A 
ATOM     35  C   UNL     1       7.470   4.749  16.377  0.00  0.00    +0.000 A 
ATOM     36  C   UNL     1       7.637   4.948  15.008  0.00  0.00    +0.000 A 
ATOM     37  C   UNL     1       6.574   4.712  14.136  0.00  0.00    +0.000 A 
ATOM     38  C   UNL     1       5.341   4.275  14.634  0.00  0.00    +0.000 A 
ENDBRANCH  32  33
ENDBRANCH  28  32
ENDBRANCH  23  24
ENDBRANCH   2  23
TORSDOF 10
ENDMDL
MODEL 2
REMARK VINA RESULT:      -7.8      0.784      1.153
REMARK  Name = 
REMARK  12 active torsions:
REMARK  status: ('A' for Active; 'I' for Inactive)
REMARK    1  A    between atoms: C_1  and  C_2
REMARK    2  A    between atoms: C_2  and  O_3
REMARK    3  A    between atoms: O_3  and  C_4
REMARK    4  A    between atoms: C_6  and  N_7
REMARK    5  A    between atoms: C_13  and  O_14
REMARK    6  A    between atoms: O_14  and  C_15
REMARK    7  A    between atoms: C_15  and  C_16
REMARK    8  A    between atoms: C_18  and  N_19
REMARK    9  A    between atoms: C_20  and  C_22
REMARK   10  A    between atoms: C_22  and  N_23
REMARK   11  A    between atoms: C_27  and  C_28
REMARK   12  A    between atoms: C_28  and  C_29
REMARK                            x       y       z     vdW  Elec       q    Type
REMARK                         _______ _______ _______ _____ _____    ______ ____
ROOT
ATOM      1  N   UNL     1       2.086   6.931  20.909  0.00  0.00    +0.000 N 
ATOM      2  C   UNL     1       1.469   5.687  20.854  0.00  0.00    +0.000 C 
ATOM      3  O   UNL     1       0.347   5.464  20.401  0.00  0.00    +0.000 OA
ATOM      4  H   UNL     1       3.079   6.934  21.092  0.00  0.00    +0.000 HD
ENDROOT
BRANCH   1  10
ATOM      5  C   UNL     1       1.426   8.680  19.292  0.00  0.00    +0.000 A 
ATOM      6  C   UNL     1       0.945   9.985  19.059  0.00  0.00    +0.000 A 
ATOM      7  C   UNL     1       0.508  10.846  20.079  0.00  0.00    +0.000 A 
ATOM      8  C   UNL     1       0.516  10.304  21.382  0.00  0.00    +0.000 A 
ATOM      9  C   UNL     1       1.029   9.021  21.634  0.00  0.00    +0.000 A 
ATOM     10  C   UNL     1       1.493   8.188  20.606  0.00  0.00    +0.000 A 
BRANCH   7  11
ATOM     11  N   UNL     1       0.137  12.149  19.791  0.00  0.00    +0.000 N 
ATOM     12  C   UNL     1       1.060  13.291  19.832  0.00  0.00    +0.000 C 
ATOM     13  C   UNL     1       0.459  14.404  20.705  0.00  0.00    +0.000 C 
ATOM     14  O   UNL     1      -0.841  14.800  20.233  0.00  0.00    +0.000 OA
ATOM     15  C   UNL     1      -1.736  13.677  20.254  0.00  0.00    +0.000 C 
ATOM     16  C   UNL     1      -1.230  12.516  19.383  0.00  0.00    +0.000 C 
ENDBRANCH   7  11
BRANCH   5  17
ATOM     17  O   UNL     1       1.858   8.087  18.133  0.00  0.00    +0.000 OA
BRANCH  17  19
ATOM     18  C   UNL     1       3.909   7.305  17.163  0.00  0.00    +0.000 C 
ATOM     19  C   UNL     1       3.089   8.517  17.566  0.00  0.00    +0.000 C 
ENDBRANCH  17  19
ENDBRANCH   5  17
BRANCH   8  20
ATOM     20  O   UNL     1       0.041  11.103  22.392  0.00  0.00    +0.000 OA
BRANCH  20  21
ATOM     21  C   UNL     1      -1.067  10.644  23.158  0.00  0.00    +0.000 C 
ATOM     22  C   UNL     1      -2.085  11.773  23.163  0.00  0.00    +0.000 C 
ENDBRANCH  20  21
ENDBRANCH   8  20
ENDBRANCH   1  10
BRANCH   2  23
ATOM     23  C   UNL     1       2.357   4.534  21.318  0.00  0.00    +0.000 C 
BRANCH  23  24
ATOM     24  N   UNL     1       2.841   3.785  20.177  0.00  0.00    +0.000 N 
ATOM     25  C   UNL     1       2.464   2.515  19.872  0.00  0.00    +0.000 C 
ATOM     26  O   UNL     1       1.679   1.807  20.475  0.00  0.00    +0.000 OA
ATOM     27  N   UNL     1       3.196   2.093  18.786  0.00  0.00    +0.000 N 
ATOM     28  C   UNL     1       4.154   3.072  18.344  0.00  0.00    +0.000 C 
ATOM     29  C   UNL     1       3.901   4.152  19.396  0.00  0.00    +0.000 C 
ATOM     30  O   UNL     1       4.548   5.180  19.524  0.00  0.00    +0.000 OA
ATOM     31  H   UNL     1       3.148   1.135  18.465  0.00  0.00    +0.000 HD
BRANCH  28  32
ATOM     32  C   UNL     1       3.885   3.595  16.933  0.00  0.00    +0.000 C 
BRANCH  32  33
ATOM     33  C   UNL     1       5.137   4.073  16.223  0.00  0.00    +0.000 A 
ATOM     34  C   UNL     1       6.320   4.266  16.944  0.00  0.00    +0.000 A 
ATOM     35  C   UNL     1       7.484   4.692  16.299  0.00  0.00    +0.000 A 
ATOM     36  C   UNL     1       7.474   4.927  14.925  0.00  0.00    +0.000 A 
ATOM     37  C   UNL     1       6.298   4.743  14.197  0.00  0.00    +0.000 A 
ATOM     38  C   UNL     1       5.130   4.322  14.844  0.00  0.00    +0.000 A 
ENDBRANCH  32  33
ENDBRANCH  28  32
ENDBRANCH  23  24
ENDBRANCH   2  23
TORSDOF 10
ENDMDL
MODEL 3
REMARK VINA RESULT:      -7.5      2.197     10.509
REMARK  Name = 
REMARK  12 active torsions:
REMARK  status: ('A' for Active; 'I' for Inactive)
REMARK    1  A    between atoms: C_1  and  C_2
REMARK    2  A    between atoms: C_2  and  O_3
REMARK    3  A    between atoms: O_3  and  C_4
REMARK    4  A    between atoms: C_6  and  N_7
REMARK    5  A    between atoms: C_13  and  O_14
REMARK    6  A    between atoms: O_14  and  C_15
REMARK    7  A    between atoms: C_15  and  C_16
REMARK    8  A    between atoms: C_18  and  N_19
REMARK    9  A    between atoms: C_20  and  C_22
REMARK   10  A    between atoms: C_22  and  N_23
REMARK   11  A    between atoms: C_27  and  C_28
REMARK   12  A    between atoms: C_28  and  C_29
REMARK                            x       y       z     vdW  Elec       q    Type
REMARK                         _______ _______ _______ _____ _____    ______ ____
ROOT
ATOM      1  N   UNL     1       1.942   9.853  19.107  0.00  0.00    +0.000 N 
ATOM      2  C   UNL     1       0.868  10.623  18.675  0.00  0.00    +0.000 C 
ATOM      3  O   UNL     1      -0.273  10.210  18.471  0.00  0.00    +0.000 OA
ATOM      4  H   UNL     1       2.749  10.356  19.447  0.00  0.00    +0.000 HD
ENDROOT
BRANCH   1  10
ATOM      5  C   UNL     1       1.570   7.795  20.425  0.00  0.00    +0.000 A 
ATOM      6  C   UNL     1       1.740   6.402  20.556  0.00  0.00    +0.000 A 
ATOM      7  C   UNL     1       2.290   5.588  19.551  0.00  0.00    +0.000 A 
ATOM      8  C   UNL     1       2.618   6.243  18.346  0.00  0.00    +0.000 A 
ATOM      9  C   UNL     1       2.492   7.636  18.216  0.00  0.00    +0.000 A 
ATOM     10  C   UNL     1       1.972   8.437  19.243  0.00  0.00    +0.000 A 
BRANCH   7  11
ATOM     11  N   UNL     1       2.516   4.241  19.780  0.00  0.00    +0.000 N 
ATOM     12  C   UNL     1       3.848   3.660  19.996  0.00  0.00    +0.000 C 
ATOM     13  C   UNL     1       4.051   2.476  19.038  0.00  0.00    +0.000 C 
ATOM     14  O   UNL     1       3.018   1.487  19.194  0.00  0.00    +0.000 OA
ATOM     15  C   UNL     1       1.734   2.070  18.926  0.00  0.00    +0.000 C 
ATOM     16  C   UNL     1       1.426   3.252  19.858  0.00  0.00    +0.000 C 
ENDBRANCH   7  11
BRANCH   5  17
ATOM     17  O   UNL     1       1.084   8.354  21.580  0.00  0.00    +0.000 OA
BRANCH  17  19
ATOM     18  C   UNL     1      -0.582   9.414  22.945  0.00  0.00    +0.000 C 
ATOM     19  C   UNL     1      -0.303   8.653  21.661  0.00  0.00    +0.000 C 
ENDBRANCH  17  19
ENDBRANCH   5  17
BRANCH   8  20
ATOM     20  O   UNL     1       3.106   5.464  17.326  0.00  0.00    +0.000 OA
BRANCH  20  21
ATOM     21  C   UNL     1       4.448   5.667  16.897  0.00  0.00    +0.000 C 
ATOM     22  C   UNL     1       4.842   4.428  16.110  0.00  0.00    +0.000 C 
ENDBRANCH  20  21
ENDBRANCH   8  20
ENDBRANCH   1  10
BRANCH   2  23
ATOM     23  C   UNL     1       1.180  12.114  18.564  0.00  0.00    +0.000 C 
BRANCH  23  24
ATOM     24  N   UNL     1       0.542  12.840  19.643  0.00  0.00    +0.000 N 
ATOM     25  C   UNL     1      -0.205  13.964  19.479  0.00  0.00    +0.000 C 
ATOM     26  O   UNL     1      -0.467  14.539  18.438  0.00  0.00    +0.000 OA
ATOM     27  N   UNL     1      -0.564  14.431  20.722  0.00  0.00    +0.000 N 
ATOM     28  C   UNL     1      -0.013  13.646  21.795  0.00  0.00    +0.000 C 
ATOM     29  C   UNL     1       0.791  12.639  20.971  0.00  0.00    +0.000 C 
ATOM     30  O   UNL     1       1.543  11.793  21.428  0.00  0.00    +0.000 OA
ATOM     31  H   UNL     1      -1.031  15.322  20.830  0.00  0.00    +0.000 HD
BRANCH  28  32
ATOM     32  C   UNL     1      -1.073  12.948  22.648  0.00  0.00    +0.000 C 
BRANCH  32  33
ATOM     33  C   UNL     1      -1.891  13.907  23.489  0.00  0.00    +0.000 A 
ATOM     34  C   UNL     1      -1.252  14.792  24.363  0.00  0.00    +0.000 A 
ATOM     35  C   UNL     1      -1.994  15.691  25.134  0.00  0.00    +0.000 A 
ATOM     36  C   UNL     1      -3.384  15.713  25.034  0.00  0.00    +0.000 A 
ATOM     37  C   UNL     1      -4.033  14.831  24.169  0.00  0.00    +0.000 A 
ATOM     38  C   UNL     1      -3.290  13.926  23.402  0.00  0.00    +0.000 A 
ENDBRANCH  32  33
ENDBRANCH  28  32
ENDBRANCH  23  24
ENDBRANCH   2  23
TORSDOF 10
ENDMDL
MODEL 4
REMARK VINA RESULT:      -7.5      2.334      9.362
REMARK  Name = 
REMARK  12 active torsions:
REMARK  status: ('A' for Active; 'I' for Inactive)
REMARK    1  A    between atoms: C_1  and  C_2
REMARK    2  A    between atoms: C_2  and  O_3
REMARK    3  A    between atoms: O_3  and  C_4
REMARK    4  A    between atoms: C_6  and  N_7
REMARK    5  A    between atoms: C_13  and  O_14
REMARK    6  A    between atoms: O_14  and  C_15
REMARK    7  A    between atoms: C_15  and  C_16
REMARK    8  A    between atoms: C_18  and  N_19
REMARK    9  A    between atoms: C_20  and  C_22
REMARK   10  A    between atoms: C_22  and  N_23
REMARK   11  A    between atoms: C_27  and  C_28
REMARK   12  A    between atoms: C_28  and  C_29
REMARK                            x       y       z     vdW  Elec       q    Type
REMARK                         _______ _______ _______ _____ _____    ______ ____
ROOT
ATOM      1  N   UNL     1       0.678   9.037  20.012  0.00  0.00    +0.000 N 
ATOM      2  C   UNL     1       0.657   9.728  21.218  0.00  0.00    +0.000 C 
ATOM      3  O   UNL     1       1.569   9.755  22.043  0.00  0.00    +0.000 OA
ATOM      4  H   UNL     1      -0.035   9.283  19.339  0.00  0.00    +0.000 HD
ENDROOT
BRANCH   1  10
ATOM      5  C   UNL     1       2.423   8.334  18.409  0.00  0.00    +0.000 A 
ATOM      6  C   UNL     1       3.304   7.333  17.951  0.00  0.00    +0.000 A 
ATOM      7  C   UNL     1       3.494   6.104  18.607  0.00  0.00    +0.000 A 
ATOM      8  C   UNL     1       2.784   5.940  19.815  0.00  0.00    +0.000 A 
ATOM      9  C   UNL     1       1.874   6.912  20.263  0.00  0.00    +0.000 A 
ATOM     10  C   UNL     1       1.672   8.118  19.576  0.00  0.00    +0.000 A 
BRANCH   7  11
ATOM     11  N   UNL     1       4.303   5.127  18.051  0.00  0.00    +0.000 N 
ATOM     12  C   UNL     1       5.673   4.846  18.500  0.00  0.00    +0.000 C 
ATOM     13  C   UNL     1       6.622   4.864  17.291  0.00  0.00    +0.000 C 
ATOM     14  O   UNL     1       6.202   3.933  16.278  0.00  0.00    +0.000 OA
ATOM     15  C   UNL     1       4.882   4.263  15.821  0.00  0.00    +0.000 C 
ATOM     16  C   UNL     1       3.852   4.244  16.961  0.00  0.00    +0.000 C 
ENDBRANCH   7  11
BRANCH   5  17
ATOM     17  O   UNL     1       2.372   9.396  17.542  0.00  0.00    +0.000 OA
BRANCH  17  19
ATOM     18  C   UNL     1       2.655  11.755  17.877  0.00  0.00    +0.000 C 
ATOM     19  C   UNL     1       1.699  10.578  17.953  0.00  0.00    +0.000 C 
ENDBRANCH  17  19
ENDBRANCH   5  17
BRANCH   8  20
ATOM     20  O   UNL     1       2.993   4.773  20.506  0.00  0.00    +0.000 OA
BRANCH  20  21
ATOM     21  C   UNL     1       1.927   4.247  21.289  0.00  0.00    +0.000 C 
ATOM     22  C   UNL     1       1.179   3.269  20.397  0.00  0.00    +0.000 C 
ENDBRANCH  20  21
ENDBRANCH   8  20
ENDBRANCH   1  10
BRANCH   2  23
ATOM     23  C   UNL     1      -0.592  10.583  21.421  0.00  0.00    +0.000 C 
BRANCH  23  24
ATOM     24  N   UNL     1      -0.615  11.670  20.463  0.00  0.00    +0.000 N 
ATOM     25  C   UNL     1      -1.268  11.633  19.271  0.00  0.00    +0.000 C 
ATOM     26  O   UNL     1      -1.930  10.720  18.813  0.00  0.00    +0.000 OA
ATOM     27  N   UNL     1      -0.988  12.793  18.587  0.00  0.00    +0.000 N 
ATOM     28  C   UNL     1      -0.071  13.650  19.291  0.00  0.00    +0.000 C 
ATOM     29  C   UNL     1       0.194  12.769  20.514  0.00  0.00    +0.000 C 
ATOM     30  O   UNL     1       1.005  13.008  21.394  0.00  0.00    +0.000 OA
ATOM     31  H   UNL     1      -1.287  12.918  17.629  0.00  0.00    +0.000 HD
BRANCH  28  32
ATOM     32  C   UNL     1      -0.677  14.994  19.694  0.00  0.00    +0.000 C 
BRANCH  32  33
ATOM     33  C   UNL     1      -0.129  16.161  18.896  0.00  0.00    +0.000 A 
ATOM     34  C   UNL     1       1.246  16.266  18.664  0.00  0.00    +0.000 A 
ATOM     35  C   UNL     1       1.763  17.329  17.918  0.00  0.00    +0.000 A 
ATOM     36  C   UNL     1       0.905  18.295  17.396  0.00  0.00    +0.000 A 
ATOM     37  C   UNL     1      -0.468  18.203  17.624  0.00  0.00    +0.000 A 
ATOM     38  C   UNL     1      -0.985  17.142  18.377  0.00  0.00    +0.000 A 
ENDBRANCH  32  33
ENDBRANCH  28  32
ENDBRANCH  23  24
ENDBRANCH   2  23
TORSDOF 10
ENDMDL
MODEL 5
REMARK VINA RESULT:      -7.5      2.352      9.507
REMARK  Name = 
REMARK  12 active torsions:
REMARK  status: ('A' for Active; 'I' for Inactive)
REMARK    1  A    between atoms: C_1  and  C_2
REMARK    2  A    between atoms: C_2  and  O_3
REMARK    3  A    between atoms: O_3  and  C_4
REMARK    4  A    between atoms: C_6  and  N_7
REMARK    5  A    between atoms: C_13  and  O_14
REMARK    6  A    between atoms: O_14  and  C_15
REMARK    7  A    between atoms: C_15  and  C_16
REMARK    8  A    between atoms: C_18  and  N_19
REMARK    9  A    between atoms: C_20  and  C_22
REMARK   10  A    between atoms: C_22  and  N_23
REMARK   11  A    between atoms: C_27  and  C_28
REMARK   12  A    between atoms: C_28  and  C_29
REMARK                            x       y       z     vdW  Elec       q    Type
REMARK                         _______ _______ _______ _____ _____    ______ ____
ROOT
ATOM      1  N   UNL     1      -0.010   9.530  20.824  0.00  0.00    +0.000 N 
ATOM      2  C   UNL     1       0.073  10.143  22.070  0.00  0.00    +0.000 C 
ATOM      3  O   UNL     1       1.045  10.104  22.823  0.00  0.00    +0.000 OA
ATOM      4  H   UNL     1      -0.766   9.829  20.225  0.00  0.00    +0.000 HD
ENDROOT
BRANCH   1  10
ATOM      5  C   UNL     1       1.585   8.901  19.044  0.00  0.00    +0.000 A 
ATOM      6  C   UNL     1       2.412   7.920  18.460  0.00  0.00    +0.000 A 
ATOM      7  C   UNL     1       2.640   6.655  19.029  0.00  0.00    +0.000 A 
ATOM      8  C   UNL     1       2.032   6.432  20.283  0.00  0.00    +0.000 A 
ATOM      9  C   UNL     1       1.175   7.384  20.858  0.00  0.00    +0.000 A 
ATOM     10  C   UNL     1       0.932   8.628  20.257  0.00  0.00    +0.000 A 
BRANCH   7  11
ATOM     11  N   UNL     1       3.386   5.703  18.356  0.00  0.00    +0.000 N 
ATOM     12  C   UNL     1       2.808   4.692  17.461  0.00  0.00    +0.000 C 
ATOM     13  C   UNL     1       3.307   3.298  17.874  0.00  0.00    +0.000 C 
ATOM     14  O   UNL     1       4.744   3.232  17.878  0.00  0.00    +0.000 OA
ATOM     15  C   UNL     1       5.279   4.194  18.799  0.00  0.00    +0.000 C 
ATOM     16  C   UNL     1       4.855   5.630  18.450  0.00  0.00    +0.000 C 
ENDBRANCH   7  11
BRANCH   5  17
ATOM     17  O   UNL     1       1.476  10.010  18.243  0.00  0.00    +0.000 OA
BRANCH  17  19
ATOM     18  C   UNL     1       2.564  12.137  18.014  0.00  0.00    +0.000 C 
ATOM     19  C   UNL     1       1.606  11.294  18.838  0.00  0.00    +0.000 C 
ENDBRANCH  17  19
ENDBRANCH   5  17
BRANCH   8  20
ATOM     20  O   UNL     1       2.283   5.226  20.890  0.00  0.00    +0.000 OA
BRANCH  20  21
ATOM     21  C   UNL     1       1.293   4.206  20.811  0.00  0.00    +0.000 C 
ATOM     22  C   UNL     1       1.857   3.000  21.544  0.00  0.00    +0.000 C 
ENDBRANCH  20  21
ENDBRANCH   8  20
ENDBRANCH   1  10
BRANCH   2  23
ATOM     23  C   UNL     1      -1.142  10.999  22.421  0.00  0.00    +0.000 C 
BRANCH  23  24
ATOM     24  N   UNL     1      -1.060  12.281  21.751  0.00  0.00    +0.000 N 
ATOM     25  C   UNL     1      -0.697  13.444  22.353  0.00  0.00    +0.000 C 
ATOM     26  O   UNL     1      -0.381  13.612  23.517  0.00  0.00    +0.000 OA
ATOM     27  N   UNL     1      -0.828  14.465  21.441  0.00  0.00    +0.000 N 
ATOM     28  C   UNL     1      -1.348  14.020  20.175  0.00  0.00    +0.000 C 
ATOM     29  C   UNL     1      -1.555  12.541  20.504  0.00  0.00    +0.000 C 
ATOM     30  O   UNL     1      -2.086  11.722  19.771  0.00  0.00    +0.000 OA
ATOM     31  H   UNL     1      -0.713  15.431  21.719  0.00  0.00    +0.000 HD
BRANCH  28  32
ATOM     32  C   UNL     1      -0.369  14.200  19.015  0.00  0.00    +0.000 C 
BRANCH  32  33
ATOM     33  C   UNL     1       0.143  15.621  18.879  0.00  0.00    +0.000 A 
ATOM     34  C   UNL     1      -0.746  16.662  18.598  0.00  0.00    +0.000 A 
ATOM     35  C   UNL     1      -0.289  17.978  18.486  0.00  0.00    +0.000 A 
ATOM     36  C   UNL     1       1.065  18.262  18.655  0.00  0.00    +0.000 A 
ATOM     37  C   UNL     1       1.963  17.230  18.931  0.00  0.00    +0.000 A 
ATOM     38  C   UNL     1       1.506  15.911  19.038  0.00  0.00    +0.000 A 
ENDBRANCH  32  33
ENDBRANCH  28  32
ENDBRANCH  23  24
ENDBRANCH   2  23
TORSDOF 10
ENDMDL
MODEL 6
REMARK VINA RESULT:      -7.4      6.348      7.829
REMARK  Name = 
REMARK  12 active torsions:
REMARK  status: ('A' for Active; 'I' for Inactive)
REMARK    1  A    between atoms: C_1  and  C_2
REMARK    2  A    between atoms: C_2  and  O_3
REMARK    3  A    between atoms: O_3  and  C_4
REMARK    4  A    between atoms: C_6  and  N_7
REMARK    5  A    between atoms: C_13  and  O_14
REMARK    6  A    between atoms: O_14  and  C_15
REMARK    7  A    between atoms: C_15  and  C_16
REMARK    8  A    between atoms: C_18  and  N_19
REMARK    9  A    between atoms: C_20  and  C_22
REMARK   10  A    between atoms: C_22  and  N_23
REMARK   11  A    between atoms: C_27  and  C_28
REMARK   12  A    between atoms: C_28  and  C_29
REMARK                            x       y       z     vdW  Elec       q    Type
REMARK                         _______ _______ _______ _____ _____    ______ ____
ROOT
ATOM      1  N   UNL     1       9.123   9.458  19.273  0.00  0.00    +0.000 N 
ATOM      2  C   UNL     1       8.220   8.882  18.386  0.00  0.00    +0.000 C 
ATOM      3  O   UNL     1       7.315   9.475  17.800  0.00  0.00    +0.000 OA
ATOM      4  H   UNL     1       9.941   8.911  19.500  0.00  0.00    +0.000 HD
ENDROOT
BRANCH   1  10
ATOM      5  C   UNL     1       9.363  11.901  18.984  0.00  0.00    +0.000 A 
ATOM      6  C   UNL     1       9.434  13.181  19.571  0.00  0.00    +0.000 A 
ATOM      7  C   UNL     1       9.225  13.422  20.940  0.00  0.00    +0.000 A 
ATOM      8  C   UNL     1       8.872  12.296  21.711  0.00  0.00    +0.000 A 
ATOM      9  C   UNL     1       8.836  11.009  21.149  0.00  0.00    +0.000 A 
ATOM     10  C   UNL     1       9.081  10.783  19.787  0.00  0.00    +0.000 A 
BRANCH   7  11
ATOM     11  N   UNL     1       9.403  14.691  21.467  0.00  0.00    +0.000 N 
ATOM     12  C   UNL     1       8.302  15.616  21.762  0.00  0.00    +0.000 C 
ATOM     13  C   UNL     1       8.582  16.974  21.098  0.00  0.00    +0.000 C 
ATOM     14  O   UNL     1       9.847  17.515  21.518  0.00  0.00    +0.000 OA
ATOM     15  C   UNL     1      10.909  16.615  21.169  0.00  0.00    +0.000 C 
ATOM     16  C   UNL     1      10.731  15.230  21.812  0.00  0.00    +0.000 C 
ENDBRANCH   7  11
BRANCH   5  17
ATOM     17  O   UNL     1       9.683  11.939  17.651  0.00  0.00    +0.000 OA
BRANCH  17  19
ATOM     18  C   UNL     1      11.941  12.678  17.309  0.00  0.00    +0.000 C 
ATOM     19  C   UNL     1      10.468  13.022  17.171  0.00  0.00    +0.000 C 
ENDBRANCH  17  19
ENDBRANCH   5  17
BRANCH   8  20
ATOM     20  O   UNL     1       8.607  12.510  23.041  0.00  0.00    +0.000 OA
BRANCH  20  21
ATOM     21  C   UNL     1       7.363  12.061  23.568  0.00  0.00    +0.000 C 
ATOM     22  C   UNL     1       7.573  11.863  25.060  0.00  0.00    +0.000 C 
ENDBRANCH  20  21
ENDBRANCH   8  20
ENDBRANCH   1  10
BRANCH   2  23
ATOM     23  C   UNL     1       8.499   7.410  18.086  0.00  0.00    +0.000 C 
BRANCH  23  24
ATOM     24  N   UNL     1       7.295   6.626  18.271  0.00  0.00    +0.000 N 
ATOM     25  C   UNL     1       7.081   5.775  19.310  0.00  0.00    +0.000 C 
ATOM     26  O   UNL     1       7.830   5.531  20.238  0.00  0.00    +0.000 OA
ATOM     27  N   UNL     1       5.882   5.133  19.106  0.00  0.00    +0.000 N 
ATOM     28  C   UNL     1       5.256   5.501  17.863  0.00  0.00    +0.000 C 
ATOM     29  C   UNL     1       6.325   6.454  17.325  0.00  0.00    +0.000 C 
ATOM     30  O   UNL     1       6.316   6.974  16.221  0.00  0.00    +0.000 OA
ATOM     31  H   UNL     1       5.587   4.375  19.707  0.00  0.00    +0.000 HD
BRANCH  28  32
ATOM     32  C   UNL     1       3.915   6.213  18.043  0.00  0.00    +0.000 C 
BRANCH  32  33
ATOM     33  C   UNL     1       2.849   5.334  18.667  0.00  0.00    +0.000 A 
ATOM     34  C   UNL     1       2.259   4.311  17.918  0.00  0.00    +0.000 A 
ATOM     35  C   UNL     1       1.286   3.484  18.487  0.00  0.00    +0.000 A 
ATOM     36  C   UNL     1       0.897   3.674  19.811  0.00  0.00    +0.000 A 
ATOM     37  C   UNL     1       1.476   4.695  20.567  0.00  0.00    +0.000 A 
ATOM     38  C   UNL     1       2.446   5.527  19.996  0.00  0.00    +0.000 A 
ENDBRANCH  32  33
ENDBRANCH  28  32
ENDBRANCH  23  24
ENDBRANCH   2  23
TORSDOF 10
ENDMDL
MODEL 7
REMARK VINA RESULT:      -7.3      2.554     10.646
REMARK  Name = 
REMARK  12 active torsions:
REMARK  status: ('A' for Active; 'I' for Inactive)
REMARK    1  A    between atoms: C_1  and  C_2
REMARK    2  A    between atoms: C_2  and  O_3
REMARK    3  A    between atoms: O_3  and  C_4
REMARK    4  A    between atoms: C_6  and  N_7
REMARK    5  A    between atoms: C_13  and  O_14
REMARK    6  A    between atoms: O_14  and  C_15
REMARK    7  A    between atoms: C_15  and  C_16
REMARK    8  A    between atoms: C_18  and  N_19
REMARK    9  A    between atoms: C_20  and  C_22
REMARK   10  A    between atoms: C_22  and  N_23
REMARK   11  A    between atoms: C_27  and  C_28
REMARK   12  A    between atoms: C_28  and  C_29
REMARK                            x       y       z     vdW  Elec       q    Type
REMARK                         _______ _______ _______ _____ _____    ______ ____
ROOT
ATOM      1  N   UNL     1       1.418  10.065  19.348  0.00  0.00    +0.000 N 
ATOM      2  C   UNL     1       0.341  10.623  18.667  0.00  0.00    +0.000 C 
ATOM      3  O   UNL     1      -0.567   9.994  18.127  0.00  0.00    +0.000 OA
ATOM      4  H   UNL     1       1.957  10.692  19.928  0.00  0.00    +0.000 HD
ENDROOT
BRANCH   1  10
ATOM      5  C   UNL     1       1.540   7.925  20.578  0.00  0.00    +0.000 A 
ATOM      6  C   UNL     1       2.010   6.597  20.640  0.00  0.00    +0.000 A 
ATOM      7  C   UNL     1       2.691   5.963  19.587  0.00  0.00    +0.000 A 
ATOM      8  C   UNL     1       2.832   6.722  18.406  0.00  0.00    +0.000 A 
ATOM      9  C   UNL     1       2.404   8.059  18.343  0.00  0.00    +0.000 A 
ATOM     10  C   UNL     1       1.757   8.686  19.418  0.00  0.00    +0.000 A 
BRANCH   7  11
ATOM     11  N   UNL     1       3.210   4.689  19.749  0.00  0.00    +0.000 N 
ATOM     12  C   UNL     1       4.609   4.334  19.476  0.00  0.00    +0.000 C 
ATOM     13  C   UNL     1       4.655   3.118  18.538  0.00  0.00    +0.000 C 
ATOM     14  O   UNL     1       3.929   2.003  19.084  0.00  0.00    +0.000 OA
ATOM     15  C   UNL     1       2.555   2.361  19.290  0.00  0.00    +0.000 C 
ATOM     16  C   UNL     1       2.404   3.558  20.243  0.00  0.00    +0.000 C 
ENDBRANCH   7  11
BRANCH   5  17
ATOM     17  O   UNL     1       0.981   8.318  21.768  0.00  0.00    +0.000 OA
BRANCH  17  19
ATOM     18  C   UNL     1      -0.625   9.660  22.942  0.00  0.00    +0.000 C 
ATOM     19  C   UNL     1      -0.385   8.710  21.782  0.00  0.00    +0.000 C 
ENDBRANCH  17  19
ENDBRANCH   5  17
BRANCH   8  20
ATOM     20  O   UNL     1       3.444   6.109  17.341  0.00  0.00    +0.000 OA
BRANCH  20  21
ATOM     21  C   UNL     1       4.608   6.712  16.787  0.00  0.00    +0.000 C 
ATOM     22  C   UNL     1       5.222   5.684  15.851  0.00  0.00    +0.000 C 
ENDBRANCH  20  21
ENDBRANCH   8  20
ENDBRANCH   1  10
BRANCH   2  23
ATOM     23  C   UNL     1       0.297  12.149  18.722  0.00  0.00    +0.000 C 
BRANCH  23  24
ATOM     24  N   UNL     1      -0.273  12.587  19.979  0.00  0.00    +0.000 N 
ATOM     25  C   UNL     1       0.437  12.775  21.124  0.00  0.00    +0.000 C 
ATOM     26  O   UNL     1       1.632  12.620  21.291  0.00  0.00    +0.000 OA
ATOM     27  N   UNL     1      -0.442  13.092  22.133  0.00  0.00    +0.000 N 
ATOM     28  C   UNL     1      -1.816  13.077  21.703  0.00  0.00    +0.000 C 
ATOM     29  C   UNL     1      -1.611  12.643  20.251  0.00  0.00    +0.000 C 
ATOM     30  O   UNL     1      -2.503  12.381  19.459  0.00  0.00    +0.000 OA
ATOM     31  H   UNL     1      -0.131  13.164  23.092  0.00  0.00    +0.000 HD
BRANCH  28  32
ATOM     32  C   UNL     1      -2.496  14.444  21.784  0.00  0.00    +0.000 C 
BRANCH  32  33
ATOM     33  C   UNL     1      -3.851  14.399  22.463  0.00  0.00    +0.000 A 
ATOM     34  C   UNL     1      -4.288  15.486  23.227  0.00  0.00    +0.000 A 
ATOM     35  C   UNL     1      -5.541  15.463  23.845  0.00  0.00    +0.000 A 
ATOM     36  C   UNL     1      -6.368  14.350  23.704  0.00  0.00    +0.000 A 
ATOM     37  C   UNL     1      -5.940  13.258  22.948  0.00  0.00    +0.000 A 
ATOM     38  C   UNL     1      -4.683  13.278  22.333  0.00  0.00    +0.000 A 
ENDBRANCH  32  33
ENDBRANCH  28  32
ENDBRANCH  23  24
ENDBRANCH   2  23
TORSDOF 10
ENDMDL
MODEL 8
REMARK VINA RESULT:      -7.3      3.305      5.252
REMARK  Name = 
REMARK  12 active torsions:
REMARK  status: ('A' for Active; 'I' for Inactive)
REMARK    1  A    between atoms: C_1  and  C_2
REMARK    2  A    between atoms: C_2  and  O_3
REMARK    3  A    between atoms: O_3  and  C_4
REMARK    4  A    between atoms: C_6  and  N_7
REMARK    5  A    between atoms: C_13  and  O_14
REMARK    6  A    between atoms: O_14  and  C_15
REMARK    7  A    between atoms: C_15  and  C_16
REMARK    8  A    between atoms: C_18  and  N_19
REMARK    9  A    between atoms: C_20  and  C_22
REMARK   10  A    between atoms: C_22  and  N_23
REMARK   11  A    between atoms: C_27  and  C_28
REMARK   12  A    between atoms: C_28  and  C_29
REMARK                            x       y       z     vdW  Elec       q    Type
REMARK                         _______ _______ _______ _____ _____    ______ ____
ROOT
ATOM      1  N   UNL     1       0.361   9.817  19.769  0.00  0.00    +0.000 N 
ATOM      2  C   UNL     1       0.512   8.810  20.715  0.00  0.00    +0.000 C 
ATOM      3  O   UNL     1      -0.400   8.281  21.349  0.00  0.00    +0.000 OA
ATOM      4  H   UNL     1       1.155   9.996  19.170  0.00  0.00    +0.000 HD
ENDROOT
BRANCH   1  10
ATOM      5  C   UNL     1      -1.312  11.558  20.298  0.00  0.00    +0.000 A 
ATOM      6  C   UNL     1      -2.565  12.145  20.027  0.00  0.00    +0.000 A 
ATOM      7  C   UNL     1      -3.384  11.769  18.948  0.00  0.00    +0.000 A 
ATOM      8  C   UNL     1      -2.848  10.787  18.089  0.00  0.00    +0.000 A 
ATOM      9  C   UNL     1      -1.620  10.165  18.368  0.00  0.00    +0.000 A 
ATOM     10  C   UNL     1      -0.833  10.530  19.470  0.00  0.00    +0.000 A 
BRANCH   7  11
ATOM     11  N   UNL     1      -4.645  12.320  18.795  0.00  0.00    +0.000 N 
ATOM     12  C   UNL     1      -5.316  13.128  19.822  0.00  0.00    +0.000 C 
ATOM     13  C   UNL     1      -6.721  12.563  20.081  0.00  0.00    +0.000 C 
ATOM     14  O   UNL     1      -7.497  12.506  18.871  0.00  0.00    +0.000 OA
ATOM     15  C   UNL     1      -6.845  11.669  17.905  0.00  0.00    +0.000 C 
ATOM     16  C   UNL     1      -5.434  12.172  17.559  0.00  0.00    +0.000 C 
ENDBRANCH   7  11
BRANCH   5  17
ATOM     17  O   UNL     1      -0.760  12.056  21.450  0.00  0.00    +0.000 OA
BRANCH  17  19
ATOM     18  C   UNL     1       1.250  13.233  20.872  0.00  0.00    +0.000 C 
ATOM     19  C   UNL     1      -0.163  13.345  21.417  0.00  0.00    +0.000 C 
ENDBRANCH  17  19
ENDBRANCH   5  17
BRANCH   8  20
ATOM     20  O   UNL     1      -3.601  10.439  16.995  0.00  0.00    +0.000 OA
BRANCH  20  21
ATOM     21  C   UNL     1      -2.969   9.739  15.929  0.00  0.00    +0.000 C 
ATOM     22  C   UNL     1      -3.477  10.365  14.640  0.00  0.00    +0.000 C 
ENDBRANCH  20  21
ENDBRANCH   8  20
ENDBRANCH   1  10
BRANCH   2  23
ATOM     23  C   UNL     1       1.945   8.297  20.851  0.00  0.00    +0.000 C 
BRANCH  23  24
ATOM     24  N   UNL     1       2.212   7.288  19.846  0.00  0.00    +0.000 N 
ATOM     25  C   UNL     1       2.527   7.555  18.551  0.00  0.00    +0.000 C 
ATOM     26  O   UNL     1       2.642   8.646  18.022  0.00  0.00    +0.000 OA
ATOM     27  N   UNL     1       2.613   6.363  17.871  0.00  0.00    +0.000 N 
ATOM     28  C   UNL     1       2.300   5.225  18.695  0.00  0.00    +0.000 C 
ATOM     29  C   UNL     1       1.958   5.954  19.995  0.00  0.00    +0.000 C 
ATOM     30  O   UNL     1       1.521   5.428  21.006  0.00  0.00    +0.000 OA
ATOM     31  H   UNL     1       2.730   6.342  16.866  0.00  0.00    +0.000 HD
BRANCH  28  32
ATOM     32  C   UNL     1       3.475   4.267  18.886  0.00  0.00    +0.000 C 
BRANCH  32  33
ATOM     33  C   UNL     1       4.678   4.617  18.032  0.00  0.00    +0.000 A 
ATOM     34  C   UNL     1       5.702   5.412  18.556  0.00  0.00    +0.000 A 
ATOM     35  C   UNL     1       6.822   5.730  17.784  0.00  0.00    +0.000 A 
ATOM     36  C   UNL     1       6.928   5.253  16.479  0.00  0.00    +0.000 A 
ATOM     37  C   UNL     1       5.910   4.463  15.943  0.00  0.00    +0.000 A 
ATOM     38  C   UNL     1       4.784   4.149  16.715  0.00  0.00    +0.000 A 
ENDBRANCH  32  33
ENDBRANCH  28  32
ENDBRANCH  23  24
ENDBRANCH   2  23
TORSDOF 10
ENDMDL
MODEL 9
REMARK VINA RESULT:      -7.3      2.423      9.629
REMARK  Name = 
REMARK  12 active torsions:
REMARK  status: ('A' for Active; 'I' for Inactive)
REMARK    1  A    between atoms: C_1  and  C_2
REMARK    2  A    between atoms: C_2  and  O_3
REMARK    3  A    between atoms: O_3  and  C_4
REMARK    4  A    between atoms: C_6  and  N_7
REMARK    5  A    between atoms: C_13  and  O_14
REMARK    6  A    between atoms: O_14  and  C_15
REMARK    7  A    between atoms: C_15  and  C_16
REMARK    8  A    between atoms: C_18  and  N_19
REMARK    9  A    between atoms: C_20  and  C_22
REMARK   10  A    between atoms: C_22  and  N_23
REMARK   11  A    between atoms: C_27  and  C_28
REMARK   12  A    between atoms: C_28  and  C_29
REMARK                            x       y       z     vdW  Elec       q    Type
REMARK                         _______ _______ _______ _____ _____    ______ ____
ROOT
ATOM      1  N   UNL     1       0.155  10.000  20.113  0.00  0.00    +0.000 N 
ATOM      2  C   UNL     1       0.063  10.556  21.384  0.00  0.00    +0.000 C 
ATOM      3  O   UNL     1       0.887  10.419  22.286  0.00  0.00    +0.000 OA
ATOM      4  H   UNL     1      -0.467  10.375  19.411  0.00  0.00    +0.000 HD
ENDROOT
BRANCH   1  10
ATOM      5  C   UNL     1       1.880   9.262  18.503  0.00  0.00    +0.000 A 
ATOM      6  C   UNL     1       2.730   8.240  18.034  0.00  0.00    +0.000 A 
ATOM      7  C   UNL     1       2.881   6.999  18.675  0.00  0.00    +0.000 A 
ATOM      8  C   UNL     1       2.166   6.843  19.880  0.00  0.00    +0.000 A 
ATOM      9  C   UNL     1       1.285   7.836  20.339  0.00  0.00    +0.000 A 
ATOM     10  C   UNL     1       1.121   9.056  19.666  0.00  0.00    +0.000 A 
BRANCH   7  11
ATOM     11  N   UNL     1       3.660   6.004  18.108  0.00  0.00    +0.000 N 
ATOM     12  C   UNL     1       3.113   4.817  17.438  0.00  0.00    +0.000 C 
ATOM     13  C   UNL     1       3.753   3.552  18.032  0.00  0.00    +0.000 C 
ATOM     14  O   UNL     1       5.188   3.592  17.934  0.00  0.00    +0.000 OA
ATOM     15  C   UNL     1       5.699   4.732  18.642  0.00  0.00    +0.000 C 
ATOM     16  C   UNL     1       5.133   6.054  18.099  0.00  0.00    +0.000 C 
ENDBRANCH   7  11
BRANCH   5  17
ATOM     17  O   UNL     1       1.862  10.335  17.649  0.00  0.00    +0.000 OA
BRANCH  17  19
ATOM     18  C   UNL     1       2.849  12.507  17.916  0.00  0.00    +0.000 C 
ATOM     19  C   UNL     1       1.639  11.631  18.188  0.00  0.00    +0.000 C 
ENDBRANCH  17  19
ENDBRANCH   5  17
BRANCH   8  20
ATOM     20  O   UNL     1       2.338   5.662  20.558  0.00  0.00    +0.000 OA
BRANCH  20  21
ATOM     21  C   UNL     1       1.253   4.741  20.607  0.00  0.00    +0.000 C 
ATOM     22  C   UNL     1       1.777   3.492  21.296  0.00  0.00    +0.000 C 
ENDBRANCH  20  21
ENDBRANCH   8  20
ENDBRANCH   1  10
BRANCH   2  23
ATOM     23  C   UNL     1      -1.138  11.483  21.568  0.00  0.00    +0.000 C 
BRANCH  23  24
ATOM     24  N   UNL     1      -0.741  12.861  21.364  0.00  0.00    +0.000 N 
ATOM     25  C   UNL     1      -0.482  13.744  22.365  0.00  0.00    +0.000 C 
ATOM     26  O   UNL     1      -0.529  13.545  23.565  0.00  0.00    +0.000 OA
ATOM     27  N   UNL     1      -0.234  14.975  21.803  0.00  0.00    +0.000 N 
ATOM     28  C   UNL     1      -0.374  14.975  20.371  0.00  0.00    +0.000 C 
ATOM     29  C   UNL     1      -0.801  13.520  20.169  0.00  0.00    +0.000 C 
ATOM     30  O   UNL     1      -1.147  13.026  19.108  0.00  0.00    +0.000 OA
ATOM     31  H   UNL     1      -0.127  15.799  22.380  0.00  0.00    +0.000 HD
BRANCH  28  32
ATOM     32  C   UNL     1       0.929  15.280  19.631  0.00  0.00    +0.000 C 
BRANCH  32  33
ATOM     33  C   UNL     1       0.788  16.387  18.604  0.00  0.00    +0.000 A 
ATOM     34  C   UNL     1       1.918  16.872  17.938  0.00  0.00    +0.000 A 
ATOM     35  C   UNL     1       1.800  17.881  16.979  0.00  0.00    +0.000 A 
ATOM     36  C   UNL     1       0.547  18.413  16.677  0.00  0.00    +0.000 A 
ATOM     37  C   UNL     1      -0.587  17.940  17.338  0.00  0.00    +0.000 A 
ATOM     38  C   UNL     1      -0.468  16.933  18.304  0.00  0.00    +0.000 A 
ENDBRANCH  32  33
ENDBRANCH  28  32
ENDBRANCH  23  24
ENDBRANCH   2  23
TORSDOF 10
ENDMDL
