MODEL 1
REMARK VINA RESULT:      -8.6      0.000      0.000
REMARK  Name = 
REMARK  4 active torsions:
REMARK  status: ('A' for Active; 'I' for Inactive)
REMARK    1  A    between atoms: N_2  and  C_4
REMARK    2  A    between atoms: C_7  and  N_8
REMARK    3  A    between atoms: N_11  and  C_12
REMARK    4  A    between atoms: C_12  and  C_13
REMARK                            x       y       z     vdW  Elec       q    Type
REMARK                         _______ _______ _______ _____ _____    ______ ____
ROOT
ATOM      1  N   UNL     1       3.024   6.687  18.779  0.00  0.00    +0.000 N 
ATOM      2  C   UNL     1       4.020   6.889  17.711  0.00  0.00    +0.000 C 
ATOM      3  C   UNL     1       5.237   5.956  17.963  0.00  0.00    +0.000 C 
ATOM      4  N   UNL     1       4.932   4.513  18.099  0.00  0.00    +0.000 NA
ATOM      5  C   UNL     1       3.810   4.347  19.057  0.00  0.00    +0.000 C 
ATOM      6  C   UNL     1       2.581   5.284  18.892  0.00  0.00    +0.000 C 
ENDROOT
BRANCH   1  10
ATOM      7  C   UNL     1       0.443   9.784  19.981  0.00  0.00    +0.000 A 
ATOM      8  C   UNL     1       0.856   9.733  18.650  0.00  0.00    +0.000 A 
ATOM      9  C   UNL     1       1.698   8.688  18.234  0.00  0.00    +0.000 A 
ATOM     10  C   UNL     1       2.125   7.692  19.122  0.00  0.00    +0.000 A 
ATOM     11  C   UNL     1       1.664   7.778  20.446  0.00  0.00    +0.000 A 
ATOM     12  C   UNL     1       0.839   8.817  20.893  0.00  0.00    +0.000 A 
BRANCH   7  14
ATOM     13  O   UNL     1      -0.346  11.239  21.612  0.00  0.00    +0.000 OA
ATOM     14  N   UNL     1      -0.412  10.891  20.433  0.00  0.00    +0.000 N 
ATOM     15  O   UNL     1      -1.184  11.410  19.606  0.00  0.00    +0.000 OA
ENDBRANCH   7  14
ENDBRANCH   1  10
BRANCH   4  16
ATOM     16  C   UNL     1       4.757   3.807  16.807  0.00  0.00    +0.000 C 
BRANCH  16  17
ATOM     17  C   UNL     1       5.875   4.203  15.862  0.00  0.00    +0.000 A 
ATOM     18  C   UNL     1       7.139   4.588  16.282  0.00  0.00    +0.000 A 
ATOM     19  N   UNL     1       7.593   5.377  15.268  0.00  0.00    +0.000 N 
ATOM     20  C   UNL     1       7.186   4.810  14.096  0.00  0.00    +0.000 A 
ATOM     21  C   UNL     1       7.733   4.904  12.804  0.00  0.00    +0.000 A 
ATOM     22  C   UNL     1       7.084   4.197  11.795  0.00  0.00    +0.000 A 
ATOM     23  C   UNL     1       5.895   3.516  12.065  0.00  0.00    +0.000 A 
ATOM     24  C   UNL     1       5.339   3.483  13.353  0.00  0.00    +0.000 A 
ATOM     25  C   UNL     1       6.018   4.112  14.421  0.00  0.00    +0.000 A 
ATOM     26  H   UNL     1       8.076   6.259  15.371  0.00  0.00    +0.000 HD
ENDBRANCH  16  17
ENDBRANCH   4  16
TORSDOF 4
ENDMDL
MODEL 2
REMARK VINA RESULT:      -8.5      0.430      1.053
REMARK  Name = 
REMARK  4 active torsions:
REMARK  status: ('A' for Active; 'I' for Inactive)
REMARK    1  A    between atoms: N_2  and  C_4
REMARK    2  A    between atoms: C_7  and  N_8
REMARK    3  A    between atoms: N_11  and  C_12
REMARK    4  A    between atoms: C_12  and  C_13
REMARK                            x       y       z     vdW  Elec       q    Type
REMARK                         _______ _______ _______ _____ _____    ______ ____
ROOT
ATOM      1  N   UNL     1       2.984   7.051  18.713  0.00  0.00    +0.000 N 
ATOM      2  C   UNL     1       3.887   7.221  17.561  0.00  0.00    +0.000 C 
ATOM      3  C   UNL     1       5.155   6.348  17.771  0.00  0.00    +0.000 C 
ATOM      4  N   UNL     1       4.918   4.907  18.015  0.00  0.00    +0.000 NA
ATOM      5  C   UNL     1       3.879   4.762  19.066  0.00  0.00    +0.000 C 
ATOM      6  C   UNL     1       2.606   5.644  18.943  0.00  0.00    +0.000 C 
ENDROOT
BRANCH   1  10
ATOM      7  C   UNL     1       0.100   9.978  19.620  0.00  0.00    +0.000 A 
ATOM      8  C   UNL     1       0.569   9.157  20.646  0.00  0.00    +0.000 A 
ATOM      9  C   UNL     1       1.550   8.194  20.357  0.00  0.00    +0.000 A 
ATOM     10  C   UNL     1       2.075   8.044  19.066  0.00  0.00    +0.000 A 
ATOM     11  C   UNL     1       1.585   8.910  18.075  0.00  0.00    +0.000 A 
ATOM     12  C   UNL     1       0.595   9.867  18.330  0.00  0.00    +0.000 A 
BRANCH   7  14
ATOM     13  O   UNL     1      -1.090  11.352  21.067  0.00  0.00    +0.000 OA
ATOM     14  N   UNL     1      -0.949  10.967  19.906  0.00  0.00    +0.000 N 
ATOM     15  O   UNL     1      -1.664  11.351  18.963  0.00  0.00    +0.000 OA
ENDBRANCH   7  14
ENDBRANCH   1  10
BRANCH   4  16
ATOM     16  C   UNL     1       4.673   4.117  16.784  0.00  0.00    +0.000 C 
BRANCH  16  17
ATOM     17  C   UNL     1       5.801   4.357  15.800  0.00  0.00    +0.000 A 
ATOM     18  C   UNL     1       7.099   4.670  16.176  0.00  0.00    +0.000 A 
ATOM     19  N   UNL     1       7.595   5.348  15.103  0.00  0.00    +0.000 N 
ATOM     20  C   UNL     1       7.125   4.733  13.979  0.00  0.00    +0.000 A 
ATOM     21  C   UNL     1       7.654   4.693  12.677  0.00  0.00    +0.000 A 
ATOM     22  C   UNL     1       6.935   3.969  11.730  0.00  0.00    +0.000 A 
ATOM     23  C   UNL     1       5.702   3.405  12.062  0.00  0.00    +0.000 A 
ATOM     24  C   UNL     1       5.167   3.506  13.356  0.00  0.00    +0.000 A 
ATOM     25  C   UNL     1       5.912   4.153  14.368  0.00  0.00    +0.000 A 
ATOM     26  H   UNL     1       8.146   6.194  15.137  0.00  0.00    +0.000 HD
ENDBRANCH  16  17
ENDBRANCH   4  16
TORSDOF 4
ENDMDL
MODEL 3
REMARK VINA RESULT:      -7.7      4.716      9.566
REMARK  Name = 
REMARK  4 active torsions:
REMARK  status: ('A' for Active; 'I' for Inactive)
REMARK    1  A    between atoms: N_2  and  C_4
REMARK    2  A    between atoms: C_7  and  N_8
REMARK    3  A    between atoms: N_11  and  C_12
REMARK    4  A    between atoms: C_12  and  C_13
REMARK                            x       y       z     vdW  Elec       q    Type
REMARK                         _______ _______ _______ _____ _____    ______ ____
ROOT
ATOM      1  N   UNL     1       1.905   7.699  19.382  0.00  0.00    +0.000 N 
ATOM      2  C   UNL     1       2.236   8.657  18.311  0.00  0.00    +0.000 C 
ATOM      3  C   UNL     1       1.052   9.645  18.125  0.00  0.00    +0.000 C 
ATOM      4  N   UNL     1       0.620  10.378  19.337  0.00  0.00    +0.000 NA
ATOM      5  C   UNL     1       0.455   9.410  20.450  0.00  0.00    +0.000 C 
ATOM      6  C   UNL     1       1.581   8.360  20.661  0.00  0.00    +0.000 C 
ENDROOT
BRANCH   1  10
ATOM      7  C   UNL     1       3.461   3.791  19.493  0.00  0.00    +0.000 A 
ATOM      8  C   UNL     1       3.935   4.676  18.524  0.00  0.00    +0.000 A 
ATOM      9  C   UNL     1       3.440   5.990  18.496  0.00  0.00    +0.000 A 
ATOM     10  C   UNL     1       2.487   6.436  19.422  0.00  0.00    +0.000 A 
ATOM     11  C   UNL     1       2.058   5.512  20.389  0.00  0.00    +0.000 A 
ATOM     12  C   UNL     1       2.521   4.192  20.431  0.00  0.00    +0.000 A 
BRANCH   7  14
ATOM     13  O   UNL     1       3.409   1.584  18.769  0.00  0.00    +0.000 OA
ATOM     14  N   UNL     1       3.950   2.405  19.510  0.00  0.00    +0.000 N 
ATOM     15  O   UNL     1       4.873   2.120  20.295  0.00  0.00    +0.000 OA
ENDBRANCH   7  14
ENDBRANCH   1  10
BRANCH   4  16
ATOM     16  C   UNL     1       1.455  11.560  19.659  0.00  0.00    +0.000 C 
BRANCH  16  17
ATOM     17  C   UNL     1       0.636  12.821  19.467  0.00  0.00    +0.000 A 
ATOM     18  C   UNL     1      -0.678  12.959  19.891  0.00  0.00    +0.000 A 
ATOM     19  N   UNL     1      -1.190  13.910  19.060  0.00  0.00    +0.000 N 
ATOM     20  C   UNL     1      -0.220  14.851  18.869  0.00  0.00    +0.000 A 
ATOM     21  C   UNL     1      -0.329  16.210  18.526  0.00  0.00    +0.000 A 
ATOM     22  C   UNL     1       0.861  16.923  18.404  0.00  0.00    +0.000 A 
ATOM     23  C   UNL     1       2.089  16.270  18.524  0.00  0.00    +0.000 A 
ATOM     24  C   UNL     1       2.171  14.898  18.812  0.00  0.00    +0.000 A 
ATOM     25  C   UNL     1       0.986  14.161  19.034  0.00  0.00    +0.000 A 
ATOM     26  H   UNL     1      -2.094  13.882  18.609  0.00  0.00    +0.000 HD
ENDBRANCH  16  17
ENDBRANCH   4  16
TORSDOF 4
ENDMDL
MODEL 4
REMARK VINA RESULT:      -7.6      1.222      1.984
REMARK  Name = 
REMARK  4 active torsions:
REMARK  status: ('A' for Active; 'I' for Inactive)
REMARK    1  A    between atoms: N_2  and  C_4
REMARK    2  A    between atoms: C_7  and  N_8
REMARK    3  A    between atoms: N_11  and  C_12
REMARK    4  A    between atoms: C_12  and  C_13
REMARK                            x       y       z     vdW  Elec       q    Type
REMARK                         _______ _______ _______ _____ _____    ______ ____
ROOT
ATOM      1  N   UNL     1       2.325   6.854  19.383  0.00  0.00    +0.000 N 
ATOM      2  C   UNL     1       2.422   5.550  20.063  0.00  0.00    +0.000 C 
ATOM      3  C   UNL     1       2.433   4.417  18.999  0.00  0.00    +0.000 C 
ATOM      4  N   UNL     1       3.478   4.517  17.955  0.00  0.00    +0.000 NA
ATOM      5  C   UNL     1       3.472   5.894  17.401  0.00  0.00    +0.000 C 
ATOM      6  C   UNL     1       3.411   7.075  18.410  0.00  0.00    +0.000 C 
ENDROOT
BRANCH   1  10
ATOM      7  C   UNL     1       0.513  10.196  21.187  0.00  0.00    +0.000 A 
ATOM      8  C   UNL     1       0.857   9.106  21.986  0.00  0.00    +0.000 A 
ATOM      9  C   UNL     1       1.485   7.996  21.396  0.00  0.00    +0.000 A 
ATOM     10  C   UNL     1       1.782   7.961  20.027  0.00  0.00    +0.000 A 
ATOM     11  C   UNL     1       1.434   9.093  19.271  0.00  0.00    +0.000 A 
ATOM     12  C   UNL     1       0.792  10.206  19.828  0.00  0.00    +0.000 A 
BRANCH   7  14
ATOM     13  O   UNL     1       0.405  12.436  21.794  0.00  0.00    +0.000 OA
ATOM     14  N   UNL     1      -0.172  11.348  21.788  0.00  0.00    +0.000 N 
ATOM     15  O   UNL     1      -1.296  11.165  22.289  0.00  0.00    +0.000 OA
ENDBRANCH   7  14
ENDBRANCH   1  10
BRANCH   4  16
ATOM     16  C   UNL     1       4.809   4.024  18.382  0.00  0.00    +0.000 C 
BRANCH  16  17
ATOM     17  C   UNL     1       5.852   4.447  17.366  0.00  0.00    +0.000 A 
ATOM     18  C   UNL     1       7.123   4.888  17.704  0.00  0.00    +0.000 A 
ATOM     19  N   UNL     1       7.484   5.677  16.653  0.00  0.00    +0.000 N 
ATOM     20  C   UNL     1       7.031   5.075  15.515  0.00  0.00    +0.000 A 
ATOM     21  C   UNL     1       7.495   5.170  14.192  0.00  0.00    +0.000 A 
ATOM     22  C   UNL     1       6.816   4.421  13.234  0.00  0.00    +0.000 A 
ATOM     23  C   UNL     1       5.674   3.699  13.584  0.00  0.00    +0.000 A 
ATOM     24  C   UNL     1       5.197   3.666  14.904  0.00  0.00    +0.000 A 
ATOM     25  C   UNL     1       5.912   4.338  15.920  0.00  0.00    +0.000 A 
ATOM     26  H   UNL     1       7.937   6.579  16.714  0.00  0.00    +0.000 HD
ENDBRANCH  16  17
ENDBRANCH   4  16
TORSDOF 4
ENDMDL
MODEL 5
REMARK VINA RESULT:      -7.6      1.635      2.716
REMARK  Name = 
REMARK  4 active torsions:
REMARK  status: ('A' for Active; 'I' for Inactive)
REMARK    1  A    between atoms: N_2  and  C_4
REMARK    2  A    between atoms: C_7  and  N_8
REMARK    3  A    between atoms: N_11  and  C_12
REMARK    4  A    between atoms: C_12  and  C_13
REMARK                            x       y       z     vdW  Elec       q    Type
REMARK                         _______ _______ _______ _____ _____    ______ ____
ROOT
ATOM      1  N   UNL     1       1.833   6.954  19.862  0.00  0.00    +0.000 N 
ATOM      2  C   UNL     1       1.843   5.780  20.753  0.00  0.00    +0.000 C 
ATOM      3  C   UNL     1       1.694   4.489  19.901  0.00  0.00    +0.000 C 
ATOM      4  N   UNL     1       2.689   4.306  18.819  0.00  0.00    +0.000 NA
ATOM      5  C   UNL     1       2.783   5.563  18.036  0.00  0.00    +0.000 C 
ATOM      6  C   UNL     1       2.884   6.897  18.828  0.00  0.00    +0.000 C 
ENDROOT
BRANCH   1  10
ATOM      7  C   UNL     1       0.443  10.722  21.114  0.00  0.00    +0.000 A 
ATOM      8  C   UNL     1       0.657   9.733  22.073  0.00  0.00    +0.000 A 
ATOM      9  C   UNL     1       1.146   8.479  21.667  0.00  0.00    +0.000 A 
ATOM     10  C   UNL     1       1.429   8.203  20.323  0.00  0.00    +0.000 A 
ATOM     11  C   UNL     1       1.216   9.240  19.400  0.00  0.00    +0.000 A 
ATOM     12  C   UNL     1       0.714  10.492  19.774  0.00  0.00    +0.000 A 
BRANCH   7  14
ATOM     13  O   UNL     1      -1.319  12.154  21.605  0.00  0.00    +0.000 OA
ATOM     14  N   UNL     1      -0.098  12.025  21.525  0.00  0.00    +0.000 N 
ATOM     15  O   UNL     1       0.707  12.948  21.750  0.00  0.00    +0.000 OA
ENDBRANCH   7  14
ENDBRANCH   1  10
BRANCH   4  16
ATOM     16  C   UNL     1       3.989   3.760  19.278  0.00  0.00    +0.000 C 
BRANCH  16  17
ATOM     17  C   UNL     1       5.115   4.454  18.537  0.00  0.00    +0.000 A 
ATOM     18  C   UNL     1       6.133   5.157  19.164  0.00  0.00    +0.000 A 
ATOM     19  N   UNL     1       6.540   6.052  18.220  0.00  0.00    +0.000 N 
ATOM     20  C   UNL     1       6.520   5.413  17.015  0.00  0.00    +0.000 A 
ATOM     21  C   UNL     1       7.250   5.668  15.841  0.00  0.00    +0.000 A 
ATOM     22  C   UNL     1       7.009   4.826  14.758  0.00  0.00    +0.000 A 
ATOM     23  C   UNL     1       6.015   3.849  14.833  0.00  0.00    +0.000 A 
ATOM     24  C   UNL     1       5.260   3.651  16.000  0.00  0.00    +0.000 A 
ATOM     25  C   UNL     1       5.540   4.424  17.149  0.00  0.00    +0.000 A 
ATOM     26  H   UNL     1       6.744   7.030  18.376  0.00  0.00    +0.000 HD
ENDBRANCH  16  17
ENDBRANCH   4  16
TORSDOF 4
ENDMDL
MODEL 6
REMARK VINA RESULT:      -7.6      1.259      1.948
REMARK  Name = 
REMARK  4 active torsions:
REMARK  status: ('A' for Active; 'I' for Inactive)
REMARK    1  A    between atoms: N_2  and  C_4
REMARK    2  A    between atoms: C_7  and  N_8
REMARK    3  A    between atoms: N_11  and  C_12
REMARK    4  A    between atoms: C_12  and  C_13
REMARK                            x       y       z     vdW  Elec       q    Type
REMARK                         _______ _______ _______ _____ _____    ______ ____
ROOT
ATOM      1  N   UNL     1       2.073   7.188  19.572  0.00  0.00    +0.000 N 
ATOM      2  C   UNL     1       2.389   6.011  20.401  0.00  0.00    +0.000 C 
ATOM      3  C   UNL     1       2.584   4.775  19.480  0.00  0.00    +0.000 C 
ATOM      4  N   UNL     1       3.594   4.918  18.406  0.00  0.00    +0.000 NA
ATOM      5  C   UNL     1       3.356   6.197  17.691  0.00  0.00    +0.000 C 
ATOM      6  C   UNL     1       3.103   7.465  18.553  0.00  0.00    +0.000 C 
ENDROOT
BRANCH   1  10
ATOM      7  C   UNL     1       0.052  10.445  21.309  0.00  0.00    +0.000 A 
ATOM      8  C   UNL     1       0.412  10.518  19.963  0.00  0.00    +0.000 A 
ATOM      9  C   UNL     1       1.065   9.425  19.368  0.00  0.00    +0.000 A 
ATOM     10  C   UNL     1       1.355   8.261  20.093  0.00  0.00    +0.000 A 
ATOM     11  C   UNL     1       0.952   8.230  21.438  0.00  0.00    +0.000 A 
ATOM     12  C   UNL     1       0.316   9.310  22.061  0.00  0.00    +0.000 A 
BRANCH   7  14
ATOM     13  O   UNL     1      -0.581  11.673  23.176  0.00  0.00    +0.000 OA
ATOM     14  N   UNL     1      -0.603  11.595  21.947  0.00  0.00    +0.000 N 
ATOM     15  O   UNL     1      -1.173  12.425  21.216  0.00  0.00    +0.000 OA
ENDBRANCH   7  14
ENDBRANCH   1  10
BRANCH   4  16
ATOM     16  C   UNL     1       4.990   4.707  18.856  0.00  0.00    +0.000 C 
BRANCH  16  17
ATOM     17  C   UNL     1       5.939   5.012  17.712  0.00  0.00    +0.000 A 
ATOM     18  C   UNL     1       7.185   5.597  17.880  0.00  0.00    +0.000 A 
ATOM     19  N   UNL     1       7.422   6.206  16.683  0.00  0.00    +0.000 N 
ATOM     20  C   UNL     1       6.960   5.375  15.704  0.00  0.00    +0.000 A 
ATOM     21  C   UNL     1       7.344   5.260  14.356  0.00  0.00    +0.000 A 
ATOM     22  C   UNL     1       6.679   4.302  13.595  0.00  0.00    +0.000 A 
ATOM     23  C   UNL     1       5.620   3.577  14.145  0.00  0.00    +0.000 A 
ATOM     24  C   UNL     1       5.219   3.750  15.479  0.00  0.00    +0.000 A 
ATOM     25  C   UNL     1       5.930   4.646  16.308  0.00  0.00    +0.000 A 
ATOM     26  H   UNL     1       7.801   7.133  16.553  0.00  0.00    +0.000 HD
ENDBRANCH  16  17
ENDBRANCH   4  16
TORSDOF 4
ENDMDL
MODEL 7
REMARK VINA RESULT:      -7.5      4.783      9.816
REMARK  Name = 
REMARK  4 active torsions:
REMARK  status: ('A' for Active; 'I' for Inactive)
REMARK    1  A    between atoms: N_2  and  C_4
REMARK    2  A    between atoms: C_7  and  N_8
REMARK    3  A    between atoms: N_11  and  C_12
REMARK    4  A    between atoms: C_12  and  C_13
REMARK                            x       y       z     vdW  Elec       q    Type
REMARK                         _______ _______ _______ _____ _____    ______ ____
ROOT
ATOM      1  N   UNL     1       2.350   7.327  19.307  0.00  0.00    +0.000 N 
ATOM      2  C   UNL     1       1.355   7.790  20.291  0.00  0.00    +0.000 C 
ATOM      3  C   UNL     1       1.377   9.342  20.349  0.00  0.00    +0.000 C 
ATOM      4  N   UNL     1       1.173  10.044  19.061  0.00  0.00    +0.000 NA
ATOM      5  C   UNL     1       2.070   9.445  18.041  0.00  0.00    +0.000 C 
ATOM      6  C   UNL     1       2.134   7.894  17.962  0.00  0.00    +0.000 C 
ENDROOT
BRANCH   1  10
ATOM      7  C   UNL     1       3.880   3.416  19.565  0.00  0.00    +0.000 A 
ATOM      8  C   UNL     1       4.477   4.314  18.681  0.00  0.00    +0.000 A 
ATOM      9  C   UNL     1       3.990   5.629  18.606  0.00  0.00    +0.000 A 
ATOM     10  C   UNL     1       2.922   6.062  19.405  0.00  0.00    +0.000 A 
ATOM     11  C   UNL     1       2.370   5.126  20.293  0.00  0.00    +0.000 A 
ATOM     12  C   UNL     1       2.824   3.804  20.377  0.00  0.00    +0.000 A 
BRANCH   7  14
ATOM     13  O   UNL     1       5.133   1.718  20.535  0.00  0.00    +0.000 OA
ATOM     14  N   UNL     1       4.363   2.029  19.627  0.00  0.00    +0.000 N 
ATOM     15  O   UNL     1       3.990   1.239  18.741  0.00  0.00    +0.000 OA
ENDBRANCH   7  14
ENDBRANCH   1  10
BRANCH   4  16
ATOM     16  C   UNL     1      -0.247  10.157  18.651  0.00  0.00    +0.000 C 
BRANCH  16  17
ATOM     17  C   UNL     1      -0.826  11.449  19.195  0.00  0.00    +0.000 A 
ATOM     18  C   UNL     1      -1.467  12.396  18.411  0.00  0.00    +0.000 A 
ATOM     19  N   UNL     1      -1.296  13.559  19.101  0.00  0.00    +0.000 N 
ATOM     20  C   UNL     1      -1.434  13.271  20.427  0.00  0.00    +0.000 A 
ATOM     21  C   UNL     1      -1.817  14.095  21.500  0.00  0.00    +0.000 A 
ATOM     22  C   UNL     1      -1.868  13.502  22.759  0.00  0.00    +0.000 A 
ATOM     23  C   UNL     1      -1.459  12.178  22.931  0.00  0.00    +0.000 A 
ATOM     24  C   UNL     1      -1.026  11.392  21.851  0.00  0.00    +0.000 A 
ATOM     25  C   UNL     1      -1.049  11.931  20.545  0.00  0.00    +0.000 A 
ATOM     26  H   UNL     1      -1.039  14.453  18.706  0.00  0.00    +0.000 HD
ENDBRANCH  16  17
ENDBRANCH   4  16
TORSDOF 4
ENDMDL
MODEL 8
REMARK VINA RESULT:      -7.5      1.600      2.466
REMARK  Name = 
REMARK  4 active torsions:
REMARK  status: ('A' for Active; 'I' for Inactive)
REMARK    1  A    between atoms: N_2  and  C_4
REMARK    2  A    between atoms: C_7  and  N_8
REMARK    3  A    between atoms: N_11  and  C_12
REMARK    4  A    between atoms: C_12  and  C_13
REMARK                            x       y       z     vdW  Elec       q    Type
REMARK                         _______ _______ _______ _____ _____    ______ ____
ROOT
ATOM      1  N   UNL     1       1.939   6.890  19.841  0.00  0.00    +0.000 N 
ATOM      2  C   UNL     1       2.083   5.779  20.798  0.00  0.00    +0.000 C 
ATOM      3  C   UNL     1       2.052   4.431  20.027  0.00  0.00    +0.000 C 
ATOM      4  N   UNL     1       3.041   4.284  18.935  0.00  0.00    +0.000 NA
ATOM      5  C   UNL     1       2.995   5.495  18.078  0.00  0.00    +0.000 C 
ATOM      6  C   UNL     1       2.973   6.877  18.788  0.00  0.00    +0.000 C 
ENDROOT
BRANCH   1  10
ATOM      7  C   UNL     1       0.519  10.611  21.199  0.00  0.00    +0.000 A 
ATOM      8  C   UNL     1       0.840  10.466  19.849  0.00  0.00    +0.000 A 
ATOM      9  C   UNL     1       1.291   9.220  19.382  0.00  0.00    +0.000 A 
ATOM     10  C   UNL     1       1.418   8.118  20.238  0.00  0.00    +0.000 A 
ATOM     11  C   UNL     1       1.063   8.310  21.583  0.00  0.00    +0.000 A 
ATOM     12  C   UNL     1       0.627   9.544  22.080  0.00  0.00    +0.000 A 
BRANCH   7  14
ATOM     13  O   UNL     1       0.214  12.903  20.977  0.00  0.00    +0.000 OA
ATOM     14  N   UNL     1       0.077  11.918  21.703  0.00  0.00    +0.000 N 
ATOM     15  O   UNL     1      -0.394  11.973  22.854  0.00  0.00    +0.000 OA
ENDBRANCH   7  14
ENDBRANCH   1  10
BRANCH   4  16
ATOM     16  C   UNL     1       4.397   3.899  19.396  0.00  0.00    +0.000 C 
BRANCH  16  17
ATOM     17  C   UNL     1       5.436   4.580  18.525  0.00  0.00    +0.000 A 
ATOM     18  C   UNL     1       6.482   5.340  19.025  0.00  0.00    +0.000 A 
ATOM     19  N   UNL     1       6.781   6.194  18.005  0.00  0.00    +0.000 N 
ATOM     20  C   UNL     1       6.677   5.491  16.840  0.00  0.00    +0.000 A 
ATOM     21  C   UNL     1       7.296   5.700  15.595  0.00  0.00    +0.000 A 
ATOM     22  C   UNL     1       6.988   4.797  14.582  0.00  0.00    +0.000 A 
ATOM     23  C   UNL     1       6.033   3.801  14.793  0.00  0.00    +0.000 A 
ATOM     24  C   UNL     1       5.387   3.647  16.030  0.00  0.00    +0.000 A 
ATOM     25  C   UNL     1       5.741   4.486  17.109  0.00  0.00    +0.000 A 
ATOM     26  H   UNL     1       6.969   7.183  18.093  0.00  0.00    +0.000 HD
ENDBRANCH  16  17
ENDBRANCH   4  16
TORSDOF 4
ENDMDL
MODEL 9
REMARK VINA RESULT:      -7.5      2.179      3.565
REMARK  Name = 
REMARK  4 active torsions:
REMARK  status: ('A' for Active; 'I' for Inactive)
REMARK    1  A    between atoms: N_2  and  C_4
REMARK    2  A    between atoms: C_7  and  N_8
REMARK    3  A    between atoms: N_11  and  C_12
REMARK    4  A    between atoms: C_12  and  C_13
REMARK                            x       y       z     vdW  Elec       q    Type
REMARK                         _______ _______ _______ _____ _____    ______ ____
ROOT
ATOM      1  N   UNL     1       1.128   8.800  20.273  0.00  0.00    +0.000 N 
ATOM      2  C   UNL     1       1.239   8.815  18.803  0.00  0.00    +0.000 C 
ATOM      3  C   UNL     1       2.582   8.156  18.385  0.00  0.00    +0.000 C 
ATOM      4  N   UNL     1       2.819   6.785  18.892  0.00  0.00    +0.000 NA
ATOM      5  C   UNL     1       2.538   6.757  20.349  0.00  0.00    +0.000 C 
ATOM      6  C   UNL     1       1.233   7.443  20.842  0.00  0.00    +0.000 C 
ENDROOT
BRANCH   1  10
ATOM      7  C   UNL     1      -1.077  11.634  22.467  0.00  0.00    +0.000 A 
ATOM      8  C   UNL     1      -0.734  11.925  21.147  0.00  0.00    +0.000 A 
ATOM      9  C   UNL     1      -0.020  10.975  20.399  0.00  0.00    +0.000 A 
ATOM     10  C   UNL     1       0.350   9.738  20.945  0.00  0.00    +0.000 A 
ATOM     11  C   UNL     1      -0.038   9.485  22.271  0.00  0.00    +0.000 A 
ATOM     12  C   UNL     1      -0.735  10.420  23.045  0.00  0.00    +0.000 A 
BRANCH   7  14
ATOM     13  O   UNL     1      -2.973  12.416  23.558  0.00  0.00    +0.000 OA
ATOM     14  N   UNL     1      -1.797  12.634  23.267  0.00  0.00    +0.000 N 
ATOM     15  O   UNL     1      -1.189  13.671  23.593  0.00  0.00    +0.000 OA
ENDBRANCH   7  14
ENDBRANCH   1  10
BRANCH   4  16
ATOM     16  C   UNL     1       2.143   5.725  18.106  0.00  0.00    +0.000 C 
BRANCH  16  17
ATOM     17  C   UNL     1       3.187   4.806  17.500  0.00  0.00    +0.000 A 
ATOM     18  C   UNL     1       3.052   3.428  17.429  0.00  0.00    +0.000 A 
ATOM     19  N   UNL     1       4.338   2.976  17.390  0.00  0.00    +0.000 N 
ATOM     20  C   UNL     1       5.049   3.837  16.605  0.00  0.00    +0.000 A 
ATOM     21  C   UNL     1       6.223   3.626  15.861  0.00  0.00    +0.000 A 
ATOM     22  C   UNL     1       6.716   4.715  15.147  0.00  0.00    +0.000 A 
ATOM     23  C   UNL     1       6.108   5.967  15.262  0.00  0.00    +0.000 A 
ATOM     24  C   UNL     1       4.968   6.164  16.057  0.00  0.00    +0.000 A 
ATOM     25  C   UNL     1       4.385   5.063  16.723  0.00  0.00    +0.000 A 
ATOM     26  H   UNL     1       4.709   2.193  17.910  0.00  0.00    +0.000 HD
ENDBRANCH  16  17
ENDBRANCH   4  16
TORSDOF 4
ENDMDL
