MODEL 1
REMARK VINA RESULT:      -6.0      0.000      0.000
REMARK  Name = 
REMARK  12 active torsions:
REMARK  status: ('A' for Active; 'I' for Inactive)
REMARK    1  A    between atoms: C_1  and  C_2
REMARK    2  A    between atoms: C_2  and  C_3
REMARK    3  A    between atoms: C_3  and  C_4
REMARK    4  A    between atoms: C_4  and  C_5
REMARK    5  A    between atoms: C_5  and  C_6
REMARK    6  A    between atoms: C_6  and  C_7
REMARK    7  A    between atoms: C_7  and  C_8
REMARK    8  A    between atoms: C_8  and  C_9
REMARK    9  A    between atoms: C_9  and  C_10
REMARK   10  A    between atoms: C_10  and  O_11
REMARK   11  A    between atoms: O_11  and  C_12
REMARK   12  A    between atoms: C_16  and  C_17
REMARK                            x       y       z     vdW  Elec       q    Type
REMARK                         _______ _______ _______ _____ _____    ______ ____
ROOT
ATOM      1  O   UNL     1       4.691   3.156  19.325  0.00  0.00    +0.000 OA
ENDROOT
BRANCH   1   2
ATOM      2  C   UNL     1       5.137   4.056  18.394  0.00  0.00    +0.000 A 
ATOM      3  C   UNL     1       4.574   3.915  17.126  0.00  0.00    +0.000 A 
ATOM      4  C   UNL     1       4.964   4.753  16.083  0.00  0.00    +0.000 A 
ATOM      5  C   UNL     1       5.927   5.743  16.298  0.00  0.00    +0.000 A 
ATOM      6  C   UNL     1       6.497   5.900  17.566  0.00  0.00    +0.000 A 
ATOM      7  C   UNL     1       6.090   5.054  18.611  0.00  0.00    +0.000 A 
BRANCH   6   8
ATOM      8  C   UNL     1       7.536   6.925  17.880  0.00  0.00    +0.000 C 
ATOM      9  N   UNL     1       8.259   6.798  19.031  0.00  0.00    +0.000 N 
ATOM     10  O   UNL     1       7.744   7.878  17.133  0.00  0.00    +0.000 OA
ATOM     11  H   UNL     1       8.124   6.084  19.730  0.00  0.00    +0.000 HD
ATOM     12  H   UNL     1       8.932   7.528  19.226  0.00  0.00    +0.000 HD
ENDBRANCH   6   8
ENDBRANCH   1   2
BRANCH   1  13
ATOM     13  C   UNL     1       3.767   2.182  18.844  0.00  0.00    +0.000 C 
BRANCH  13  14
ATOM     14  C   UNL     1       2.490   2.244  19.677  0.00  0.00    +0.000 C 
BRANCH  14  15
ATOM     15  C   UNL     1       2.778   2.454  21.165  0.00  0.00    +0.000 C 
BRANCH  15  16
ATOM     16  C   UNL     1       2.301   3.818  21.663  0.00  0.00    +0.000 C 
BRANCH  16  17
ATOM     17  C   UNL     1       1.270   4.438  20.727  0.00  0.00    +0.000 C 
BRANCH  17  18
ATOM     18  C   UNL     1       1.673   5.869  20.375  0.00  0.00    +0.000 C 
BRANCH  18  19
ATOM     19  C   UNL     1       2.260   5.946  18.972  0.00  0.00    +0.000 C 
BRANCH  19  20
ATOM     20  C   UNL     1       2.946   7.290  18.741  0.00  0.00    +0.000 C 
BRANCH  20  22
ATOM     21  C   UNL     1       1.959   9.457  17.942  0.00  0.00    +0.000 C 
ATOM     22  C   UNL     1       2.317   8.031  17.565  0.00  0.00    +0.000 C 
ENDBRANCH  20  22
ENDBRANCH  19  20
ENDBRANCH  18  19
ENDBRANCH  17  18
ENDBRANCH  16  17
ENDBRANCH  15  16
ENDBRANCH  14  15
ENDBRANCH  13  14
ENDBRANCH   1  13
TORSDOF 11
ENDMDL
MODEL 2
REMARK VINA RESULT:      -5.9      3.303      6.226
REMARK  Name = 
REMARK  12 active torsions:
REMARK  status: ('A' for Active; 'I' for Inactive)
REMARK    1  A    between atoms: C_1  and  C_2
REMARK    2  A    between atoms: C_2  and  C_3
REMARK    3  A    between atoms: C_3  and  C_4
REMARK    4  A    between atoms: C_4  and  C_5
REMARK    5  A    between atoms: C_5  and  C_6
REMARK    6  A    between atoms: C_6  and  C_7
REMARK    7  A    between atoms: C_7  and  C_8
REMARK    8  A    between atoms: C_8  and  C_9
REMARK    9  A    between atoms: C_9  and  C_10
REMARK   10  A    between atoms: C_10  and  O_11
REMARK   11  A    between atoms: O_11  and  C_12
REMARK   12  A    between atoms: C_16  and  C_17
REMARK                            x       y       z     vdW  Elec       q    Type
REMARK                         _______ _______ _______ _____ _____    ______ ____
ROOT
ATOM      1  O   UNL     1       6.349   4.270  18.920  0.00  0.00    +0.000 OA
ENDROOT
BRANCH   1   2
ATOM      2  C   UNL     1       4.995   4.470  18.876  0.00  0.00    +0.000 A 
ATOM      3  C   UNL     1       4.268   3.433  18.292  0.00  0.00    +0.000 A 
ATOM      4  C   UNL     1       2.883   3.527  18.163  0.00  0.00    +0.000 A 
ATOM      5  C   UNL     1       2.210   4.664  18.616  0.00  0.00    +0.000 A 
ATOM      6  C   UNL     1       2.925   5.711  19.209  0.00  0.00    +0.000 A 
ATOM      7  C   UNL     1       4.319   5.601  19.341  0.00  0.00    +0.000 A 
BRANCH   6   8
ATOM      8  C   UNL     1       2.286   6.963  19.712  0.00  0.00    +0.000 C 
ATOM      9  N   UNL     1       1.732   6.963  20.959  0.00  0.00    +0.000 N 
ATOM     10  O   UNL     1       2.240   7.981  19.025  0.00  0.00    +0.000 OA
ATOM     11  H   UNL     1       1.673   6.165  21.572  0.00  0.00    +0.000 HD
ATOM     12  H   UNL     1       1.281   7.819  21.254  0.00  0.00    +0.000 HD
ENDBRANCH   6   8
ENDBRANCH   1   2
BRANCH   1  13
ATOM     13  C   UNL     1       7.042   4.486  17.693  0.00  0.00    +0.000 C 
BRANCH  13  14
ATOM     14  C   UNL     1       7.176   5.986  17.445  0.00  0.00    +0.000 C 
BRANCH  14  15
ATOM     15  C   UNL     1       6.361   6.448  16.234  0.00  0.00    +0.000 C 
BRANCH  15  16
ATOM     16  C   UNL     1       5.706   5.282  15.494  0.00  0.00    +0.000 C 
BRANCH  16  17
ATOM     17  C   UNL     1       6.417   4.968  14.183  0.00  0.00    +0.000 C 
BRANCH  17  18
ATOM     18  C   UNL     1       5.999   3.590  13.674  0.00  0.00    +0.000 C 
BRANCH  18  19
ATOM     19  C   UNL     1       6.315   3.432  12.192  0.00  0.00    +0.000 C 
BRANCH  19  20
ATOM     20  C   UNL     1       5.205   2.665  11.477  0.00  0.00    +0.000 C 
BRANCH  20  22
ATOM     21  C   UNL     1       3.368   3.644  10.069  0.00  0.00    +0.000 C 
ATOM     22  C   UNL     1       3.903   3.459  11.478  0.00  0.00    +0.000 C 
ENDBRANCH  20  22
ENDBRANCH  19  20
ENDBRANCH  18  19
ENDBRANCH  17  18
ENDBRANCH  16  17
ENDBRANCH  15  16
ENDBRANCH  14  15
ENDBRANCH  13  14
ENDBRANCH   1  13
TORSDOF 11
ENDMDL
MODEL 3
REMARK VINA RESULT:      -5.9      1.706      3.568
REMARK  Name = 
REMARK  12 active torsions:
REMARK  status: ('A' for Active; 'I' for Inactive)
REMARK    1  A    between atoms: C_1  and  C_2
REMARK    2  A    between atoms: C_2  and  C_3
REMARK    3  A    between atoms: C_3  and  C_4
REMARK    4  A    between atoms: C_4  and  C_5
REMARK    5  A    between atoms: C_5  and  C_6
REMARK    6  A    between atoms: C_6  and  C_7
REMARK    7  A    between atoms: C_7  and  C_8
REMARK    8  A    between atoms: C_8  and  C_9
REMARK    9  A    between atoms: C_9  and  C_10
REMARK   10  A    between atoms: C_10  and  O_11
REMARK   11  A    between atoms: O_11  and  C_12
REMARK   12  A    between atoms: C_16  and  C_17
REMARK                            x       y       z     vdW  Elec       q    Type
REMARK                         _______ _______ _______ _____ _____    ______ ____
ROOT
ATOM      1  O   UNL     1       3.289   5.644  17.513  0.00  0.00    +0.000 OA
ENDROOT
BRANCH   1   2
ATOM      2  C   UNL     1       4.623   5.364  17.378  0.00  0.00    +0.000 A 
ATOM      3  C   UNL     1       4.945   4.565  16.281  0.00  0.00    +0.000 A 
ATOM      4  C   UNL     1       6.266   4.187  16.048  0.00  0.00    +0.000 A 
ATOM      5  C   UNL     1       7.281   4.605  16.913  0.00  0.00    +0.000 A 
ATOM      6  C   UNL     1       6.974   5.413  18.014  0.00  0.00    +0.000 A 
ATOM      7  C   UNL     1       5.640   5.793  18.233  0.00  0.00    +0.000 A 
BRANCH   6   8
ATOM      8  C   UNL     1       7.994   5.896  18.990  0.00  0.00    +0.000 C 
ATOM      9  N   UNL     1       8.432   7.186  18.899  0.00  0.00    +0.000 N 
ATOM     10  O   UNL     1       8.452   5.158  19.859  0.00  0.00    +0.000 OA
ATOM     11  H   UNL     1       8.157   7.847  18.190  0.00  0.00    +0.000 HD
ATOM     12  H   UNL     1       9.146   7.469  19.557  0.00  0.00    +0.000 HD
ENDBRANCH   6   8
ENDBRANCH   1   2
BRANCH   1  13
ATOM     13  C   UNL     1       2.982   6.933  18.040  0.00  0.00    +0.000 C 
BRANCH  13  14
ATOM     14  C   UNL     1       2.410   6.781  19.447  0.00  0.00    +0.000 C 
BRANCH  14  15
ATOM     15  C   UNL     1       2.719   5.410  20.053  0.00  0.00    +0.000 C 
BRANCH  15  16
ATOM     16  C   UNL     1       1.624   4.935  21.007  0.00  0.00    +0.000 C 
BRANCH  16  17
ATOM     17  C   UNL     1       0.644   3.987  20.325  0.00  0.00    +0.000 C 
BRANCH  17  18
ATOM     18  C   UNL     1       1.306   2.633  20.081  0.00  0.00    +0.000 C 
BRANCH  18  19
ATOM     19  C   UNL     1       1.151   2.198  18.629  0.00  0.00    +0.000 C 
BRANCH  19  20
ATOM     20  C   UNL     1       2.472   2.327  17.877  0.00  0.00    +0.000 C 
BRANCH  20  22
ATOM     21  C   UNL     1       4.478   2.325  19.391  0.00  0.00    +0.000 C 
ATOM     22  C   UNL     1       3.559   1.478  18.530  0.00  0.00    +0.000 C 
ENDBRANCH  20  22
ENDBRANCH  19  20
ENDBRANCH  18  19
ENDBRANCH  17  18
ENDBRANCH  16  17
ENDBRANCH  15  16
ENDBRANCH  14  15
ENDBRANCH  13  14
ENDBRANCH   1  13
TORSDOF 11
ENDMDL
MODEL 4
REMARK VINA RESULT:      -5.9      1.062      1.163
REMARK  Name = 
REMARK  12 active torsions:
REMARK  status: ('A' for Active; 'I' for Inactive)
REMARK    1  A    between atoms: C_1  and  C_2
REMARK    2  A    between atoms: C_2  and  C_3
REMARK    3  A    between atoms: C_3  and  C_4
REMARK    4  A    between atoms: C_4  and  C_5
REMARK    5  A    between atoms: C_5  and  C_6
REMARK    6  A    between atoms: C_6  and  C_7
REMARK    7  A    between atoms: C_7  and  C_8
REMARK    8  A    between atoms: C_8  and  C_9
REMARK    9  A    between atoms: C_9  and  C_10
REMARK   10  A    between atoms: C_10  and  O_11
REMARK   11  A    between atoms: O_11  and  C_12
REMARK   12  A    between atoms: C_16  and  C_17
REMARK                            x       y       z     vdW  Elec       q    Type
REMARK                         _______ _______ _______ _____ _____    ______ ____
ROOT
ATOM      1  O   UNL     1       4.268   2.738  18.680  0.00  0.00    +0.000 OA
ENDROOT
BRANCH   1   2
ATOM      2  C   UNL     1       4.896   3.866  18.222  0.00  0.00    +0.000 A 
ATOM      3  C   UNL     1       4.327   4.433  17.082  0.00  0.00    +0.000 A 
ATOM      4  C   UNL     1       4.889   5.568  16.502  0.00  0.00    +0.000 A 
ATOM      5  C   UNL     1       6.032   6.150  17.059  0.00  0.00    +0.000 A 
ATOM      6  C   UNL     1       6.611   5.596  18.206  0.00  0.00    +0.000 A 
ATOM      7  C   UNL     1       6.030   4.456  18.785  0.00  0.00    +0.000 A 
BRANCH   6   8
ATOM      8  C   UNL     1       7.835   6.149  18.859  0.00  0.00    +0.000 C 
ATOM      9  N   UNL     1       8.433   5.428  19.851  0.00  0.00    +0.000 N 
ATOM     10  O   UNL     1       8.302   7.237  18.530  0.00  0.00    +0.000 OA
ATOM     11  H   UNL     1       8.094   4.555  20.225  0.00  0.00    +0.000 HD
ATOM     12  H   UNL     1       9.242   5.848  20.291  0.00  0.00    +0.000 HD
ENDBRANCH   6   8
ENDBRANCH   1   2
BRANCH   1  13
ATOM     13  C   UNL     1       3.323   2.156  17.784  0.00  0.00    +0.000 C 
BRANCH  13  14
ATOM     14  C   UNL     1       2.155   1.584  18.583  0.00  0.00    +0.000 C 
BRANCH  14  15
ATOM     15  C   UNL     1       1.845   2.414  19.830  0.00  0.00    +0.000 C 
BRANCH  15  16
ATOM     16  C   UNL     1       0.997   3.646  19.513  0.00  0.00    +0.000 C 
BRANCH  16  17
ATOM     17  C   UNL     1       1.200   4.757  20.538  0.00  0.00    +0.000 C 
BRANCH  17  18
ATOM     18  C   UNL     1       2.493   5.514  20.243  0.00  0.00    +0.000 C 
BRANCH  18  19
ATOM     19  C   UNL     1       2.218   6.987  19.969  0.00  0.00    +0.000 C 
BRANCH  19  20
ATOM     20  C   UNL     1       2.499   7.332  18.509  0.00  0.00    +0.000 C 
BRANCH  20  22
ATOM     21  C   UNL     1       2.060   9.726  17.884  0.00  0.00    +0.000 C 
ATOM     22  C   UNL     1       1.475   8.328  17.975  0.00  0.00    +0.000 C 
ENDBRANCH  20  22
ENDBRANCH  19  20
ENDBRANCH  18  19
ENDBRANCH  17  18
ENDBRANCH  16  17
ENDBRANCH  15  16
ENDBRANCH  14  15
ENDBRANCH  13  14
ENDBRANCH   1  13
TORSDOF 11
ENDMDL
MODEL 5
REMARK VINA RESULT:      -5.9      3.308      6.638
REMARK  Name = 
REMARK  12 active torsions:
REMARK  status: ('A' for Active; 'I' for Inactive)
REMARK    1  A    between atoms: C_1  and  C_2
REMARK    2  A    between atoms: C_2  and  C_3
REMARK    3  A    between atoms: C_3  and  C_4
REMARK    4  A    between atoms: C_4  and  C_5
REMARK    5  A    between atoms: C_5  and  C_6
REMARK    6  A    between atoms: C_6  and  C_7
REMARK    7  A    between atoms: C_7  and  C_8
REMARK    8  A    between atoms: C_8  and  C_9
REMARK    9  A    between atoms: C_9  and  C_10
REMARK   10  A    between atoms: C_10  and  O_11
REMARK   11  A    between atoms: O_11  and  C_12
REMARK   12  A    between atoms: C_16  and  C_17
REMARK                            x       y       z     vdW  Elec       q    Type
REMARK                         _______ _______ _______ _____ _____    ______ ____
ROOT
ATOM      1  O   UNL     1       5.850   4.211  19.194  0.00  0.00    +0.000 OA
ENDROOT
BRANCH   1   2
ATOM      2  C   UNL     1       4.511   4.328  18.929  0.00  0.00    +0.000 A 
ATOM      3  C   UNL     1       4.171   5.385  18.084  0.00  0.00    +0.000 A 
ATOM      4  C   UNL     1       2.838   5.628  17.758  0.00  0.00    +0.000 A 
ATOM      5  C   UNL     1       1.827   4.813  18.277  0.00  0.00    +0.000 A 
ATOM      6  C   UNL     1       2.154   3.746  19.121  0.00  0.00    +0.000 A 
ATOM      7  C   UNL     1       3.501   3.507  19.435  0.00  0.00    +0.000 A 
BRANCH   6   8
ATOM      8  C   UNL     1       1.137   2.833  19.723  0.00  0.00    +0.000 C 
ATOM      9  N   UNL     1       1.259   2.490  21.038  0.00  0.00    +0.000 N 
ATOM     10  O   UNL     1       0.207   2.381  19.060  0.00  0.00    +0.000 OA
ATOM     11  H   UNL     1       2.014   2.765  21.647  0.00  0.00    +0.000 HD
ATOM     12  H   UNL     1       0.570   1.845  21.404  0.00  0.00    +0.000 HD
ENDBRANCH   6   8
ENDBRANCH   1   2
BRANCH   1  13
ATOM     13  C   UNL     1       6.530   5.435  19.466  0.00  0.00    +0.000 C 
BRANCH  13  14
ATOM     14  C   UNL     1       7.489   5.745  18.320  0.00  0.00    +0.000 C 
BRANCH  14  15
ATOM     15  C   UNL     1       7.703   4.540  17.401  0.00  0.00    +0.000 C 
BRANCH  15  16
ATOM     16  C   UNL     1       7.249   4.813  15.968  0.00  0.00    +0.000 C 
BRANCH  16  17
ATOM     17  C   UNL     1       6.251   3.769  15.479  0.00  0.00    +0.000 C 
BRANCH  17  18
ATOM     18  C   UNL     1       5.476   4.304  14.277  0.00  0.00    +0.000 C 
BRANCH  18  19
ATOM     19  C   UNL     1       5.952   3.659  12.982  0.00  0.00    +0.000 C 
BRANCH  19  20
ATOM     20  C   UNL     1       4.841   3.653  11.935  0.00  0.00    +0.000 C 
BRANCH  20  22
ATOM     21  C   UNL     1       6.124   1.557  11.410  0.00  0.00    +0.000 C 
ATOM     22  C   UNL     1       4.891   2.383  11.091  0.00  0.00    +0.000 C 
ENDBRANCH  20  22
ENDBRANCH  19  20
ENDBRANCH  18  19
ENDBRANCH  17  18
ENDBRANCH  16  17
ENDBRANCH  15  16
ENDBRANCH  14  15
ENDBRANCH  13  14
ENDBRANCH   1  13
TORSDOF 11
ENDMDL
MODEL 6
REMARK VINA RESULT:      -5.8      2.016      2.616
REMARK  Name = 
REMARK  12 active torsions:
REMARK  status: ('A' for Active; 'I' for Inactive)
REMARK    1  A    between atoms: C_1  and  C_2
REMARK    2  A    between atoms: C_2  and  C_3
REMARK    3  A    between atoms: C_3  and  C_4
REMARK    4  A    between atoms: C_4  and  C_5
REMARK    5  A    between atoms: C_5  and  C_6
REMARK    6  A    between atoms: C_6  and  C_7
REMARK    7  A    between atoms: C_7  and  C_8
REMARK    8  A    between atoms: C_8  and  C_9
REMARK    9  A    between atoms: C_9  and  C_10
REMARK   10  A    between atoms: C_10  and  O_11
REMARK   11  A    between atoms: O_11  and  C_12
REMARK   12  A    between atoms: C_16  and  C_17
REMARK                            x       y       z     vdW  Elec       q    Type
REMARK                         _______ _______ _______ _____ _____    ______ ____
ROOT
ATOM      1  O   UNL     1       5.530   3.920  19.623  0.00  0.00    +0.000 OA
ENDROOT
BRANCH   1   2
ATOM      2  C   UNL     1       6.124   4.662  18.637  0.00  0.00    +0.000 A 
ATOM      3  C   UNL     1       6.844   5.768  19.088  0.00  0.00    +0.000 A 
ATOM      4  C   UNL     1       7.473   6.619  18.181  0.00  0.00    +0.000 A 
ATOM      5  C   UNL     1       7.386   6.372  16.809  0.00  0.00    +0.000 A 
ATOM      6  C   UNL     1       6.672   5.263  16.341  0.00  0.00    +0.000 A 
ATOM      7  C   UNL     1       6.050   4.409  17.265  0.00  0.00    +0.000 A 
BRANCH   6   8
ATOM      8  C   UNL     1       6.523   4.931  14.893  0.00  0.00    +0.000 C 
ATOM      9  N   UNL     1       7.510   5.306  14.028  0.00  0.00    +0.000 N 
ATOM     10  O   UNL     1       5.532   4.342  14.468  0.00  0.00    +0.000 OA
ATOM     11  H   UNL     1       8.331   5.837  14.272  0.00  0.00    +0.000 HD
ATOM     12  H   UNL     1       7.360   5.091  13.050  0.00  0.00    +0.000 HD
ENDBRANCH   6   8
ENDBRANCH   1   2
BRANCH   1  13
ATOM     13  C   UNL     1       4.728   2.831  19.173  0.00  0.00    +0.000 C 
BRANCH  13  14
ATOM     14  C   UNL     1       4.246   2.026  20.377  0.00  0.00    +0.000 C 
BRANCH  14  15
ATOM     15  C   UNL     1       2.956   2.593  20.974  0.00  0.00    +0.000 C 
BRANCH  15  16
ATOM     16  C   UNL     1       1.750   2.382  20.060  0.00  0.00    +0.000 C 
BRANCH  16  17
ATOM     17  C   UNL     1       1.041   3.693  19.739  0.00  0.00    +0.000 C 
BRANCH  17  18
ATOM     18  C   UNL     1       1.025   3.927  18.230  0.00  0.00    +0.000 C 
BRANCH  18  19
ATOM     19  C   UNL     1       2.198   4.798  17.796  0.00  0.00    +0.000 C 
BRANCH  19  20
ATOM     20  C   UNL     1       2.481   5.886  18.828  0.00  0.00    +0.000 C 
BRANCH  20  22
ATOM     21  C   UNL     1       3.863   7.450  17.430  0.00  0.00    +0.000 C 
ATOM     22  C   UNL     1       2.551   7.260  18.170  0.00  0.00    +0.000 C 
ENDBRANCH  20  22
ENDBRANCH  19  20
ENDBRANCH  18  19
ENDBRANCH  17  18
ENDBRANCH  16  17
ENDBRANCH  15  16
ENDBRANCH  14  15
ENDBRANCH  13  14
ENDBRANCH   1  13
TORSDOF 11
ENDMDL
MODEL 7
REMARK VINA RESULT:      -5.7      3.743      5.418
REMARK  Name = 
REMARK  12 active torsions:
REMARK  status: ('A' for Active; 'I' for Inactive)
REMARK    1  A    between atoms: C_1  and  C_2
REMARK    2  A    between atoms: C_2  and  C_3
REMARK    3  A    between atoms: C_3  and  C_4
REMARK    4  A    between atoms: C_4  and  C_5
REMARK    5  A    between atoms: C_5  and  C_6
REMARK    6  A    between atoms: C_6  and  C_7
REMARK    7  A    between atoms: C_7  and  C_8
REMARK    8  A    between atoms: C_8  and  C_9
REMARK    9  A    between atoms: C_9  and  C_10
REMARK   10  A    between atoms: C_10  and  O_11
REMARK   11  A    between atoms: O_11  and  C_12
REMARK   12  A    between atoms: C_16  and  C_17
REMARK                            x       y       z     vdW  Elec       q    Type
REMARK                         _______ _______ _______ _____ _____    ______ ____
ROOT
ATOM      1  O   UNL     1       6.572   4.708  16.017  0.00  0.00    +0.000 OA
ENDROOT
BRANCH   1   2
ATOM      2  C   UNL     1       6.718   4.539  14.665  0.00  0.00    +0.000 A 
ATOM      3  C   UNL     1       7.707   5.328  14.079  0.00  0.00    +0.000 A 
ATOM      4  C   UNL     1       7.936   5.269  12.706  0.00  0.00    +0.000 A 
ATOM      5  C   UNL     1       7.174   4.417  11.902  0.00  0.00    +0.000 A 
ATOM      6  C   UNL     1       6.181   3.615  12.476  0.00  0.00    +0.000 A 
ATOM      7  C   UNL     1       5.966   3.679  13.862  0.00  0.00    +0.000 A 
BRANCH   6   8
ATOM      8  C   UNL     1       5.317   2.685  11.690  0.00  0.00    +0.000 C 
ATOM      9  N   UNL     1       4.091   3.118  11.277  0.00  0.00    +0.000 N 
ATOM     10  O   UNL     1       5.683   1.543  11.420  0.00  0.00    +0.000 OA
ATOM     11  H   UNL     1       3.684   4.014  11.495  0.00  0.00    +0.000 HD
ATOM     12  H   UNL     1       3.521   2.450  10.773  0.00  0.00    +0.000 HD
ENDBRANCH   6   8
ENDBRANCH   1   2
BRANCH   1  13
ATOM     13  C   UNL     1       5.839   5.865  16.415  0.00  0.00    +0.000 C 
BRANCH  13  14
ATOM     14  C   UNL     1       5.018   5.539  17.659  0.00  0.00    +0.000 C 
BRANCH  14  15
ATOM     15  C   UNL     1       4.630   4.060  17.726  0.00  0.00    +0.000 C 
BRANCH  15  16
ATOM     16  C   UNL     1       3.243   3.795  17.141  0.00  0.00    +0.000 C 
BRANCH  16  17
ATOM     17  C   UNL     1       2.671   2.462  17.611  0.00  0.00    +0.000 C 
BRANCH  17  18
ATOM     18  C   UNL     1       2.936   2.273  19.103  0.00  0.00    +0.000 C 
BRANCH  18  19
ATOM     19  C   UNL     1       1.646   1.981  19.859  0.00  0.00    +0.000 C 
BRANCH  19  20
ATOM     20  C   UNL     1       1.401   3.027  20.943  0.00  0.00    +0.000 C 
BRANCH  20  22
ATOM     21  C   UNL     1       1.998   5.446  20.620  0.00  0.00    +0.000 C 
ATOM     22  C   UNL     1       0.977   4.359  20.333  0.00  0.00    +0.000 C 
ENDBRANCH  20  22
ENDBRANCH  19  20
ENDBRANCH  18  19
ENDBRANCH  17  18
ENDBRANCH  16  17
ENDBRANCH  15  16
ENDBRANCH  14  15
ENDBRANCH  13  14
ENDBRANCH   1  13
TORSDOF 11
ENDMDL
MODEL 8
REMARK VINA RESULT:      -5.7      2.343      4.405
REMARK  Name = 
REMARK  12 active torsions:
REMARK  status: ('A' for Active; 'I' for Inactive)
REMARK    1  A    between atoms: C_1  and  C_2
REMARK    2  A    between atoms: C_2  and  C_3
REMARK    3  A    between atoms: C_3  and  C_4
REMARK    4  A    between atoms: C_4  and  C_5
REMARK    5  A    between atoms: C_5  and  C_6
REMARK    6  A    between atoms: C_6  and  C_7
REMARK    7  A    between atoms: C_7  and  C_8
REMARK    8  A    between atoms: C_8  and  C_9
REMARK    9  A    between atoms: C_9  and  C_10
REMARK   10  A    between atoms: C_10  and  O_11
REMARK   11  A    between atoms: O_11  and  C_12
REMARK   12  A    between atoms: C_16  and  C_17
REMARK                            x       y       z     vdW  Elec       q    Type
REMARK                         _______ _______ _______ _____ _____    ______ ____
ROOT
ATOM      1  O   UNL     1       3.942   7.061  17.264  0.00  0.00    +0.000 OA
ENDROOT
BRANCH   1   2
ATOM      2  C   UNL     1       4.964   6.199  16.969  0.00  0.00    +0.000 A 
ATOM      3  C   UNL     1       5.573   5.611  18.078  0.00  0.00    +0.000 A 
ATOM      4  C   UNL     1       6.644   4.735  17.913  0.00  0.00    +0.000 A 
ATOM      5  C   UNL     1       7.120   4.438  16.633  0.00  0.00    +0.000 A 
ATOM      6  C   UNL     1       6.515   5.015  15.510  0.00  0.00    +0.000 A 
ATOM      7  C   UNL     1       5.432   5.890  15.689  0.00  0.00    +0.000 A 
BRANCH   6   8
ATOM      8  C   UNL     1       6.965   4.759  14.110  0.00  0.00    +0.000 C 
ATOM      9  N   UNL     1       7.893   5.591  13.555  0.00  0.00    +0.000 N 
ATOM     10  O   UNL     1       6.510   3.827  13.450  0.00  0.00    +0.000 OA
ATOM     11  H   UNL     1       8.282   6.409  13.996  0.00  0.00    +0.000 HD
ATOM     12  H   UNL     1       8.151   5.405  12.594  0.00  0.00    +0.000 HD
ENDBRANCH   6   8
ENDBRANCH   1   2
BRANCH   1  13
ATOM     13  C   UNL     1       3.358   6.903  18.555  0.00  0.00    +0.000 C 
BRANCH  13  14
ATOM     14  C   UNL     1       1.889   6.519  18.402  0.00  0.00    +0.000 C 
BRANCH  14  15
ATOM     15  C   UNL     1       1.655   5.023  18.625  0.00  0.00    +0.000 C 
BRANCH  15  16
ATOM     16  C   UNL     1       1.628   4.236  17.315  0.00  0.00    +0.000 C 
BRANCH  16  17
ATOM     17  C   UNL     1       2.839   3.322  17.174  0.00  0.00    +0.000 C 
BRANCH  17  18
ATOM     18  C   UNL     1       2.651   2.065  18.020  0.00  0.00    +0.000 C 
BRANCH  18  19
ATOM     19  C   UNL     1       3.888   1.780  18.864  0.00  0.00    +0.000 C 
BRANCH  19  20
ATOM     20  C   UNL     1       3.899   2.642  20.123  0.00  0.00    +0.000 C 
BRANCH  20  22
ATOM     21  C   UNL     1       2.246   3.637  21.733  0.00  0.00    +0.000 C 
ATOM     22  C   UNL     1       2.655   2.390  20.971  0.00  0.00    +0.000 C 
ENDBRANCH  20  22
ENDBRANCH  19  20
ENDBRANCH  18  19
ENDBRANCH  17  18
ENDBRANCH  16  17
ENDBRANCH  15  16
ENDBRANCH  14  15
ENDBRANCH  13  14
ENDBRANCH   1  13
TORSDOF 11
ENDMDL
MODEL 9
REMARK VINA RESULT:      -5.7      2.018      2.874
REMARK  Name = 
REMARK  12 active torsions:
REMARK  status: ('A' for Active; 'I' for Inactive)
REMARK    1  A    between atoms: C_1  and  C_2
REMARK    2  A    between atoms: C_2  and  C_3
REMARK    3  A    between atoms: C_3  and  C_4
REMARK    4  A    between atoms: C_4  and  C_5
REMARK    5  A    between atoms: C_5  and  C_6
REMARK    6  A    between atoms: C_6  and  C_7
REMARK    7  A    between atoms: C_7  and  C_8
REMARK    8  A    between atoms: C_8  and  C_9
REMARK    9  A    between atoms: C_9  and  C_10
REMARK   10  A    between atoms: C_10  and  O_11
REMARK   11  A    between atoms: O_11  and  C_12
REMARK   12  A    between atoms: C_16  and  C_17
REMARK                            x       y       z     vdW  Elec       q    Type
REMARK                         _______ _______ _______ _____ _____    ______ ____
ROOT
ATOM      1  O   UNL     1       5.058   3.267  19.042  0.00  0.00    +0.000 OA
ENDROOT
BRANCH   1   2
ATOM      2  C   UNL     1       5.758   4.152  18.266  0.00  0.00    +0.000 A 
ATOM      3  C   UNL     1       6.190   5.300  18.930  0.00  0.00    +0.000 A 
ATOM      4  C   UNL     1       6.890   6.291  18.244  0.00  0.00    +0.000 A 
ATOM      5  C   UNL     1       7.165   6.143  16.881  0.00  0.00    +0.000 A 
ATOM      6  C   UNL     1       6.743   4.994  16.203  0.00  0.00    +0.000 A 
ATOM      7  C   UNL     1       6.045   4.000  16.907  0.00  0.00    +0.000 A 
BRANCH   6   8
ATOM      8  C   UNL     1       6.987   4.761  14.749  0.00  0.00    +0.000 C 
ATOM      9  N   UNL     1       6.390   3.693  14.145  0.00  0.00    +0.000 N 
ATOM     10  O   UNL     1       7.720   5.500  14.094  0.00  0.00    +0.000 OA
ATOM     11  H   UNL     1       5.819   3.004  14.608  0.00  0.00    +0.000 HD
ATOM     12  H   UNL     1       6.603   3.549  13.166  0.00  0.00    +0.000 HD
ENDBRANCH   6   8
ENDBRANCH   1   2
BRANCH   1  13
ATOM     13  C   UNL     1       3.843   2.781  18.476  0.00  0.00    +0.000 C 
BRANCH  13  14
ATOM     14  C   UNL     1       2.665   3.255  19.322  0.00  0.00    +0.000 C 
BRANCH  14  15
ATOM     15  C   UNL     1       1.711   4.155  18.533  0.00  0.00    +0.000 C 
BRANCH  15  16
ATOM     16  C   UNL     1       2.355   5.484  18.140  0.00  0.00    +0.000 C 
BRANCH  16  17
ATOM     17  C   UNL     1       2.775   6.296  19.360  0.00  0.00    +0.000 C 
BRANCH  17  18
ATOM     18  C   UNL     1       2.148   7.688  19.306  0.00  0.00    +0.000 C 
BRANCH  18  19
ATOM     19  C   UNL     1       2.314   8.313  17.926  0.00  0.00    +0.000 C 
BRANCH  19  20
ATOM     20  C   UNL     1       1.845   9.765  17.926  0.00  0.00    +0.000 C 
BRANCH  20  22
ATOM     21  C   UNL     1       0.114  11.371  18.786  0.00  0.00    +0.000 C 
ATOM     22  C   UNL     1       0.519   9.912  18.665  0.00  0.00    +0.000 C 
ENDBRANCH  20  22
ENDBRANCH  19  20
ENDBRANCH  18  19
ENDBRANCH  17  18
ENDBRANCH  16  17
ENDBRANCH  15  16
ENDBRANCH  14  15
ENDBRANCH  13  14
ENDBRANCH   1  13
TORSDOF 11
ENDMDL
