MODEL 1
REMARK VINA RESULT:      -6.6      0.000      0.000
REMARK  Name = 
REMARK  4 active torsions:
REMARK  status: ('A' for Active; 'I' for Inactive)
REMARK    1  A    between atoms: C_1  and  C_2
REMARK    2  A    between atoms: C_2  and  N_3
REMARK    3  A    between atoms: N_7  and  C_8
REMARK    4  A    between atoms: C_11  and  N_12
REMARK                            x       y       z     vdW  Elec       q    Type
REMARK                         _______ _______ _______ _____ _____    ______ ____
ROOT
ATOM      1  N   UNL     1       2.985   3.878  20.320  0.00  0.00    +0.000 N 
ATOM      2  S   UNL     1       2.162   5.343  20.211  0.00  0.00    +0.000 S 
ATOM      3  C   UNL     1       3.011   5.765  18.722  0.00  0.00    +0.000 A 
ATOM      4  O   UNL     1       2.714   6.774  18.103  0.00  0.00    +0.000 OA
ATOM      5  N   UNL     1       3.936   4.778  18.426  0.00  0.00    +0.000 N 
ATOM      6  C   UNL     1       3.958   3.716  19.341  0.00  0.00    +0.000 A 
ATOM      7  O   UNL     1       4.736   2.767  19.355  0.00  0.00    +0.000 OA
ENDROOT
BRANCH   5   8
ATOM      8  C   UNL     1       4.797   4.839  17.278  0.00  0.00    +0.000 A 
ATOM      9  C   UNL     1       4.564   4.046  16.139  0.00  0.00    +0.000 A 
ATOM     10  C   UNL     1       5.402   4.106  15.015  0.00  0.00    +0.000 A 
ATOM     11  C   UNL     1       6.500   4.966  15.017  0.00  0.00    +0.000 A 
ATOM     12  C   UNL     1       6.763   5.759  16.133  0.00  0.00    +0.000 A 
ATOM     13  C   UNL     1       5.914   5.693  17.246  0.00  0.00    +0.000 A 
BRANCH  11  14
ATOM     14  N   UNL     1       7.381   5.037  13.847  0.00  0.00    +0.000 N 
ATOM     15  O   UNL     1       7.062   4.382  12.845  0.00  0.00    +0.000 OA
ATOM     16  O   UNL     1       8.391   5.749  13.929  0.00  0.00    +0.000 OA
ENDBRANCH  11  14
ENDBRANCH   5   8
BRANCH   1  18
ATOM     17  C   UNL     1       1.367   2.659  21.726  0.00  0.00    +0.000 C 
ATOM     18  C   UNL     1       2.825   2.994  21.454  0.00  0.00    +0.000 C 
ENDBRANCH   1  18
TORSDOF 3
ENDMDL
MODEL 2
REMARK VINA RESULT:      -6.5      0.631      1.433
REMARK  Name = 
REMARK  4 active torsions:
REMARK  status: ('A' for Active; 'I' for Inactive)
REMARK    1  A    between atoms: C_1  and  C_2
REMARK    2  A    between atoms: C_2  and  N_3
REMARK    3  A    between atoms: N_7  and  C_8
REMARK    4  A    between atoms: C_11  and  N_12
REMARK                            x       y       z     vdW  Elec       q    Type
REMARK                         _______ _______ _______ _____ _____    ______ ____
ROOT
ATOM      1  N   UNL     1       2.573   4.421  20.604  0.00  0.00    +0.000 N 
ATOM      2  S   UNL     1       1.793   5.895  20.374  0.00  0.00    +0.000 S 
ATOM      3  C   UNL     1       2.652   6.169  18.857  0.00  0.00    +0.000 A 
ATOM      4  O   UNL     1       2.384   7.133  18.157  0.00  0.00    +0.000 OA
ATOM      5  N   UNL     1       3.548   5.135  18.644  0.00  0.00    +0.000 N 
ATOM      6  C   UNL     1       3.540   4.151  19.643  0.00  0.00    +0.000 A 
ATOM      7  O   UNL     1       4.290   3.184  19.736  0.00  0.00    +0.000 OA
ENDROOT
BRANCH   5   8
ATOM      8  C   UNL     1       4.409   5.077  17.496  0.00  0.00    +0.000 A 
ATOM      9  C   UNL     1       5.164   6.189  17.084  0.00  0.00    +0.000 A 
ATOM     10  C   UNL     1       6.009   6.133  15.965  0.00  0.00    +0.000 A 
ATOM     11  C   UNL     1       6.107   4.951  15.231  0.00  0.00    +0.000 A 
ATOM     12  C   UNL     1       5.365   3.832  15.609  0.00  0.00    +0.000 A 
ATOM     13  C   UNL     1       4.530   3.901  16.732  0.00  0.00    +0.000 A 
BRANCH  11  14
ATOM     14  N   UNL     1       6.988   4.881  14.061  0.00  0.00    +0.000 N 
ATOM     15  O   UNL     1       7.999   5.598  14.057  0.00  0.00    +0.000 OA
ATOM     16  O   UNL     1       6.670   4.109  13.146  0.00  0.00    +0.000 OA
ENDBRANCH  11  14
ENDBRANCH   5   8
BRANCH   1  18
ATOM     17  C   UNL     1       1.298   2.589  21.653  0.00  0.00    +0.000 C 
ATOM     18  C   UNL     1       2.388   3.638  21.807  0.00  0.00    +0.000 C 
ENDBRANCH   1  18
TORSDOF 3
ENDMDL
MODEL 3
REMARK VINA RESULT:      -6.2      0.833      1.344
REMARK  Name = 
REMARK  4 active torsions:
REMARK  status: ('A' for Active; 'I' for Inactive)
REMARK    1  A    between atoms: C_1  and  C_2
REMARK    2  A    between atoms: C_2  and  N_3
REMARK    3  A    between atoms: N_7  and  C_8
REMARK    4  A    between atoms: C_11  and  N_12
REMARK                            x       y       z     vdW  Elec       q    Type
REMARK                         _______ _______ _______ _____ _____    ______ ____
ROOT
ATOM      1  N   UNL     1       2.802   3.437  19.512  0.00  0.00    +0.000 N 
ATOM      2  S   UNL     1       2.585   5.045  19.960  0.00  0.00    +0.000 S 
ATOM      3  C   UNL     1       3.603   5.603  18.630  0.00  0.00    +0.000 A 
ATOM      4  O   UNL     1       3.732   6.796  18.405  0.00  0.00    +0.000 OA
ATOM      5  N   UNL     1       4.111   4.509  17.952  0.00  0.00    +0.000 N 
ATOM      6  C   UNL     1       3.693   3.270  18.460  0.00  0.00    +0.000 A 
ATOM      7  O   UNL     1       4.064   2.158  18.097  0.00  0.00    +0.000 OA
ENDROOT
BRANCH   5   8
ATOM      8  C   UNL     1       4.990   4.634  16.823  0.00  0.00    +0.000 A 
ATOM      9  C   UNL     1       6.347   4.968  16.978  0.00  0.00    +0.000 A 
ATOM     10  C   UNL     1       7.208   5.087  15.876  0.00  0.00    +0.000 A 
ATOM     11  C   UNL     1       6.716   4.876  14.588  0.00  0.00    +0.000 A 
ATOM     12  C   UNL     1       5.373   4.551  14.399  0.00  0.00    +0.000 A 
ATOM     13  C   UNL     1       4.526   4.430  15.510  0.00  0.00    +0.000 A 
BRANCH  11  14
ATOM     14  N   UNL     1       7.607   4.997  13.430  0.00  0.00    +0.000 N 
ATOM     15  O   UNL     1       7.339   4.323  12.425  0.00  0.00    +0.000 OA
ATOM     16  O   UNL     1       8.574   5.764  13.525  0.00  0.00    +0.000 OA
ENDBRANCH  11  14
ENDBRANCH   5   8
BRANCH   1  18
ATOM     17  C   UNL     1       1.527   2.833  21.536  0.00  0.00    +0.000 C 
ATOM     18  C   UNL     1       2.269   2.346  20.301  0.00  0.00    +0.000 C 
ENDBRANCH   1  18
TORSDOF 3
ENDMDL
MODEL 4
REMARK VINA RESULT:      -6.2      0.938      1.189
REMARK  Name = 
REMARK  4 active torsions:
REMARK  status: ('A' for Active; 'I' for Inactive)
REMARK    1  A    between atoms: C_1  and  C_2
REMARK    2  A    between atoms: C_2  and  N_3
REMARK    3  A    between atoms: N_7  and  C_8
REMARK    4  A    between atoms: C_11  and  N_12
REMARK                            x       y       z     vdW  Elec       q    Type
REMARK                         _______ _______ _______ _____ _____    ______ ____
ROOT
ATOM      1  N   UNL     1       2.856   3.584  19.351  0.00  0.00    +0.000 N 
ATOM      2  S   UNL     1       2.652   5.202  19.768  0.00  0.00    +0.000 S 
ATOM      3  C   UNL     1       3.671   5.728  18.427  0.00  0.00    +0.000 A 
ATOM      4  O   UNL     1       3.808   6.915  18.179  0.00  0.00    +0.000 OA
ATOM      5  N   UNL     1       4.170   4.617  17.768  0.00  0.00    +0.000 N 
ATOM      6  C   UNL     1       3.744   3.391  18.300  0.00  0.00    +0.000 A 
ATOM      7  O   UNL     1       4.106   2.269  17.957  0.00  0.00    +0.000 OA
ENDROOT
BRANCH   5   8
ATOM      8  C   UNL     1       5.048   4.714  16.635  0.00  0.00    +0.000 A 
ATOM      9  C   UNL     1       4.600   4.438  15.330  0.00  0.00    +0.000 A 
ATOM     10  C   UNL     1       5.455   4.535  14.221  0.00  0.00    +0.000 A 
ATOM     11  C   UNL     1       6.786   4.909  14.406  0.00  0.00    +0.000 A 
ATOM     12  C   UNL     1       7.263   5.182  15.687  0.00  0.00    +0.000 A 
ATOM     13  C   UNL     1       6.396   5.086  16.784  0.00  0.00    +0.000 A 
BRANCH  11  14
ATOM     14  N   UNL     1       7.687   5.016  13.254  0.00  0.00    +0.000 N 
ATOM     15  O   UNL     1       8.662   5.775  13.353  0.00  0.00    +0.000 OA
ATOM     16  O   UNL     1       7.421   4.341  12.250  0.00  0.00    +0.000 OA
ENDBRANCH  11  14
ENDBRANCH   5   8
BRANCH   1  18
ATOM     17  C   UNL     1       2.046   2.949  21.592  0.00  0.00    +0.000 C 
ATOM     18  C   UNL     1       2.317   2.512  20.161  0.00  0.00    +0.000 C 
ENDBRANCH   1  18
TORSDOF 3
ENDMDL
MODEL 5
REMARK VINA RESULT:      -6.2      3.363      6.745
REMARK  Name = 
REMARK  4 active torsions:
REMARK  status: ('A' for Active; 'I' for Inactive)
REMARK    1  A    between atoms: C_1  and  C_2
REMARK    2  A    between atoms: C_2  and  N_3
REMARK    3  A    between atoms: N_7  and  C_8
REMARK    4  A    between atoms: C_11  and  N_12
REMARK                            x       y       z     vdW  Elec       q    Type
REMARK                         _______ _______ _______ _____ _____    ______ ____
ROOT
ATOM      1  N   UNL     1       4.759   4.670  16.975  0.00  0.00    +0.000 N 
ATOM      2  S   UNL     1       3.621   3.463  17.266  0.00  0.00    +0.000 S 
ATOM      3  C   UNL     1       2.521   4.616  18.025  0.00  0.00    +0.000 A 
ATOM      4  O   UNL     1       1.404   4.270  18.374  0.00  0.00    +0.000 OA
ATOM      5  N   UNL     1       3.124   5.862  18.072  0.00  0.00    +0.000 N 
ATOM      6  C   UNL     1       4.408   5.903  17.511  0.00  0.00    +0.000 A 
ATOM      7  O   UNL     1       5.183   6.855  17.503  0.00  0.00    +0.000 OA
ENDROOT
BRANCH   5   8
ATOM      8  C   UNL     1       2.485   7.013  18.646  0.00  0.00    +0.000 A 
ATOM      9  C   UNL     1       2.159   8.140  17.870  0.00  0.00    +0.000 A 
ATOM     10  C   UNL     1       1.532   9.264  18.428  0.00  0.00    +0.000 A 
ATOM     11  C   UNL     1       1.224   9.279  19.788  0.00  0.00    +0.000 A 
ATOM     12  C   UNL     1       1.541   8.182  20.588  0.00  0.00    +0.000 A 
ATOM     13  C   UNL     1       2.162   7.063  20.015  0.00  0.00    +0.000 A 
BRANCH  11  14
ATOM     14  N   UNL     1       0.567  10.449  20.381  0.00  0.00    +0.000 N 
ATOM     15  O   UNL     1      -0.455  10.878  19.827  0.00  0.00    +0.000 OA
ATOM     16  O   UNL     1       1.072  10.937  21.401  0.00  0.00    +0.000 OA
ENDBRANCH  11  14
ENDBRANCH   5   8
BRANCH   1  18
ATOM     17  C   UNL     1       6.085   4.541  14.899  0.00  0.00    +0.000 C 
ATOM     18  C   UNL     1       6.058   4.374  16.411  0.00  0.00    +0.000 C 
ENDBRANCH   1  18
TORSDOF 3
ENDMDL
MODEL 6
REMARK VINA RESULT:      -6.2      1.627      1.991
REMARK  Name = 
REMARK  4 active torsions:
REMARK  status: ('A' for Active; 'I' for Inactive)
REMARK    1  A    between atoms: C_1  and  C_2
REMARK    2  A    between atoms: C_2  and  N_3
REMARK    3  A    between atoms: N_7  and  C_8
REMARK    4  A    between atoms: C_11  and  N_12
REMARK                            x       y       z     vdW  Elec       q    Type
REMARK                         _______ _______ _______ _____ _____    ______ ____
ROOT
ATOM      1  N   UNL     1       2.549   3.498  18.883  0.00  0.00    +0.000 N 
ATOM      2  S   UNL     1       3.687   3.580  20.121  0.00  0.00    +0.000 S 
ATOM      3  C   UNL     1       4.968   4.000  18.982  0.00  0.00    +0.000 A 
ATOM      4  O   UNL     1       6.086   4.286  19.381  0.00  0.00    +0.000 OA
ATOM      5  N   UNL     1       4.459   3.987  17.694  0.00  0.00    +0.000 N 
ATOM      6  C   UNL     1       3.095   3.672  17.617  0.00  0.00    +0.000 A 
ATOM      7  O   UNL     1       2.428   3.511  16.599  0.00  0.00    +0.000 OA
ENDROOT
BRANCH   5   8
ATOM      8  C   UNL     1       5.260   4.276  16.538  0.00  0.00    +0.000 A 
ATOM      9  C   UNL     1       5.507   3.305  15.551  0.00  0.00    +0.000 A 
ATOM     10  C   UNL     1       6.287   3.585  14.419  0.00  0.00    +0.000 A 
ATOM     11  C   UNL     1       6.843   4.855  14.260  0.00  0.00    +0.000 A 
ATOM     12  C   UNL     1       6.623   5.838  15.224  0.00  0.00    +0.000 A 
ATOM     13  C   UNL     1       5.837   5.545  16.347  0.00  0.00    +0.000 A 
BRANCH  11  14
ATOM     14  N   UNL     1       7.658   5.160  13.079  0.00  0.00    +0.000 N 
ATOM     15  O   UNL     1       7.356   4.606  12.013  0.00  0.00    +0.000 OA
ATOM     16  O   UNL     1       8.599   5.953  13.218  0.00  0.00    +0.000 OA
ENDBRANCH  11  14
ENDBRANCH   5   8
BRANCH   1  18
ATOM     17  C   UNL     1       0.813   3.138  20.598  0.00  0.00    +0.000 C 
ATOM     18  C   UNL     1       1.187   3.073  19.125  0.00  0.00    +0.000 C 
ENDBRANCH   1  18
TORSDOF 3
ENDMDL
MODEL 7
REMARK VINA RESULT:      -6.2      3.369      6.793
REMARK  Name = 
REMARK  4 active torsions:
REMARK  status: ('A' for Active; 'I' for Inactive)
REMARK    1  A    between atoms: C_1  and  C_2
REMARK    2  A    between atoms: C_2  and  N_3
REMARK    3  A    between atoms: N_7  and  C_8
REMARK    4  A    between atoms: C_11  and  N_12
REMARK                            x       y       z     vdW  Elec       q    Type
REMARK                         _______ _______ _______ _____ _____    ______ ____
ROOT
ATOM      1  N   UNL     1       4.956   4.860  16.903  0.00  0.00    +0.000 N 
ATOM      2  S   UNL     1       3.830   3.621  17.081  0.00  0.00    +0.000 S 
ATOM      3  C   UNL     1       2.673   4.716  17.841  0.00  0.00    +0.000 A 
ATOM      4  O   UNL     1       1.547   4.334  18.119  0.00  0.00    +0.000 OA
ATOM      5  N   UNL     1       3.248   5.968  17.977  0.00  0.00    +0.000 N 
ATOM      6  C   UNL     1       4.556   6.059  17.480  0.00  0.00    +0.000 A 
ATOM      7  O   UNL     1       5.312   7.023  17.555  0.00  0.00    +0.000 OA
ENDROOT
BRANCH   5   8
ATOM      8  C   UNL     1       2.560   7.079  18.574  0.00  0.00    +0.000 A 
ATOM      9  C   UNL     1       2.233   7.094  19.942  0.00  0.00    +0.000 A 
ATOM     10  C   UNL     1       1.564   8.179  20.528  0.00  0.00    +0.000 A 
ATOM     11  C   UNL     1       1.204   9.275  19.743  0.00  0.00    +0.000 A 
ATOM     12  C   UNL     1       1.508   9.288  18.382  0.00  0.00    +0.000 A 
ATOM     13  C   UNL     1       2.181   8.199  17.812  0.00  0.00    +0.000 A 
BRANCH  11  14
ATOM     14  N   UNL     1       0.507  10.416  20.346  0.00  0.00    +0.000 N 
ATOM     15  O   UNL     1      -0.461  10.889  19.733  0.00  0.00    +0.000 OA
ATOM     16  O   UNL     1       0.926  10.838  21.432  0.00  0.00    +0.000 OA
ENDBRANCH  11  14
ENDBRANCH   5   8
BRANCH   1  18
ATOM     17  C   UNL     1       6.342   4.684  14.871  0.00  0.00    +0.000 C 
ATOM     18  C   UNL     1       6.286   4.614  16.389  0.00  0.00    +0.000 C 
ENDBRANCH   1  18
TORSDOF 3
ENDMDL
MODEL 8
REMARK VINA RESULT:      -6.2      1.667      2.130
REMARK  Name = 
REMARK  4 active torsions:
REMARK  status: ('A' for Active; 'I' for Inactive)
REMARK    1  A    between atoms: C_1  and  C_2
REMARK    2  A    between atoms: C_2  and  N_3
REMARK    3  A    between atoms: N_7  and  C_8
REMARK    4  A    between atoms: C_11  and  N_12
REMARK                            x       y       z     vdW  Elec       q    Type
REMARK                         _______ _______ _______ _____ _____    ______ ____
ROOT
ATOM      1  N   UNL     1       2.050   4.087  19.148  0.00  0.00    +0.000 N 
ATOM      2  S   UNL     1       3.076   4.588  20.386  0.00  0.00    +0.000 S 
ATOM      3  C   UNL     1       4.382   4.905  19.242  0.00  0.00    +0.000 A 
ATOM      4  O   UNL     1       5.426   5.414  19.618  0.00  0.00    +0.000 OA
ATOM      5  N   UNL     1       3.975   4.542  17.970  0.00  0.00    +0.000 N 
ATOM      6  C   UNL     1       2.666   4.044  17.903  0.00  0.00    +0.000 A 
ATOM      7  O   UNL     1       2.100   3.577  16.918  0.00  0.00    +0.000 OA
ENDROOT
BRANCH   5   8
ATOM      8  C   UNL     1       4.824   4.667  16.817  0.00  0.00    +0.000 A 
ATOM      9  C   UNL     1       5.030   5.906  16.185  0.00  0.00    +0.000 A 
ATOM     10  C   UNL     1       5.861   6.031  15.061  0.00  0.00    +0.000 A 
ATOM     11  C   UNL     1       6.499   4.903  14.544  0.00  0.00    +0.000 A 
ATOM     12  C   UNL     1       6.309   3.658  15.143  0.00  0.00    +0.000 A 
ATOM     13  C   UNL     1       5.481   3.550  16.269  0.00  0.00    +0.000 A 
BRANCH  11  14
ATOM     14  N   UNL     1       7.371   5.023  13.371  0.00  0.00    +0.000 N 
ATOM     15  O   UNL     1       8.335   5.798  13.446  0.00  0.00    +0.000 OA
ATOM     16  O   UNL     1       7.092   4.342  12.375  0.00  0.00    +0.000 OA
ENDBRANCH  11  14
ENDBRANCH   5   8
BRANCH   1  18
ATOM     17  C   UNL     1       0.652   2.056  19.179  0.00  0.00    +0.000 C 
ATOM     18  C   UNL     1       0.732   3.556  19.416  0.00  0.00    +0.000 C 
ENDBRANCH   1  18
TORSDOF 3
ENDMDL
MODEL 9
REMARK VINA RESULT:      -6.1      1.311      1.511
REMARK  Name = 
REMARK  4 active torsions:
REMARK  status: ('A' for Active; 'I' for Inactive)
REMARK    1  A    between atoms: C_1  and  C_2
REMARK    2  A    between atoms: C_2  and  N_3
REMARK    3  A    between atoms: N_7  and  C_8
REMARK    4  A    between atoms: C_11  and  N_12
REMARK                            x       y       z     vdW  Elec       q    Type
REMARK                         _______ _______ _______ _____ _____    ______ ____
ROOT
ATOM      1  N   UNL     1       2.846   3.051  19.974  0.00  0.00    +0.000 N 
ATOM      2  S   UNL     1       1.372   3.351  19.219  0.00  0.00    +0.000 S 
ATOM      3  C   UNL     1       2.178   3.792  17.712  0.00  0.00    +0.000 A 
ATOM      4  O   UNL     1       1.528   4.034  16.707  0.00  0.00    +0.000 OA
ATOM      5  N   UNL     1       3.550   3.749  17.896  0.00  0.00    +0.000 N 
ATOM      6  C   UNL     1       3.947   3.362  19.184  0.00  0.00    +0.000 A 
ATOM      7  O   UNL     1       5.090   3.327  19.628  0.00  0.00    +0.000 OA
ENDROOT
BRANCH   5   8
ATOM      8  C   UNL     1       4.485   4.070  16.855  0.00  0.00    +0.000 A 
ATOM      9  C   UNL     1       5.101   3.069  16.082  0.00  0.00    +0.000 A 
ATOM     10  C   UNL     1       6.012   3.381  15.061  0.00  0.00    +0.000 A 
ATOM     11  C   UNL     1       6.328   4.715  14.801  0.00  0.00    +0.000 A 
ATOM     12  C   UNL     1       5.741   5.731  15.554  0.00  0.00    +0.000 A 
ATOM     13  C   UNL     1       4.828   5.404  16.566  0.00  0.00    +0.000 A 
BRANCH  11  14
ATOM     14  N   UNL     1       7.278   5.052  13.736  0.00  0.00    +0.000 N 
ATOM     15  O   UNL     1       8.276   5.719  14.044  0.00  0.00    +0.000 OA
ATOM     16  O   UNL     1       7.027   4.649  12.592  0.00  0.00    +0.000 OA
ENDBRANCH  11  14
ENDBRANCH   5   8
BRANCH   1  18
ATOM     17  C   UNL     1       1.559   2.514  22.008  0.00  0.00    +0.000 C 
ATOM     18  C   UNL     1       2.930   2.710  21.378  0.00  0.00    +0.000 C 
ENDBRANCH   1  18
TORSDOF 3
ENDMDL
