MODEL 1
REMARK VINA RESULT:      -6.6      0.000      0.000
REMARK  Name = 
REMARK  10 active torsions:
REMARK  status: ('A' for Active; 'I' for Inactive)
REMARK    1  A    between atoms: C_2  and  C_3
REMARK    2  A    between atoms: C_3  and  C_4
REMARK    3  A    between atoms: C_6  and  O_7
REMARK    4  A    between atoms: O_7  and  C_8
REMARK    5  A    between atoms: C_11  and  O_12
REMARK    6  A    between atoms: O_12  and  C_13
REMARK    7  A    between atoms: C_13  and  C_14
REMARK    8  A    between atoms: C_14  and  C_15
REMARK    9  A    between atoms: C_15  and  C_16
REMARK   10  A    between atoms: C_16  and  N_17
REMARK                            x       y       z     vdW  Elec       q    Type
REMARK                         _______ _______ _______ _____ _____    ______ ____
ROOT
ATOM      1  C   UNL     1       2.152   6.231  19.908  0.00  0.00    +0.000 A 
ATOM      2  C   UNL     1       1.631   7.389  20.542  0.00  0.00    +0.000 A 
ATOM      3  C   UNL     1       1.501   8.617  19.902  0.00  0.00    +0.000 A 
ATOM      4  C   UNL     1       1.942   8.726  18.596  0.00  0.00    +0.000 A 
ATOM      5  C   UNL     1       2.490   7.607  17.960  0.00  0.00    +0.000 A 
ATOM      6  C   UNL     1       2.611   6.347  18.592  0.00  0.00    +0.000 A 
ENDROOT
BRANCH   3   7
ATOM      7  O   UNL     1       0.913   9.574  20.671  0.00  0.00    +0.000 OA
ATOM      8  C   UNL     1       0.320   9.170  21.894  0.00  0.00    +0.000 C 
ENDBRANCH   3   7
BRANCH   1   9
ATOM      9  C   UNL     1       2.141   5.014  20.790  0.00  0.00    +0.000 C 
BRANCH   9  11
ATOM     10  C   UNL     1       1.184   2.860  19.929  0.00  0.00    +0.000 C 
ATOM     11  C   UNL     1       1.021   4.048  20.523  0.00  0.00    +0.000 C 
ENDBRANCH   9  11
ENDBRANCH   1   9
BRANCH   6  12
ATOM     12  O   UNL     1       3.146   5.444  17.726  0.00  0.00    +0.000 OA
BRANCH  12  13
ATOM     13  C   UNL     1       4.041   4.395  18.066  0.00  0.00    +0.000 C 
BRANCH  13  14
ATOM     14  C   UNL     1       4.524   3.663  16.811  0.00  0.00    +0.000 C 
BRANCH  14  15
ATOM     15  C   UNL     1       5.260   4.620  15.863  0.00  0.00    +0.000 C 
BRANCH  15  16
ATOM     16  C   UNL     1       6.776   4.560  16.033  0.00  0.00    +0.000 C 
BRANCH  16  17
ATOM     17  N   UNL     1       7.250   5.534  16.995  0.00  0.00    +0.000 N 
ATOM     18  C   UNL     1       7.583   5.327  18.298  0.00  0.00    +0.000 A 
ATOM     19  N   UNL     1       7.950   6.464  18.843  0.00  0.00    +0.000 NA
ATOM     20  C   UNL     1       7.820   7.350  17.812  0.00  0.00    +0.000 A 
ATOM     21  N   UNL     1       7.396   6.828  16.658  0.00  0.00    +0.000 NA
ENDBRANCH  16  17
ENDBRANCH  15  16
ENDBRANCH  14  15
ENDBRANCH  13  14
ENDBRANCH  12  13
ENDBRANCH   6  12
TORSDOF 9
ENDMDL
MODEL 2
REMARK VINA RESULT:      -6.5      1.059      1.132
REMARK  Name = 
REMARK  10 active torsions:
REMARK  status: ('A' for Active; 'I' for Inactive)
REMARK    1  A    between atoms: C_2  and  C_3
REMARK    2  A    between atoms: C_3  and  C_4
REMARK    3  A    between atoms: C_6  and  O_7
REMARK    4  A    between atoms: O_7  and  C_8
REMARK    5  A    between atoms: C_11  and  O_12
REMARK    6  A    between atoms: O_12  and  C_13
REMARK    7  A    between atoms: C_13  and  C_14
REMARK    8  A    between atoms: C_14  and  C_15
REMARK    9  A    between atoms: C_15  and  C_16
REMARK   10  A    between atoms: C_16  and  N_17
REMARK                            x       y       z     vdW  Elec       q    Type
REMARK                         _______ _______ _______ _____ _____    ______ ____
ROOT
ATOM      1  C   UNL     1       2.593   5.658  20.051  0.00  0.00    +0.000 A 
ATOM      2  C   UNL     1       1.897   6.874  20.274  0.00  0.00    +0.000 A 
ATOM      3  C   UNL     1       1.943   7.954  19.398  0.00  0.00    +0.000 A 
ATOM      4  C   UNL     1       2.744   7.852  18.275  0.00  0.00    +0.000 A 
ATOM      5  C   UNL     1       3.466   6.676  18.049  0.00  0.00    +0.000 A 
ATOM      6  C   UNL     1       3.413   5.562  18.921  0.00  0.00    +0.000 A 
ENDROOT
BRANCH   3   7
ATOM      7  O   UNL     1       1.147   8.993  19.770  0.00  0.00    +0.000 OA
ATOM      8  C   UNL     1       1.006  10.076  18.866  0.00  0.00    +0.000 C 
ENDBRANCH   3   7
BRANCH   1   9
ATOM      9  C   UNL     1       2.340   4.624  21.111  0.00  0.00    +0.000 C 
BRANCH   9  11
ATOM     10  C   UNL     1       0.785   3.449  19.531  0.00  0.00    +0.000 C 
ATOM     11  C   UNL     1       1.317   3.583  20.752  0.00  0.00    +0.000 C 
ENDBRANCH   9  11
ENDBRANCH   1   9
BRANCH   6  12
ATOM     12  O   UNL     1       4.187   4.555  18.433  0.00  0.00    +0.000 OA
BRANCH  12  13
ATOM     13  C   UNL     1       3.901   3.767  17.288  0.00  0.00    +0.000 C 
BRANCH  13  14
ATOM     14  C   UNL     1       4.541   4.373  16.036  0.00  0.00    +0.000 C 
BRANCH  14  15
ATOM     15  C   UNL     1       5.859   3.666  15.693  0.00  0.00    +0.000 C 
BRANCH  15  16
ATOM     16  C   UNL     1       7.016   4.644  15.508  0.00  0.00    +0.000 C 
BRANCH  16  17
ATOM     17  N   UNL     1       7.325   5.351  16.734  0.00  0.00    +0.000 N 
ATOM     18  C   UNL     1       7.590   4.822  17.959  0.00  0.00    +0.000 A 
ATOM     19  N   UNL     1       7.804   5.792  18.819  0.00  0.00    +0.000 NA
ATOM     20  C   UNL     1       7.654   6.914  18.055  0.00  0.00    +0.000 A 
ATOM     21  N   UNL     1       7.361   6.696  16.770  0.00  0.00    +0.000 NA
ENDBRANCH  16  17
ENDBRANCH  15  16
ENDBRANCH  14  15
ENDBRANCH  13  14
ENDBRANCH  12  13
ENDBRANCH   6  12
TORSDOF 9
ENDMDL
MODEL 3
REMARK VINA RESULT:      -6.4      2.899      5.558
REMARK  Name = 
REMARK  10 active torsions:
REMARK  status: ('A' for Active; 'I' for Inactive)
REMARK    1  A    between atoms: C_2  and  C_3
REMARK    2  A    between atoms: C_3  and  C_4
REMARK    3  A    between atoms: C_6  and  O_7
REMARK    4  A    between atoms: O_7  and  C_8
REMARK    5  A    between atoms: C_11  and  O_12
REMARK    6  A    between atoms: O_12  and  C_13
REMARK    7  A    between atoms: C_13  and  C_14
REMARK    8  A    between atoms: C_14  and  C_15
REMARK    9  A    between atoms: C_15  and  C_16
REMARK   10  A    between atoms: C_16  and  N_17
REMARK                            x       y       z     vdW  Elec       q    Type
REMARK                         _______ _______ _______ _____ _____    ______ ____
ROOT
ATOM      1  C   UNL     1       3.795   6.368  18.338  0.00  0.00    +0.000 A 
ATOM      2  C   UNL     1       4.870   6.940  17.609  0.00  0.00    +0.000 A 
ATOM      3  C   UNL     1       6.193   6.536  17.753  0.00  0.00    +0.000 A 
ATOM      4  C   UNL     1       6.481   5.558  18.687  0.00  0.00    +0.000 A 
ATOM      5  C   UNL     1       5.444   5.001  19.442  0.00  0.00    +0.000 A 
ATOM      6  C   UNL     1       4.091   5.388  19.292  0.00  0.00    +0.000 A 
ENDROOT
BRANCH   3   7
ATOM      7  O   UNL     1       7.052   7.168  16.907  0.00  0.00    +0.000 OA
ATOM      8  C   UNL     1       7.812   8.249  17.420  0.00  0.00    +0.000 C 
ENDBRANCH   3   7
BRANCH   1   9
ATOM      9  C   UNL     1       2.455   6.935  17.966  0.00  0.00    +0.000 C 
BRANCH   9  11
ATOM     10  C   UNL     1       1.513   9.258  17.851  0.00  0.00    +0.000 C 
ATOM     11  C   UNL     1       2.168   8.302  18.520  0.00  0.00    +0.000 C 
ENDBRANCH   9  11
ENDBRANCH   1   9
BRANCH   6  12
ATOM     12  O   UNL     1       3.304   4.658  20.130  0.00  0.00    +0.000 OA
BRANCH  12  13
ATOM     13  C   UNL     1       2.203   5.152  20.876  0.00  0.00    +0.000 C 
BRANCH  13  14
ATOM     14  C   UNL     1       0.895   4.506  20.410  0.00  0.00    +0.000 C 
BRANCH  14  15
ATOM     15  C   UNL     1       0.987   2.975  20.463  0.00  0.00    +0.000 C 
BRANCH  15  16
ATOM     16  C   UNL     1       0.786   2.329  19.095  0.00  0.00    +0.000 C 
BRANCH  16  17
ATOM     17  N   UNL     1       1.958   2.466  18.256  0.00  0.00    +0.000 N 
ATOM     18  C   UNL     1       3.145   1.810  18.366  0.00  0.00    +0.000 A 
ATOM     19  N   UNL     1       3.964   2.224  17.426  0.00  0.00    +0.000 NA
ATOM     20  C   UNL     1       3.216   3.151  16.758  0.00  0.00    +0.000 A 
ATOM     21  N   UNL     1       1.979   3.334  17.228  0.00  0.00    +0.000 NA
ENDBRANCH  16  17
ENDBRANCH  15  16
ENDBRANCH  14  15
ENDBRANCH  13  14
ENDBRANCH  12  13
ENDBRANCH   6  12
TORSDOF 9
ENDMDL
MODEL 4
REMARK VINA RESULT:      -6.4      3.090      6.173
REMARK  Name = 
REMARK  10 active torsions:
REMARK  status: ('A' for Active; 'I' for Inactive)
REMARK    1  A    between atoms: C_2  and  C_3
REMARK    2  A    between atoms: C_3  and  C_4
REMARK    3  A    between atoms: C_6  and  O_7
REMARK    4  A    between atoms: O_7  and  C_8
REMARK    5  A    between atoms: C_11  and  O_12
REMARK    6  A    between atoms: O_12  and  C_13
REMARK    7  A    between atoms: C_13  and  C_14
REMARK    8  A    between atoms: C_14  and  C_15
REMARK    9  A    between atoms: C_15  and  C_16
REMARK   10  A    between atoms: C_16  and  N_17
REMARK                            x       y       z     vdW  Elec       q    Type
REMARK                         _______ _______ _______ _____ _____    ______ ____
ROOT
ATOM      1  C   UNL     1       5.574   4.538  15.825  0.00  0.00    +0.000 A 
ATOM      2  C   UNL     1       6.489   5.622  15.876  0.00  0.00    +0.000 A 
ATOM      3  C   UNL     1       6.968   6.164  17.063  0.00  0.00    +0.000 A 
ATOM      4  C   UNL     1       6.493   5.651  18.256  0.00  0.00    +0.000 A 
ATOM      5  C   UNL     1       5.564   4.605  18.233  0.00  0.00    +0.000 A 
ATOM      6  C   UNL     1       5.083   4.030  17.033  0.00  0.00    +0.000 A 
ENDROOT
BRANCH   3   7
ATOM      7  O   UNL     1       7.890   7.148  16.882  0.00  0.00    +0.000 OA
ATOM      8  C   UNL     1       7.770   8.322  17.668  0.00  0.00    +0.000 C 
ENDBRANCH   3   7
BRANCH   1   9
ATOM      9  C   UNL     1       5.251   4.097  14.426  0.00  0.00    +0.000 C 
BRANCH   9  11
ATOM     10  C   UNL     1       6.374   3.473  12.270  0.00  0.00    +0.000 C 
ATOM     11  C   UNL     1       6.437   3.971  13.511  0.00  0.00    +0.000 C 
ENDBRANCH   9  11
ENDBRANCH   1   9
BRANCH   6  12
ATOM     12  O   UNL     1       4.221   3.016  17.317  0.00  0.00    +0.000 OA
BRANCH  12  13
ATOM     13  C   UNL     1       3.961   2.484  18.607  0.00  0.00    +0.000 C 
BRANCH  13  14
ATOM     14  C   UNL     1       2.555   1.881  18.674  0.00  0.00    +0.000 C 
BRANCH  14  15
ATOM     15  C   UNL     1       1.482   2.957  18.464  0.00  0.00    +0.000 C 
BRANCH  15  16
ATOM     16  C   UNL     1       1.295   3.844  19.692  0.00  0.00    +0.000 C 
BRANCH  16  17
ATOM     17  N   UNL     1       1.786   5.188  19.467  0.00  0.00    +0.000 N 
ATOM     18  C   UNL     1       1.941   6.184  20.381  0.00  0.00    +0.000 A 
ATOM     19  N   UNL     1       2.395   7.262  19.782  0.00  0.00    +0.000 NA
ATOM     20  C   UNL     1       2.502   6.864  18.481  0.00  0.00    +0.000 A 
ATOM     21  N   UNL     1       2.141   5.601  18.237  0.00  0.00    +0.000 NA
ENDBRANCH  16  17
ENDBRANCH  15  16
ENDBRANCH  14  15
ENDBRANCH  13  14
ENDBRANCH  12  13
ENDBRANCH   6  12
TORSDOF 9
ENDMDL
MODEL 5
REMARK VINA RESULT:      -6.4      0.724      1.005
REMARK  Name = 
REMARK  10 active torsions:
REMARK  status: ('A' for Active; 'I' for Inactive)
REMARK    1  A    between atoms: C_2  and  C_3
REMARK    2  A    between atoms: C_3  and  C_4
REMARK    3  A    between atoms: C_6  and  O_7
REMARK    4  A    between atoms: O_7  and  C_8
REMARK    5  A    between atoms: C_11  and  O_12
REMARK    6  A    between atoms: O_12  and  C_13
REMARK    7  A    between atoms: C_13  and  C_14
REMARK    8  A    between atoms: C_14  and  C_15
REMARK    9  A    between atoms: C_15  and  C_16
REMARK   10  A    between atoms: C_16  and  N_17
REMARK                            x       y       z     vdW  Elec       q    Type
REMARK                         _______ _______ _______ _____ _____    ______ ____
ROOT
ATOM      1  C   UNL     1       2.234   5.975  19.943  0.00  0.00    +0.000 A 
ATOM      2  C   UNL     1       1.732   7.125  20.605  0.00  0.00    +0.000 A 
ATOM      3  C   UNL     1       1.594   8.364  19.989  0.00  0.00    +0.000 A 
ATOM      4  C   UNL     1       2.010   8.493  18.676  0.00  0.00    +0.000 A 
ATOM      5  C   UNL     1       2.539   7.382  18.011  0.00  0.00    +0.000 A 
ATOM      6  C   UNL     1       2.667   6.110  18.619  0.00  0.00    +0.000 A 
ENDROOT
BRANCH   3   7
ATOM      7  O   UNL     1       1.027   9.311  20.785  0.00  0.00    +0.000 OA
ATOM      8  C   UNL     1       0.745  10.577  20.213  0.00  0.00    +0.000 C 
ENDBRANCH   3   7
BRANCH   1   9
ATOM      9  C   UNL     1       2.235   4.744  20.805  0.00  0.00    +0.000 C 
BRANCH   9  11
ATOM     10  C   UNL     1       1.141   2.629  20.013  0.00  0.00    +0.000 C 
ATOM     11  C   UNL     1       1.060   3.828  20.602  0.00  0.00    +0.000 C 
ENDBRANCH   9  11
ENDBRANCH   1   9
BRANCH   6  12
ATOM     12  O   UNL     1       3.180   5.219  17.727  0.00  0.00    +0.000 OA
BRANCH  12  13
ATOM     13  C   UNL     1       3.914   4.048  18.052  0.00  0.00    +0.000 C 
BRANCH  13  14
ATOM     14  C   UNL     1       4.590   3.467  16.807  0.00  0.00    +0.000 C 
BRANCH  14  15
ATOM     15  C   UNL     1       5.244   4.572  15.967  0.00  0.00    +0.000 C 
BRANCH  15  16
ATOM     16  C   UNL     1       6.768   4.539  16.043  0.00  0.00    +0.000 C 
BRANCH  16  17
ATOM     17  N   UNL     1       7.266   5.253  17.201  0.00  0.00    +0.000 N 
ATOM     18  C   UNL     1       7.337   6.599  17.385  0.00  0.00    +0.000 A 
ATOM     19  N   UNL     1       7.866   6.854  18.560  0.00  0.00    +0.000 NA
ATOM     20  C   UNL     1       8.106   5.607  19.062  0.00  0.00    +0.000 A 
ATOM     21  N   UNL     1       7.755   4.593  18.267  0.00  0.00    +0.000 NA
ENDBRANCH  16  17
ENDBRANCH  15  16
ENDBRANCH  14  15
ENDBRANCH  13  14
ENDBRANCH  12  13
ENDBRANCH   6  12
TORSDOF 9
ENDMDL
MODEL 6
REMARK VINA RESULT:      -6.3      2.911      6.729
REMARK  Name = 
REMARK  10 active torsions:
REMARK  status: ('A' for Active; 'I' for Inactive)
REMARK    1  A    between atoms: C_2  and  C_3
REMARK    2  A    between atoms: C_3  and  C_4
REMARK    3  A    between atoms: C_6  and  O_7
REMARK    4  A    between atoms: O_7  and  C_8
REMARK    5  A    between atoms: C_11  and  O_12
REMARK    6  A    between atoms: O_12  and  C_13
REMARK    7  A    between atoms: C_13  and  C_14
REMARK    8  A    between atoms: C_14  and  C_15
REMARK    9  A    between atoms: C_15  and  C_16
REMARK   10  A    between atoms: C_16  and  N_17
REMARK                            x       y       z     vdW  Elec       q    Type
REMARK                         _______ _______ _______ _____ _____    ______ ____
ROOT
ATOM      1  C   UNL     1       6.557   5.909  17.246  0.00  0.00    +0.000 A 
ATOM      2  C   UNL     1       7.068   5.267  16.088  0.00  0.00    +0.000 A 
ATOM      3  C   UNL     1       6.296   4.465  15.254  0.00  0.00    +0.000 A 
ATOM      4  C   UNL     1       4.975   4.246  15.596  0.00  0.00    +0.000 A 
ATOM      5  C   UNL     1       4.455   4.841  16.750  0.00  0.00    +0.000 A 
ATOM      6  C   UNL     1       5.223   5.675  17.597  0.00  0.00    +0.000 A 
ENDROOT
BRANCH   3   7
ATOM      7  O   UNL     1       6.968   4.005  14.163  0.00  0.00    +0.000 OA
ATOM      8  C   UNL     1       6.214   3.694  13.003  0.00  0.00    +0.000 C 
ENDBRANCH   3   7
BRANCH   1   9
ATOM      9  C   UNL     1       7.572   6.765  17.949  0.00  0.00    +0.000 C 
BRANCH   9  11
ATOM     10  C   UNL     1       8.340   9.148  18.116  0.00  0.00    +0.000 C 
ATOM     11  C   UNL     1       7.556   8.217  17.561  0.00  0.00    +0.000 C 
ENDBRANCH   9  11
ENDBRANCH   1   9
BRANCH   6  12
ATOM     12  O   UNL     1       4.451   6.136  18.619  0.00  0.00    +0.000 OA
BRANCH  12  13
ATOM     13  C   UNL     1       3.445   7.132  18.516  0.00  0.00    +0.000 C 
BRANCH  13  14
ATOM     14  C   UNL     1       2.148   6.668  19.185  0.00  0.00    +0.000 C 
BRANCH  14  15
ATOM     15  C   UNL     1       2.418   5.536  20.185  0.00  0.00    +0.000 C 
BRANCH  15  16
ATOM     16  C   UNL     1       1.670   4.253  19.832  0.00  0.00    +0.000 C 
BRANCH  16  17
ATOM     17  N   UNL     1       2.572   3.201  19.412  0.00  0.00    +0.000 N 
ATOM     18  C   UNL     1       3.756   2.842  19.978  0.00  0.00    +0.000 A 
ATOM     19  N   UNL     1       4.286   1.853  19.294  0.00  0.00    +0.000 NA
ATOM     20  C   UNL     1       3.371   1.644  18.303  0.00  0.00    +0.000 A 
ATOM     21  N   UNL     1       2.302   2.444  18.333  0.00  0.00    +0.000 NA
ENDBRANCH  16  17
ENDBRANCH  15  16
ENDBRANCH  14  15
ENDBRANCH  13  14
ENDBRANCH  12  13
ENDBRANCH   6  12
TORSDOF 9
ENDMDL
MODEL 7
REMARK VINA RESULT:      -6.2      3.258      5.003
REMARK  Name = 
REMARK  10 active torsions:
REMARK  status: ('A' for Active; 'I' for Inactive)
REMARK    1  A    between atoms: C_2  and  C_3
REMARK    2  A    between atoms: C_3  and  C_4
REMARK    3  A    between atoms: C_6  and  O_7
REMARK    4  A    between atoms: O_7  and  C_8
REMARK    5  A    between atoms: C_11  and  O_12
REMARK    6  A    between atoms: O_12  and  C_13
REMARK    7  A    between atoms: C_13  and  C_14
REMARK    8  A    between atoms: C_14  and  C_15
REMARK    9  A    between atoms: C_15  and  C_16
REMARK   10  A    between atoms: C_16  and  N_17
REMARK                            x       y       z     vdW  Elec       q    Type
REMARK                         _______ _______ _______ _____ _____    ______ ____
ROOT
ATOM      1  C   UNL     1       4.509   6.670  17.543  0.00  0.00    +0.000 A 
ATOM      2  C   UNL     1       3.686   7.770  17.186  0.00  0.00    +0.000 A 
ATOM      3  C   UNL     1       2.583   8.173  17.931  0.00  0.00    +0.000 A 
ATOM      4  C   UNL     1       2.245   7.438  19.052  0.00  0.00    +0.000 A 
ATOM      5  C   UNL     1       3.021   6.330  19.407  0.00  0.00    +0.000 A 
ATOM      6  C   UNL     1       4.157   5.919  18.670  0.00  0.00    +0.000 A 
ENDROOT
BRANCH   3   7
ATOM      7  O   UNL     1       1.977   9.293  17.447  0.00  0.00    +0.000 OA
ATOM      8  C   UNL     1       1.149  10.032  18.329  0.00  0.00    +0.000 C 
ENDBRANCH   3   7
BRANCH   1   9
ATOM      9  C   UNL     1       5.670   6.468  16.610  0.00  0.00    +0.000 C 
BRANCH   9  11
ATOM     10  C   UNL     1       5.641   4.595  14.941  0.00  0.00    +0.000 C 
ATOM     11  C   UNL     1       5.319   5.847  15.287  0.00  0.00    +0.000 C 
ENDBRANCH   9  11
ENDBRANCH   1   9
BRANCH   6  12
ATOM     12  O   UNL     1       4.730   4.838  19.265  0.00  0.00    +0.000 OA
BRANCH  12  13
ATOM     13  C   UNL     1       5.074   3.620  18.621  0.00  0.00    +0.000 C 
BRANCH  13  14
ATOM     14  C   UNL     1       3.920   3.122  17.747  0.00  0.00    +0.000 C 
BRANCH  14  15
ATOM     15  C   UNL     1       3.485   1.710  18.160  0.00  0.00    +0.000 C 
BRANCH  15  16
ATOM     16  C   UNL     1       2.064   1.675  18.718  0.00  0.00    +0.000 C 
BRANCH  16  17
ATOM     17  N   UNL     1       1.924   2.520  19.886  0.00  0.00    +0.000 N 
ATOM     18  C   UNL     1       2.615   2.449  21.056  0.00  0.00    +0.000 A 
ATOM     19  N   UNL     1       2.184   3.379  21.878  0.00  0.00    +0.000 NA
ATOM     20  C   UNL     1       1.210   3.999  21.149  0.00  0.00    +0.000 A 
ATOM     21  N   UNL     1       1.013   3.510  19.922  0.00  0.00    +0.000 NA
ENDBRANCH  16  17
ENDBRANCH  15  16
ENDBRANCH  14  15
ENDBRANCH  13  14
ENDBRANCH  12  13
ENDBRANCH   6  12
TORSDOF 9
ENDMDL
MODEL 8
REMARK VINA RESULT:      -6.2      3.726      6.265
REMARK  Name = 
REMARK  10 active torsions:
REMARK  status: ('A' for Active; 'I' for Inactive)
REMARK    1  A    between atoms: C_2  and  C_3
REMARK    2  A    between atoms: C_3  and  C_4
REMARK    3  A    between atoms: C_6  and  O_7
REMARK    4  A    between atoms: O_7  and  C_8
REMARK    5  A    between atoms: C_11  and  O_12
REMARK    6  A    between atoms: O_12  and  C_13
REMARK    7  A    between atoms: C_13  and  C_14
REMARK    8  A    between atoms: C_14  and  C_15
REMARK    9  A    between atoms: C_15  and  C_16
REMARK   10  A    between atoms: C_16  and  N_17
REMARK                            x       y       z     vdW  Elec       q    Type
REMARK                         _______ _______ _______ _____ _____    ______ ____
ROOT
ATOM      1  C   UNL     1       6.020   4.669  16.264  0.00  0.00    +0.000 A 
ATOM      2  C   UNL     1       4.690   4.186  16.373  0.00  0.00    +0.000 A 
ATOM      3  C   UNL     1       3.871   4.442  17.467  0.00  0.00    +0.000 A 
ATOM      4  C   UNL     1       4.393   5.167  18.522  0.00  0.00    +0.000 A 
ATOM      5  C   UNL     1       5.713   5.628  18.453  0.00  0.00    +0.000 A 
ATOM      6  C   UNL     1       6.552   5.391  17.338  0.00  0.00    +0.000 A 
ENDROOT
BRANCH   3   7
ATOM      7  O   UNL     1       2.611   3.943  17.335  0.00  0.00    +0.000 OA
ATOM      8  C   UNL     1       1.750   4.010  18.459  0.00  0.00    +0.000 C 
ENDBRANCH   3   7
BRANCH   1   9
ATOM      9  C   UNL     1       6.681   4.305  14.964  0.00  0.00    +0.000 C 
BRANCH   9  11
ATOM     10  C   UNL     1       6.139   3.428  12.677  0.00  0.00    +0.000 C 
ATOM     11  C   UNL     1       5.740   3.877  13.873  0.00  0.00    +0.000 C 
ENDBRANCH   9  11
ENDBRANCH   1   9
BRANCH   6  12
ATOM     12  O   UNL     1       7.762   5.982  17.535  0.00  0.00    +0.000 OA
BRANCH  12  13
ATOM     13  C   UNL     1       8.035   7.030  18.452  0.00  0.00    +0.000 C 
BRANCH  13  14
ATOM     14  C   UNL     1       8.053   8.386  17.740  0.00  0.00    +0.000 C 
BRANCH  14  15
ATOM     15  C   UNL     1       8.588   9.487  18.664  0.00  0.00    +0.000 C 
BRANCH  15  16
ATOM     16  C   UNL     1       9.285  10.608  17.896  0.00  0.00    +0.000 C 
BRANCH  16  17
ATOM     17  N   UNL     1      10.382  11.177  18.651  0.00  0.00    +0.000 N 
ATOM     18  C   UNL     1      10.472  11.343  19.998  0.00  0.00    +0.000 A 
ATOM     19  N   UNL     1      11.617  11.913  20.295  0.00  0.00    +0.000 NA
ATOM     20  C   UNL     1      12.200  12.079  19.072  0.00  0.00    +0.000 A 
ATOM     21  N   UNL     1      11.483  11.643  18.032  0.00  0.00    +0.000 NA
ENDBRANCH  16  17
ENDBRANCH  15  16
ENDBRANCH  14  15
ENDBRANCH  13  14
ENDBRANCH  12  13
ENDBRANCH   6  12
TORSDOF 9
ENDMDL
MODEL 9
REMARK VINA RESULT:      -6.2      4.389      6.756
REMARK  Name = 
REMARK  10 active torsions:
REMARK  status: ('A' for Active; 'I' for Inactive)
REMARK    1  A    between atoms: C_2  and  C_3
REMARK    2  A    between atoms: C_3  and  C_4
REMARK    3  A    between atoms: C_6  and  O_7
REMARK    4  A    between atoms: O_7  and  C_8
REMARK    5  A    between atoms: C_11  and  O_12
REMARK    6  A    between atoms: O_12  and  C_13
REMARK    7  A    between atoms: C_13  and  C_14
REMARK    8  A    between atoms: C_14  and  C_15
REMARK    9  A    between atoms: C_15  and  C_16
REMARK   10  A    between atoms: C_16  and  N_17
REMARK                            x       y       z     vdW  Elec       q    Type
REMARK                         _______ _______ _______ _____ _____    ______ ____
ROOT
ATOM      1  C   UNL     1       6.157   5.013  16.045  0.00  0.00    +0.000 A 
ATOM      2  C   UNL     1       5.239   4.007  16.447  0.00  0.00    +0.000 A 
ATOM      3  C   UNL     1       4.757   3.887  17.745  0.00  0.00    +0.000 A 
ATOM      4  C   UNL     1       5.229   4.764  18.704  0.00  0.00    +0.000 A 
ATOM      5  C   UNL     1       6.159   5.744  18.341  0.00  0.00    +0.000 A 
ATOM      6  C   UNL     1       6.644   5.891  17.019  0.00  0.00    +0.000 A 
ENDROOT
BRANCH   3   7
ATOM      7  O   UNL     1       3.833   2.898  17.896  0.00  0.00    +0.000 OA
ATOM      8  C   UNL     1       2.561   3.083  17.299  0.00  0.00    +0.000 C 
ENDBRANCH   3   7
BRANCH   1   9
ATOM      9  C   UNL     1       6.485   4.968  14.579  0.00  0.00    +0.000 C 
BRANCH   9  11
ATOM     10  C   UNL     1       6.152   3.535  12.546  0.00  0.00    +0.000 C 
ATOM     11  C   UNL     1       5.907   3.797  13.836  0.00  0.00    +0.000 C 
ENDBRANCH   9  11
ENDBRANCH   1   9
BRANCH   6  12
ATOM     12  O   UNL     1       7.507   6.941  16.956  0.00  0.00    +0.000 OA
BRANCH  12  13
ATOM     13  C   UNL     1       7.972   7.702  18.061  0.00  0.00    +0.000 C 
BRANCH  13  14
ATOM     14  C   UNL     1       8.139   9.175  17.676  0.00  0.00    +0.000 C 
BRANCH  14  15
ATOM     15  C   UNL     1       8.905   9.945  18.760  0.00  0.00    +0.000 C 
BRANCH  15  16
ATOM     16  C   UNL     1       9.684  11.129  18.195  0.00  0.00    +0.000 C 
BRANCH  16  17
ATOM     17  N   UNL     1       8.931  12.363  18.284  0.00  0.00    +0.000 N 
ATOM     18  C   UNL     1       8.950  13.282  19.286  0.00  0.00    +0.000 A 
ATOM     19  N   UNL     1       8.112  14.255  19.005  0.00  0.00    +0.000 NA
ATOM     20  C   UNL     1       7.597  13.873  17.800  0.00  0.00    +0.000 A 
ATOM     21  N   UNL     1       8.068  12.721  17.315  0.00  0.00    +0.000 NA
ENDBRANCH  16  17
ENDBRANCH  15  16
ENDBRANCH  14  15
ENDBRANCH  13  14
ENDBRANCH  12  13
ENDBRANCH   6  12
TORSDOF 9
ENDMDL
