MODEL 1
REMARK VINA RESULT:      -9.7      0.000      0.000
REMARK  Name = 
REMARK  15 active torsions:
REMARK  status: ('A' for Active; 'I' for Inactive)
REMARK    1  A    between atoms: C_1  and  C_2
REMARK    2  A    between atoms: C_4  and  C_5
REMARK    3  A    between atoms: C_5  and  N_6
REMARK    4  A    between atoms: N_6  and  C_7
REMARK    5  A    between atoms: N_6  and  C_13
REMARK    6  A    between atoms: C_7  and  C_8
REMARK    7  A    between atoms: C_13  and  C_14
REMARK    8  A    between atoms: C_16  and  C_17
REMARK    9  A    between atoms: C_24  and  C_25
REMARK   10  A    between atoms: C_28  and  O_29
REMARK   11  A    between atoms: O_29  and  C_30
REMARK   12  A    between atoms: C_30  and  C_31
REMARK   13  A    between atoms: C_30  and  C_32
REMARK   14  A    between atoms: C_30  and  C_33
REMARK   15  A    between atoms: C_33  and  O_35
REMARK                            x       y       z     vdW  Elec       q    Type
REMARK                         _______ _______ _______ _____ _____    ______ ____
ROOT
ATOM      1  N   UNL     1       4.514   5.270  19.295  0.00  0.00    +0.000 NA
ENDROOT
BRANCH   1   2
ATOM      2  C   UNL     1       3.950   5.895  18.070  0.00  0.00    +0.000 C 
BRANCH   2   6
ATOM      3  C   UNL     1       0.990   8.200  21.281  0.00  0.00    +0.000 C 
ATOM      4  C   UNL     1       1.643   8.308  19.932  0.00  0.00    +0.000 A 
ATOM      5  C   UNL     1       2.396   7.176  19.564  0.00  0.00    +0.000 A 
ATOM      6  C   UNL     1       3.045   7.079  18.332  0.00  0.00    +0.000 A 
ATOM      7  C   UNL     1       2.849   8.088  17.394  0.00  0.00    +0.000 A 
ATOM      8  C   UNL     1       2.140   9.238  17.751  0.00  0.00    +0.000 A 
ATOM      9  C   UNL     1       1.607   9.400  19.043  0.00  0.00    +0.000 A 
BRANCH   9  10
ATOM     10  O   UNL     1       1.124  10.672  19.244  0.00  0.00    +0.000 OA
BRANCH  10  11
ATOM     11  C   UNL     1      -0.287  10.968  19.118  0.00  0.00    +0.000 C 
ATOM     12  C   UNL     1      -0.851  10.066  18.014  0.00  0.00    +0.000 C 
ATOM     13  C   UNL     1      -1.061  11.038  20.454  0.00  0.00    +0.000 C 
BRANCH  11  14
ATOM     14  C   UNL     1      -0.458  12.394  18.529  0.00  0.00    +0.000 C 
ATOM     15  O   UNL     1       0.124  13.389  18.946  0.00  0.00    +0.000 OA
BRANCH  14  16
ATOM     16  O   UNL     1      -1.333  12.454  17.495  0.00  0.00    +0.000 OA
ATOM     17  H   UNL     1      -1.853  13.281  17.552  0.00  0.00    +0.000 HD
ENDBRANCH  14  16
ENDBRANCH  11  14
ENDBRANCH  10  11
ENDBRANCH   9  10
ENDBRANCH   2   6
ENDBRANCH   1   2
BRANCH   1  18
ATOM     18  C   UNL     1       4.247   3.814  19.303  0.00  0.00    +0.000 C 
BRANCH  18  19
ATOM     19  C   UNL     1       2.810   3.465  19.523  0.00  0.00    +0.000 A 
ATOM     20  C   UNL     1       1.907   3.695  20.542  0.00  0.00    +0.000 A 
ATOM     21  C   UNL     1       0.676   3.140  20.124  0.00  0.00    +0.000 A 
ATOM     22  C   UNL     1       0.900   2.605  18.877  0.00  0.00    +0.000 A 
ATOM     23  O   UNL     1       2.194   2.792  18.504  0.00  0.00    +0.000 OA
ENDBRANCH  18  19
ENDBRANCH   1  18
BRANCH   1  24
ATOM     24  C   UNL     1       5.977   5.501  19.325  0.00  0.00    +0.000 C 
BRANCH  24  25
ATOM     25  C   UNL     1       6.522   5.641  17.942  0.00  0.00    +0.000 A 
ATOM     26  N   UNL     1       6.199   4.732  16.953  0.00  0.00    +0.000 NA
ATOM     27  C   UNL     1       6.761   5.222  15.867  0.00  0.00    +0.000 A 
ATOM     28  O   UNL     1       7.441   6.397  16.070  0.00  0.00    +0.000 OA
ATOM     29  C   UNL     1       7.272   6.662  17.397  0.00  0.00    +0.000 A 
ATOM     30  C   UNL     1       7.813   7.929  17.914  0.00  0.00    +0.000 C 
BRANCH  27  31
ATOM     31  C   UNL     1       6.704   4.726  14.496  0.00  0.00    +0.000 A 
ATOM     32  C   UNL     1       7.640   5.177  13.552  0.00  0.00    +0.000 A 
ATOM     33  C   UNL     1       7.619   4.697  12.240  0.00  0.00    +0.000 A 
ATOM     34  C   UNL     1       6.661   3.763  11.854  0.00  0.00    +0.000 A 
ATOM     35  C   UNL     1       5.722   3.308  12.778  0.00  0.00    +0.000 A 
ATOM     36  C   UNL     1       5.744   3.787  14.091  0.00  0.00    +0.000 A 
ENDBRANCH  27  31
ENDBRANCH  24  25
ENDBRANCH   1  24
TORSDOF 11
ENDMDL
MODEL 2
REMARK VINA RESULT:      -9.3      0.912      1.255
REMARK  Name = 
REMARK  15 active torsions:
REMARK  status: ('A' for Active; 'I' for Inactive)
REMARK    1  A    between atoms: C_1  and  C_2
REMARK    2  A    between atoms: C_4  and  C_5
REMARK    3  A    between atoms: C_5  and  N_6
REMARK    4  A    between atoms: N_6  and  C_7
REMARK    5  A    between atoms: N_6  and  C_13
REMARK    6  A    between atoms: C_7  and  C_8
REMARK    7  A    between atoms: C_13  and  C_14
REMARK    8  A    between atoms: C_16  and  C_17
REMARK    9  A    between atoms: C_24  and  C_25
REMARK   10  A    between atoms: C_28  and  O_29
REMARK   11  A    between atoms: O_29  and  C_30
REMARK   12  A    between atoms: C_30  and  C_31
REMARK   13  A    between atoms: C_30  and  C_32
REMARK   14  A    between atoms: C_30  and  C_33
REMARK   15  A    between atoms: C_33  and  O_35
REMARK                            x       y       z     vdW  Elec       q    Type
REMARK                         _______ _______ _______ _____ _____    ______ ____
ROOT
ATOM      1  N   UNL     1       4.228   5.474  19.059  0.00  0.00    +0.000 NA
ENDROOT
BRANCH   1   2
ATOM      2  C   UNL     1       3.804   6.358  17.941  0.00  0.00    +0.000 C 
BRANCH   2   6
ATOM      3  C   UNL     1       0.874   8.209  21.457  0.00  0.00    +0.000 C 
ATOM      4  C   UNL     1       1.464   8.472  20.101  0.00  0.00    +0.000 A 
ATOM      5  C   UNL     1       2.255   7.418  19.603  0.00  0.00    +0.000 A 
ATOM      6  C   UNL     1       2.857   7.465  18.344  0.00  0.00    +0.000 A 
ATOM      7  C   UNL     1       2.574   8.544  17.512  0.00  0.00    +0.000 A 
ATOM      8  C   UNL     1       1.826   9.619  17.999  0.00  0.00    +0.000 A 
ATOM      9  C   UNL     1       1.340   9.636  19.319  0.00  0.00    +0.000 A 
BRANCH   9  10
ATOM     10  O   UNL     1       0.806  10.858  19.654  0.00  0.00    +0.000 OA
BRANCH  10  11
ATOM     11  C   UNL     1      -0.523  11.239  19.229  0.00  0.00    +0.000 C 
ATOM     12  C   UNL     1      -0.388  12.499  18.364  0.00  0.00    +0.000 C 
ATOM     13  C   UNL     1      -1.391  10.083  18.682  0.00  0.00    +0.000 C 
BRANCH  11  14
ATOM     14  C   UNL     1      -1.328  11.742  20.457  0.00  0.00    +0.000 C 
ATOM     15  O   UNL     1      -2.165  12.637  20.416  0.00  0.00    +0.000 OA
BRANCH  14  16
ATOM     16  O   UNL     1      -1.017  11.102  21.611  0.00  0.00    +0.000 OA
ATOM     17  H   UNL     1      -0.045  11.013  21.685  0.00  0.00    +0.000 HD
ENDBRANCH  14  16
ENDBRANCH  11  14
ENDBRANCH  10  11
ENDBRANCH   9  10
ENDBRANCH   2   6
ENDBRANCH   1   2
BRANCH   1  18
ATOM     18  C   UNL     1       3.801   4.080  18.807  0.00  0.00    +0.000 C 
BRANCH  18  19
ATOM     19  C   UNL     1       2.757   3.587  19.757  0.00  0.00    +0.000 A 
ATOM     20  C   UNL     1       2.787   2.845  20.922  0.00  0.00    +0.000 A 
ATOM     21  C   UNL     1       1.451   2.752  21.376  0.00  0.00    +0.000 A 
ATOM     22  C   UNL     1       0.687   3.440  20.462  0.00  0.00    +0.000 A 
ATOM     23  O   UNL     1       1.469   3.947  19.472  0.00  0.00    +0.000 OA
ENDBRANCH  18  19
ENDBRANCH   1  18
BRANCH   1  24
ATOM     24  C   UNL     1       5.704   5.522  19.179  0.00  0.00    +0.000 C 
BRANCH  24  25
ATOM     25  C   UNL     1       6.343   5.636  17.835  0.00  0.00    +0.000 A 
ATOM     26  N   UNL     1       6.030   4.755  16.819  0.00  0.00    +0.000 NA
ATOM     27  C   UNL     1       6.689   5.217  15.775  0.00  0.00    +0.000 A 
ATOM     28  O   UNL     1       7.425   6.346  16.032  0.00  0.00    +0.000 OA
ATOM     29  C   UNL     1       7.188   6.613  17.349  0.00  0.00    +0.000 A 
ATOM     30  C   UNL     1       7.771   7.841  17.912  0.00  0.00    +0.000 C 
BRANCH  27  31
ATOM     31  C   UNL     1       6.690   4.734  14.398  0.00  0.00    +0.000 A 
ATOM     32  C   UNL     1       7.633   5.230  13.485  0.00  0.00    +0.000 A 
ATOM     33  C   UNL     1       7.668   4.765  12.169  0.00  0.00    +0.000 A 
ATOM     34  C   UNL     1       6.758   3.798  11.748  0.00  0.00    +0.000 A 
ATOM     35  C   UNL     1       5.812   3.297  12.640  0.00  0.00    +0.000 A 
ATOM     36  C   UNL     1       5.779   3.762  13.957  0.00  0.00    +0.000 A 
ENDBRANCH  27  31
ENDBRANCH  24  25
ENDBRANCH   1  24
TORSDOF 11
ENDMDL
MODEL 3
REMARK VINA RESULT:      -9.1      1.436      2.365
REMARK  Name = 
REMARK  15 active torsions:
REMARK  status: ('A' for Active; 'I' for Inactive)
REMARK    1  A    between atoms: C_1  and  C_2
REMARK    2  A    between atoms: C_4  and  C_5
REMARK    3  A    between atoms: C_5  and  N_6
REMARK    4  A    between atoms: N_6  and  C_7
REMARK    5  A    between atoms: N_6  and  C_13
REMARK    6  A    between atoms: C_7  and  C_8
REMARK    7  A    between atoms: C_13  and  C_14
REMARK    8  A    between atoms: C_16  and  C_17
REMARK    9  A    between atoms: C_24  and  C_25
REMARK   10  A    between atoms: C_28  and  O_29
REMARK   11  A    between atoms: O_29  and  C_30
REMARK   12  A    between atoms: C_30  and  C_31
REMARK   13  A    between atoms: C_30  and  C_32
REMARK   14  A    between atoms: C_30  and  C_33
REMARK   15  A    between atoms: C_33  and  O_35
REMARK                            x       y       z     vdW  Elec       q    Type
REMARK                         _______ _______ _______ _____ _____    ______ ____
ROOT
ATOM      1  N   UNL     1       4.611   5.028  19.224  0.00  0.00    +0.000 NA
ENDROOT
BRANCH   1   2
ATOM      2  C   UNL     1       4.001   6.014  18.293  0.00  0.00    +0.000 C 
BRANCH   2   6
ATOM      3  C   UNL     1       1.274  10.103  17.814  0.00  0.00    +0.000 C 
ATOM      4  C   UNL     1       1.573   8.937  18.713  0.00  0.00    +0.000 A 
ATOM      5  C   UNL     1       2.580   8.080  18.229  0.00  0.00    +0.000 A 
ATOM      6  C   UNL     1       3.019   6.964  18.944  0.00  0.00    +0.000 A 
ATOM      7  C   UNL     1       2.521   6.757  20.227  0.00  0.00    +0.000 A 
ATOM      8  C   UNL     1       1.493   7.570  20.711  0.00  0.00    +0.000 A 
ATOM      9  C   UNL     1       0.950   8.608  19.932  0.00  0.00    +0.000 A 
BRANCH   9  10
ATOM     10  O   UNL     1      -0.172   9.152  20.512  0.00  0.00    +0.000 OA
BRANCH  10  11
ATOM     11  C   UNL     1      -0.141  10.464  21.122  0.00  0.00    +0.000 C 
ATOM     12  C   UNL     1       1.332  10.853  21.305  0.00  0.00    +0.000 C 
ATOM     13  C   UNL     1      -1.085  11.505  20.479  0.00  0.00    +0.000 C 
BRANCH  11  14
ATOM     14  C   UNL     1      -0.661  10.360  22.581  0.00  0.00    +0.000 C 
ATOM     15  O   UNL     1      -0.935  11.324  23.287  0.00  0.00    +0.000 OA
BRANCH  14  16
ATOM     16  O   UNL     1      -0.780   9.086  23.028  0.00  0.00    +0.000 OA
ATOM     17  H   UNL     1      -0.502   9.039  23.966  0.00  0.00    +0.000 HD
ENDBRANCH  14  16
ENDBRANCH  11  14
ENDBRANCH  10  11
ENDBRANCH   9  10
ENDBRANCH   2   6
ENDBRANCH   1   2
BRANCH   1  18
ATOM     18  C   UNL     1       4.306   3.648  18.786  0.00  0.00    +0.000 C 
BRANCH  18  19
ATOM     19  C   UNL     1       2.879   3.251  18.990  0.00  0.00    +0.000 A 
ATOM     20  C   UNL     1       1.852   2.880  18.145  0.00  0.00    +0.000 A 
ATOM     21  C   UNL     1       0.741   2.581  18.966  0.00  0.00    +0.000 A 
ATOM     22  C   UNL     1       1.155   2.788  20.262  0.00  0.00    +0.000 A 
ATOM     23  O   UNL     1       2.451   3.200  20.287  0.00  0.00    +0.000 OA
ENDBRANCH  18  19
ENDBRANCH   1  18
BRANCH   1  24
ATOM     24  C   UNL     1       6.079   5.226  19.240  0.00  0.00    +0.000 C 
BRANCH  24  25
ATOM     25  C   UNL     1       6.602   5.450  17.860  0.00  0.00    +0.000 A 
ATOM     26  N   UNL     1       6.327   4.561  16.840  0.00  0.00    +0.000 NA
ATOM     27  C   UNL     1       6.848   5.125  15.769  0.00  0.00    +0.000 A 
ATOM     28  O   UNL     1       7.455   6.331  16.011  0.00  0.00    +0.000 OA
ATOM     29  C   UNL     1       7.282   6.536  17.349  0.00  0.00    +0.000 A 
ATOM     30  C   UNL     1       7.749   7.813  17.909  0.00  0.00    +0.000 C 
BRANCH  27  31
ATOM     31  C   UNL     1       6.809   4.677  14.381  0.00  0.00    +0.000 A 
ATOM     32  C   UNL     1       5.860   3.723  13.982  0.00  0.00    +0.000 A 
ATOM     33  C   UNL     1       5.789   3.298  12.653  0.00  0.00    +0.000 A 
ATOM     34  C   UNL     1       6.667   3.819  11.707  0.00  0.00    +0.000 A 
ATOM     35  C   UNL     1       7.618   4.764  12.087  0.00  0.00    +0.000 A 
ATOM     36  C   UNL     1       7.689   5.191  13.416  0.00  0.00    +0.000 A 
ENDBRANCH  27  31
ENDBRANCH  24  25
ENDBRANCH   1  24
TORSDOF 11
ENDMDL
MODEL 4
REMARK VINA RESULT:      -9.1      0.962      1.272
REMARK  Name = 
REMARK  15 active torsions:
REMARK  status: ('A' for Active; 'I' for Inactive)
REMARK    1  A    between atoms: C_1  and  C_2
REMARK    2  A    between atoms: C_4  and  C_5
REMARK    3  A    between atoms: C_5  and  N_6
REMARK    4  A    between atoms: N_6  and  C_7
REMARK    5  A    between atoms: N_6  and  C_13
REMARK    6  A    between atoms: C_7  and  C_8
REMARK    7  A    between atoms: C_13  and  C_14
REMARK    8  A    between atoms: C_16  and  C_17
REMARK    9  A    between atoms: C_24  and  C_25
REMARK   10  A    between atoms: C_28  and  O_29
REMARK   11  A    between atoms: O_29  and  C_30
REMARK   12  A    between atoms: C_30  and  C_31
REMARK   13  A    between atoms: C_30  and  C_32
REMARK   14  A    between atoms: C_30  and  C_33
REMARK   15  A    between atoms: C_33  and  O_35
REMARK                            x       y       z     vdW  Elec       q    Type
REMARK                         _______ _______ _______ _____ _____    ______ ____
ROOT
ATOM      1  N   UNL     1       3.902   5.854  18.789  0.00  0.00    +0.000 NA
ENDROOT
BRANCH   1   2
ATOM      2  C   UNL     1       3.794   7.174  18.114  0.00  0.00    +0.000 C 
BRANCH   2   6
ATOM      3  C   UNL     1       0.717   8.612  21.699  0.00  0.00    +0.000 C 
ATOM      4  C   UNL     1       1.055   8.780  20.244  0.00  0.00    +0.000 A 
ATOM      5  C   UNL     1       2.121   7.970  19.804  0.00  0.00    +0.000 A 
ATOM      6  C   UNL     1       2.555   7.962  18.477  0.00  0.00    +0.000 A 
ATOM      7  C   UNL     1       1.836   8.697  17.538  0.00  0.00    +0.000 A 
ATOM      8  C   UNL     1       0.803   9.538  17.958  0.00  0.00    +0.000 A 
ATOM      9  C   UNL     1       0.460   9.656  19.317  0.00  0.00    +0.000 A 
BRANCH   9  10
ATOM     10  O   UNL     1      -0.441  10.673  19.533  0.00  0.00    +0.000 OA
BRANCH  10  11
ATOM     11  C   UNL     1      -0.008  11.976  19.989  0.00  0.00    +0.000 C 
ATOM     12  C   UNL     1      -0.569  12.179  21.402  0.00  0.00    +0.000 C 
ATOM     13  C   UNL     1       1.489  12.285  19.758  0.00  0.00    +0.000 C 
BRANCH  11  14
ATOM     14  C   UNL     1      -0.733  13.072  19.163  0.00  0.00    +0.000 C 
ATOM     15  O   UNL     1      -0.444  13.374  18.010  0.00  0.00    +0.000 OA
BRANCH  14  16
ATOM     16  O   UNL     1      -1.730  13.692  19.839  0.00  0.00    +0.000 OA
ATOM     17  H   UNL     1      -2.086  13.091  20.525  0.00  0.00    +0.000 HD
ENDBRANCH  14  16
ENDBRANCH  11  14
ENDBRANCH  10  11
ENDBRANCH   9  10
ENDBRANCH   2   6
ENDBRANCH   1   2
BRANCH   1  18
ATOM     18  C   UNL     1       3.285   4.796  17.957  0.00  0.00    +0.000 C 
BRANCH  18  19
ATOM     19  C   UNL     1       2.246   3.994  18.673  0.00  0.00    +0.000 A 
ATOM     20  C   UNL     1       1.475   4.201  19.800  0.00  0.00    +0.000 A 
ATOM     21  C   UNL     1       0.640   3.069  19.932  0.00  0.00    +0.000 A 
ATOM     22  C   UNL     1       0.950   2.239  18.879  0.00  0.00    +0.000 A 
ATOM     23  O   UNL     1       1.927   2.789  18.111  0.00  0.00    +0.000 OA
ENDBRANCH  18  19
ENDBRANCH   1  18
BRANCH   1  24
ATOM     24  C   UNL     1       5.333   5.538  19.003  0.00  0.00    +0.000 C 
BRANCH  24  25
ATOM     25  C   UNL     1       6.091   5.600  17.718  0.00  0.00    +0.000 A 
ATOM     26  N   UNL     1       5.772   4.769  16.662  0.00  0.00    +0.000 NA
ATOM     27  C   UNL     1       6.560   5.170  15.685  0.00  0.00    +0.000 A 
ATOM     28  O   UNL     1       7.386   6.212  16.024  0.00  0.00    +0.000 OA
ATOM     29  C   UNL     1       7.070   6.487  17.322  0.00  0.00    +0.000 A 
ATOM     30  C   UNL     1       7.730   7.639  17.956  0.00  0.00    +0.000 C 
BRANCH  27  31
ATOM     31  C   UNL     1       6.624   4.706  14.303  0.00  0.00    +0.000 A 
ATOM     32  C   UNL     1       7.598   5.227  13.437  0.00  0.00    +0.000 A 
ATOM     33  C   UNL     1       7.694   4.779  12.117  0.00  0.00    +0.000 A 
ATOM     34  C   UNL     1       6.815   3.807  11.645  0.00  0.00    +0.000 A 
ATOM     35  C   UNL     1       5.839   3.283  12.491  0.00  0.00    +0.000 A 
ATOM     36  C   UNL     1       5.744   3.729  13.812  0.00  0.00    +0.000 A 
ENDBRANCH  27  31
ENDBRANCH  24  25
ENDBRANCH   1  24
TORSDOF 11
ENDMDL
MODEL 5
REMARK VINA RESULT:      -9.1      1.010      1.560
REMARK  Name = 
REMARK  15 active torsions:
REMARK  status: ('A' for Active; 'I' for Inactive)
REMARK    1  A    between atoms: C_1  and  C_2
REMARK    2  A    between atoms: C_4  and  C_5
REMARK    3  A    between atoms: C_5  and  N_6
REMARK    4  A    between atoms: N_6  and  C_7
REMARK    5  A    between atoms: N_6  and  C_13
REMARK    6  A    between atoms: C_7  and  C_8
REMARK    7  A    between atoms: C_13  and  C_14
REMARK    8  A    between atoms: C_16  and  C_17
REMARK    9  A    between atoms: C_24  and  C_25
REMARK   10  A    between atoms: C_28  and  O_29
REMARK   11  A    between atoms: O_29  and  C_30
REMARK   12  A    between atoms: C_30  and  C_31
REMARK   13  A    between atoms: C_30  and  C_32
REMARK   14  A    between atoms: C_30  and  C_33
REMARK   15  A    between atoms: C_33  and  O_35
REMARK                            x       y       z     vdW  Elec       q    Type
REMARK                         _______ _______ _______ _____ _____    ______ ____
ROOT
ATOM      1  N   UNL     1       3.855   5.923  18.728  0.00  0.00    +0.000 NA
ENDROOT
BRANCH   1   2
ATOM      2  C   UNL     1       3.762   7.258  18.080  0.00  0.00    +0.000 C 
BRANCH   2   6
ATOM      3  C   UNL     1       0.636   8.630  21.647  0.00  0.00    +0.000 C 
ATOM      4  C   UNL     1       0.998   8.828  20.203  0.00  0.00    +0.000 A 
ATOM      5  C   UNL     1       2.067   8.024  19.761  0.00  0.00    +0.000 A 
ATOM      6  C   UNL     1       2.521   8.044  18.441  0.00  0.00    +0.000 A 
ATOM      7  C   UNL     1       1.821   8.803  17.508  0.00  0.00    +0.000 A 
ATOM      8  C   UNL     1       0.785   9.639  17.930  0.00  0.00    +0.000 A 
ATOM      9  C   UNL     1       0.421   9.728  19.286  0.00  0.00    +0.000 A 
BRANCH   9  10
ATOM     10  O   UNL     1      -0.479  10.744  19.511  0.00  0.00    +0.000 OA
BRANCH  10  11
ATOM     11  C   UNL     1      -0.035  12.083  19.829  0.00  0.00    +0.000 C 
ATOM     12  C   UNL     1      -1.198  12.801  20.527  0.00  0.00    +0.000 C 
ATOM     13  C   UNL     1       1.361  12.171  20.487  0.00  0.00    +0.000 C 
BRANCH  11  14
ATOM     14  C   UNL     1       0.136  12.890  18.514  0.00  0.00    +0.000 C 
ATOM     15  O   UNL     1       1.165  13.474  18.190  0.00  0.00    +0.000 OA
BRANCH  14  16
ATOM     16  O   UNL     1      -0.973  12.906  17.736  0.00  0.00    +0.000 OA
ATOM     17  H   UNL     1      -1.596  12.213  18.038  0.00  0.00    +0.000 HD
ENDBRANCH  14  16
ENDBRANCH  11  14
ENDBRANCH  10  11
ENDBRANCH   9  10
ENDBRANCH   2   6
ENDBRANCH   1   2
BRANCH   1  18
ATOM     18  C   UNL     1       3.261   4.884  17.858  0.00  0.00    +0.000 C 
BRANCH  18  19
ATOM     19  C   UNL     1       2.218   4.054  18.535  0.00  0.00    +0.000 A 
ATOM     20  C   UNL     1       1.574   2.873  18.224  0.00  0.00    +0.000 A 
ATOM     21  C   UNL     1       0.716   2.582  19.309  0.00  0.00    +0.000 A 
ATOM     22  C   UNL     1       0.887   3.602  20.217  0.00  0.00    +0.000 A 
ATOM     23  O   UNL     1       1.794   4.504  19.755  0.00  0.00    +0.000 OA
ENDBRANCH  18  19
ENDBRANCH   1  18
BRANCH   1  24
ATOM     24  C   UNL     1       5.281   5.604  18.971  0.00  0.00    +0.000 C 
BRANCH  24  25
ATOM     25  C   UNL     1       6.059   5.635  17.697  0.00  0.00    +0.000 A 
ATOM     26  N   UNL     1       5.743   4.795  16.648  0.00  0.00    +0.000 NA
ATOM     27  C   UNL     1       6.552   5.170  15.678  0.00  0.00    +0.000 A 
ATOM     28  O   UNL     1       7.389   6.203  16.015  0.00  0.00    +0.000 OA
ATOM     29  C   UNL     1       7.058   6.502  17.304  0.00  0.00    +0.000 A 
ATOM     30  C   UNL     1       7.727   7.652  17.931  0.00  0.00    +0.000 C 
BRANCH  27  31
ATOM     31  C   UNL     1       6.629   4.685  14.303  0.00  0.00    +0.000 A 
ATOM     32  C   UNL     1       5.698   3.740  13.844  0.00  0.00    +0.000 A 
ATOM     33  C   UNL     1       5.739   3.279  12.525  0.00  0.00    +0.000 A 
ATOM     34  C   UNL     1       6.712   3.756  11.650  0.00  0.00    +0.000 A 
ATOM     35  C   UNL     1       7.646   4.691  12.092  0.00  0.00    +0.000 A 
ATOM     36  C   UNL     1       7.605   5.153  13.410  0.00  0.00    +0.000 A 
ENDBRANCH  27  31
ENDBRANCH  24  25
ENDBRANCH   1  24
TORSDOF 11
ENDMDL
MODEL 6
REMARK VINA RESULT:      -9.0      1.170      1.521
REMARK  Name = 
REMARK  15 active torsions:
REMARK  status: ('A' for Active; 'I' for Inactive)
REMARK    1  A    between atoms: C_1  and  C_2
REMARK    2  A    between atoms: C_4  and  C_5
REMARK    3  A    between atoms: C_5  and  N_6
REMARK    4  A    between atoms: N_6  and  C_7
REMARK    5  A    between atoms: N_6  and  C_13
REMARK    6  A    between atoms: C_7  and  C_8
REMARK    7  A    between atoms: C_13  and  C_14
REMARK    8  A    between atoms: C_16  and  C_17
REMARK    9  A    between atoms: C_24  and  C_25
REMARK   10  A    between atoms: C_28  and  O_29
REMARK   11  A    between atoms: O_29  and  C_30
REMARK   12  A    between atoms: C_30  and  C_31
REMARK   13  A    between atoms: C_30  and  C_32
REMARK   14  A    between atoms: C_30  and  C_33
REMARK   15  A    between atoms: C_33  and  O_35
REMARK                            x       y       z     vdW  Elec       q    Type
REMARK                         _______ _______ _______ _____ _____    ______ ____
ROOT
ATOM      1  N   UNL     1       3.921   5.713  18.759  0.00  0.00    +0.000 NA
ENDROOT
BRANCH   1   2
ATOM      2  C   UNL     1       3.857   7.031  18.074  0.00  0.00    +0.000 C 
BRANCH   2   6
ATOM      3  C   UNL     1       0.830   8.576  21.655  0.00  0.00    +0.000 C 
ATOM      4  C   UNL     1       1.179   8.736  20.202  0.00  0.00    +0.000 A 
ATOM      5  C   UNL     1       2.213   7.886  19.762  0.00  0.00    +0.000 A 
ATOM      6  C   UNL     1       2.650   7.866  18.436  0.00  0.00    +0.000 A 
ATOM      7  C   UNL     1       1.965   8.633  17.498  0.00  0.00    +0.000 A 
ATOM      8  C   UNL     1       0.965   9.513  17.918  0.00  0.00    +0.000 A 
ATOM      9  C   UNL     1       0.622   9.639  19.277  0.00  0.00    +0.000 A 
BRANCH   9  10
ATOM     10  O   UNL     1      -0.238  10.690  19.494  0.00  0.00    +0.000 OA
BRANCH  10  11
ATOM     11  C   UNL     1       0.251  12.045  19.631  0.00  0.00    +0.000 C 
ATOM     12  C   UNL     1       1.577  12.136  18.864  0.00  0.00    +0.000 C 
ATOM     13  C   UNL     1      -0.802  13.148  19.379  0.00  0.00    +0.000 C 
BRANCH  11  14
ATOM     14  C   UNL     1       0.680  12.288  21.103  0.00  0.00    +0.000 C 
ATOM     15  O   UNL     1      -0.070  12.183  22.067  0.00  0.00    +0.000 OA
BRANCH  14  16
ATOM     16  O   UNL     1       1.980  12.642  21.240  0.00  0.00    +0.000 OA
ATOM     17  H   UNL     1       2.043  13.463  21.770  0.00  0.00    +0.000 HD
ENDBRANCH  14  16
ENDBRANCH  11  14
ENDBRANCH  10  11
ENDBRANCH   9  10
ENDBRANCH   2   6
ENDBRANCH   1   2
BRANCH   1  18
ATOM     18  C   UNL     1       3.254   4.673  17.945  0.00  0.00    +0.000 C 
BRANCH  18  19
ATOM     19  C   UNL     1       2.216   3.896  18.690  0.00  0.00    +0.000 A 
ATOM     20  C   UNL     1       1.413   4.161  19.782  0.00  0.00    +0.000 A 
ATOM     21  C   UNL     1       0.602   3.020  19.973  0.00  0.00    +0.000 A 
ATOM     22  C   UNL     1       0.957   2.127  18.987  0.00  0.00    +0.000 A 
ATOM     23  O   UNL     1       1.940   2.648  18.206  0.00  0.00    +0.000 OA
ENDBRANCH  18  19
ENDBRANCH   1  18
BRANCH   1  24
ATOM     24  C   UNL     1       5.342   5.343  18.961  0.00  0.00    +0.000 C 
BRANCH  24  25
ATOM     25  C   UNL     1       6.106   5.451  17.683  0.00  0.00    +0.000 A 
ATOM     26  N   UNL     1       5.799   4.652  16.599  0.00  0.00    +0.000 NA
ATOM     27  C   UNL     1       6.590   5.089  15.640  0.00  0.00    +0.000 A 
ATOM     28  O   UNL     1       7.408   6.124  16.017  0.00  0.00    +0.000 OA
ATOM     29  C   UNL     1       7.082   6.356  17.322  0.00  0.00    +0.000 A 
ATOM     30  C   UNL     1       7.732   7.491  17.996  0.00  0.00    +0.000 C 
BRANCH  27  31
ATOM     31  C   UNL     1       6.665   4.669  14.244  0.00  0.00    +0.000 A 
ATOM     32  C   UNL     1       7.612   5.255  13.390  0.00  0.00    +0.000 A 
ATOM     33  C   UNL     1       7.718   4.853  12.057  0.00  0.00    +0.000 A 
ATOM     34  C   UNL     1       6.877   3.860  11.560  0.00  0.00    +0.000 A 
ATOM     35  C   UNL     1       5.928   3.271  12.394  0.00  0.00    +0.000 A 
ATOM     36  C   UNL     1       5.823   3.672  13.728  0.00  0.00    +0.000 A 
ENDBRANCH  27  31
ENDBRANCH  24  25
ENDBRANCH   1  24
TORSDOF 11
ENDMDL
MODEL 7
REMARK VINA RESULT:      -8.6      1.408      2.120
REMARK  Name = 
REMARK  15 active torsions:
REMARK  status: ('A' for Active; 'I' for Inactive)
REMARK    1  A    between atoms: C_1  and  C_2
REMARK    2  A    between atoms: C_4  and  C_5
REMARK    3  A    between atoms: C_5  and  N_6
REMARK    4  A    between atoms: N_6  and  C_7
REMARK    5  A    between atoms: N_6  and  C_13
REMARK    6  A    between atoms: C_7  and  C_8
REMARK    7  A    between atoms: C_13  and  C_14
REMARK    8  A    between atoms: C_16  and  C_17
REMARK    9  A    between atoms: C_24  and  C_25
REMARK   10  A    between atoms: C_28  and  O_29
REMARK   11  A    between atoms: O_29  and  C_30
REMARK   12  A    between atoms: C_30  and  C_31
REMARK   13  A    between atoms: C_30  and  C_32
REMARK   14  A    between atoms: C_30  and  C_33
REMARK   15  A    between atoms: C_33  and  O_35
REMARK                            x       y       z     vdW  Elec       q    Type
REMARK                         _______ _______ _______ _____ _____    ______ ____
ROOT
ATOM      1  N   UNL     1       4.541   4.792  19.014  0.00  0.00    +0.000 NA
ENDROOT
BRANCH   1   2
ATOM      2  C   UNL     1       3.955   5.793  18.083  0.00  0.00    +0.000 C 
BRANCH   2   6
ATOM      3  C   UNL     1       1.815  10.225  17.696  0.00  0.00    +0.000 C 
ATOM      4  C   UNL     1       1.947   9.009  18.568  0.00  0.00    +0.000 A 
ATOM      5  C   UNL     1       2.830   8.034  18.065  0.00  0.00    +0.000 A 
ATOM      6  C   UNL     1       3.109   6.852  18.754  0.00  0.00    +0.000 A 
ATOM      7  C   UNL     1       2.580   6.685  20.031  0.00  0.00    +0.000 A 
ATOM      8  C   UNL     1       1.670   7.619  20.532  0.00  0.00    +0.000 A 
ATOM      9  C   UNL     1       1.278   8.739  19.777  0.00  0.00    +0.000 A 
BRANCH   9  10
ATOM     10  O   UNL     1       0.238   9.418  20.367  0.00  0.00    +0.000 OA
BRANCH  10  11
ATOM     11  C   UNL     1       0.471  10.384  21.418  0.00  0.00    +0.000 C 
ATOM     12  C   UNL     1       1.216   9.663  22.550  0.00  0.00    +0.000 C 
ATOM     13  C   UNL     1       1.029  11.744  20.943  0.00  0.00    +0.000 C 
BRANCH  11  14
ATOM     14  C   UNL     1      -0.884  10.761  22.076  0.00  0.00    +0.000 C 
ATOM     15  O   UNL     1      -1.644  11.622  21.646  0.00  0.00    +0.000 OA
BRANCH  14  16
ATOM     16  O   UNL     1      -1.162  10.051  23.196  0.00  0.00    +0.000 OA
ATOM     17  H   UNL     1      -1.238  10.659  23.960  0.00  0.00    +0.000 HD
ENDBRANCH  14  16
ENDBRANCH  11  14
ENDBRANCH  10  11
ENDBRANCH   9  10
ENDBRANCH   2   6
ENDBRANCH   1   2
BRANCH   1  18
ATOM     18  C   UNL     1       4.195   3.420  18.582  0.00  0.00    +0.000 C 
BRANCH  18  19
ATOM     19  C   UNL     1       2.833   2.976  19.012  0.00  0.00    +0.000 A 
ATOM     20  C   UNL     1       2.216   2.807  20.236  0.00  0.00    +0.000 A 
ATOM     21  C   UNL     1       0.889   2.402  19.966  0.00  0.00    +0.000 A 
ATOM     22  C   UNL     1       0.776   2.347  18.596  0.00  0.00    +0.000 A 
ATOM     23  O   UNL     1       1.952   2.690  18.006  0.00  0.00    +0.000 OA
ENDBRANCH  18  19
ENDBRANCH   1  18
BRANCH   1  24
ATOM     24  C   UNL     1       6.014   4.948  19.024  0.00  0.00    +0.000 C 
BRANCH  24  25
ATOM     25  C   UNL     1       6.529   5.233  17.653  0.00  0.00    +0.000 A 
ATOM     26  N   UNL     1       6.255   4.386  16.598  0.00  0.00    +0.000 NA
ATOM     27  C   UNL     1       6.767   4.997  15.550  0.00  0.00    +0.000 A 
ATOM     28  O   UNL     1       7.370   6.195  15.839  0.00  0.00    +0.000 OA
ATOM     29  C   UNL     1       7.201   6.343  17.185  0.00  0.00    +0.000 A 
ATOM     30  C   UNL     1       7.664   7.599  17.797  0.00  0.00    +0.000 C 
BRANCH  27  31
ATOM     31  C   UNL     1       6.725   4.608  14.143  0.00  0.00    +0.000 A 
ATOM     32  C   UNL     1       7.629   5.179  13.234  0.00  0.00    +0.000 A 
ATOM     33  C   UNL     1       7.623   4.804  11.889  0.00  0.00    +0.000 A 
ATOM     34  C   UNL     1       6.711   3.854  11.434  0.00  0.00    +0.000 A 
ATOM     35  C   UNL     1       5.804   3.281  12.323  0.00  0.00    +0.000 A 
ATOM     36  C   UNL     1       5.811   3.655  13.669  0.00  0.00    +0.000 A 
ENDBRANCH  27  31
ENDBRANCH  24  25
ENDBRANCH   1  24
TORSDOF 11
ENDMDL
MODEL 8
REMARK VINA RESULT:      -8.6      1.302      2.153
REMARK  Name = 
REMARK  15 active torsions:
REMARK  status: ('A' for Active; 'I' for Inactive)
REMARK    1  A    between atoms: C_1  and  C_2
REMARK    2  A    between atoms: C_4  and  C_5
REMARK    3  A    between atoms: C_5  and  N_6
REMARK    4  A    between atoms: N_6  and  C_7
REMARK    5  A    between atoms: N_6  and  C_13
REMARK    6  A    between atoms: C_7  and  C_8
REMARK    7  A    between atoms: C_13  and  C_14
REMARK    8  A    between atoms: C_16  and  C_17
REMARK    9  A    between atoms: C_24  and  C_25
REMARK   10  A    between atoms: C_28  and  O_29
REMARK   11  A    between atoms: O_29  and  C_30
REMARK   12  A    between atoms: C_30  and  C_31
REMARK   13  A    between atoms: C_30  and  C_32
REMARK   14  A    between atoms: C_30  and  C_33
REMARK   15  A    between atoms: C_33  and  O_35
REMARK                            x       y       z     vdW  Elec       q    Type
REMARK                         _______ _______ _______ _____ _____    ______ ____
ROOT
ATOM      1  N   UNL     1       4.197   5.373  18.951  0.00  0.00    +0.000 NA
ENDROOT
BRANCH   1   2
ATOM      2  C   UNL     1       3.748   6.538  18.144  0.00  0.00    +0.000 C 
BRANCH   2   6
ATOM      3  C   UNL     1       0.904  10.564  17.856  0.00  0.00    +0.000 C 
ATOM      4  C   UNL     1       1.279   9.397  18.726  0.00  0.00    +0.000 A 
ATOM      5  C   UNL     1       2.278   8.569  18.179  0.00  0.00    +0.000 A 
ATOM      6  C   UNL     1       2.781   7.457  18.857  0.00  0.00    +0.000 A 
ATOM      7  C   UNL     1       2.358   7.226  20.163  0.00  0.00    +0.000 A 
ATOM      8  C   UNL     1       1.339   8.010  20.710  0.00  0.00    +0.000 A 
ATOM      9  C   UNL     1       0.730   9.041  19.972  0.00  0.00    +0.000 A 
BRANCH   9  10
ATOM     10  O   UNL     1      -0.372   9.553  20.618  0.00  0.00    +0.000 OA
BRANCH  10  11
ATOM     11  C   UNL     1      -0.263  10.696  21.497  0.00  0.00    +0.000 C 
ATOM     12  C   UNL     1      -0.604  10.220  22.916  0.00  0.00    +0.000 C 
ATOM     13  C   UNL     1       1.015  11.545  21.312  0.00  0.00    +0.000 C 
BRANCH  11  14
ATOM     14  C   UNL     1      -1.407  11.696  21.179  0.00  0.00    +0.000 C 
ATOM     15  O   UNL     1      -1.723  12.047  20.047  0.00  0.00    +0.000 OA
BRANCH  14  16
ATOM     16  O   UNL     1      -2.039  12.169  22.280  0.00  0.00    +0.000 OA
ATOM     17  H   UNL     1      -1.766  13.096  22.443  0.00  0.00    +0.000 HD
ENDBRANCH  14  16
ENDBRANCH  11  14
ENDBRANCH  10  11
ENDBRANCH   9  10
ENDBRANCH   2   6
ENDBRANCH   1   2
BRANCH   1  18
ATOM     18  C   UNL     1       3.839   4.106  18.275  0.00  0.00    +0.000 C 
BRANCH  18  19
ATOM     19  C   UNL     1       2.589   3.475  18.798  0.00  0.00    +0.000 A 
ATOM     20  C   UNL     1       1.300   3.347  18.320  0.00  0.00    +0.000 A 
ATOM     21  C   UNL     1       0.586   2.593  19.279  0.00  0.00    +0.000 A 
ATOM     22  C   UNL     1       1.480   2.306  20.285  0.00  0.00    +0.000 A 
ATOM     23  O   UNL     1       2.699   2.841  20.005  0.00  0.00    +0.000 OA
ENDBRANCH  18  19
ENDBRANCH   1  18
BRANCH   1  24
ATOM     24  C   UNL     1       5.667   5.441  19.120  0.00  0.00    +0.000 C 
BRANCH  24  25
ATOM     25  C   UNL     1       6.350   5.571  17.799  0.00  0.00    +0.000 A 
ATOM     26  N   UNL     1       6.051   4.717  16.755  0.00  0.00    +0.000 NA
ATOM     27  C   UNL     1       6.750   5.188  15.743  0.00  0.00    +0.000 A 
ATOM     28  O   UNL     1       7.498   6.298  16.045  0.00  0.00    +0.000 OA
ATOM     29  C   UNL     1       7.226   6.542  17.359  0.00  0.00    +0.000 A 
ATOM     30  C   UNL     1       7.814   7.747  17.966  0.00  0.00    +0.000 C 
BRANCH  27  31
ATOM     31  C   UNL     1       6.785   4.733  14.356  0.00  0.00    +0.000 A 
ATOM     32  C   UNL     1       5.932   3.698  13.941  0.00  0.00    +0.000 A 
ATOM     33  C   UNL     1       5.930   3.263  12.613  0.00  0.00    +0.000 A 
ATOM     34  C   UNL     1       6.783   3.855  11.685  0.00  0.00    +0.000 A 
ATOM     35  C   UNL     1       7.639   4.881  12.082  0.00  0.00    +0.000 A 
ATOM     36  C   UNL     1       7.639   5.317  13.409  0.00  0.00    +0.000 A 
ENDBRANCH  27  31
ENDBRANCH  24  25
ENDBRANCH   1  24
TORSDOF 11
ENDMDL
MODEL 9
REMARK VINA RESULT:      -8.4      3.510     10.534
REMARK  Name = 
REMARK  15 active torsions:
REMARK  status: ('A' for Active; 'I' for Inactive)
REMARK    1  A    between atoms: C_1  and  C_2
REMARK    2  A    between atoms: C_4  and  C_5
REMARK    3  A    between atoms: C_5  and  N_6
REMARK    4  A    between atoms: N_6  and  C_7
REMARK    5  A    between atoms: N_6  and  C_13
REMARK    6  A    between atoms: C_7  and  C_8
REMARK    7  A    between atoms: C_13  and  C_14
REMARK    8  A    between atoms: C_16  and  C_17
REMARK    9  A    between atoms: C_24  and  C_25
REMARK   10  A    between atoms: C_28  and  O_29
REMARK   11  A    between atoms: O_29  and  C_30
REMARK   12  A    between atoms: C_30  and  C_31
REMARK   13  A    between atoms: C_30  and  C_32
REMARK   14  A    between atoms: C_30  and  C_33
REMARK   15  A    between atoms: C_33  and  O_35
REMARK                            x       y       z     vdW  Elec       q    Type
REMARK                         _______ _______ _______ _____ _____    ______ ____
ROOT
ATOM      1  N   UNL     1       0.480  10.860  19.052  0.00  0.00    +0.000 NA
ENDROOT
BRANCH   1   2
ATOM      2  C   UNL     1       1.614  10.315  18.260  0.00  0.00    +0.000 C 
BRANCH   2   6
ATOM      3  C   UNL     1       4.270   6.338  17.034  0.00  0.00    +0.000 C 
ATOM      4  C   UNL     1       3.362   6.921  18.080  0.00  0.00    +0.000 A 
ATOM      5  C   UNL     1       2.870   8.202  17.765  0.00  0.00    +0.000 A 
ATOM      6  C   UNL     1       1.985   8.888  18.598  0.00  0.00    +0.000 A 
ATOM      7  C   UNL     1       1.488   8.236  19.723  0.00  0.00    +0.000 A 
ATOM      8  C   UNL     1       1.993   6.982  20.076  0.00  0.00    +0.000 A 
ATOM      9  C   UNL     1       2.993   6.352  19.313  0.00  0.00    +0.000 A 
BRANCH   9  10
ATOM     10  O   UNL     1       3.484   5.229  19.937  0.00  0.00    +0.000 OA
BRANCH  10  11
ATOM     11  C   UNL     1       2.905   3.924  19.700  0.00  0.00    +0.000 C 
ATOM     12  C   UNL     1       2.417   3.383  21.050  0.00  0.00    +0.000 C 
ATOM     13  C   UNL     1       1.931   3.849  18.502  0.00  0.00    +0.000 C 
BRANCH  11  14
ATOM     14  C   UNL     1       4.032   2.929  19.310  0.00  0.00    +0.000 C 
ATOM     15  O   UNL     1       3.856   1.734  19.102  0.00  0.00    +0.000 OA
BRANCH  14  16
ATOM     16  O   UNL     1       5.257   3.501  19.223  0.00  0.00    +0.000 OA
ATOM     17  H   UNL     1       5.941   2.855  19.494  0.00  0.00    +0.000 HD
ENDBRANCH  14  16
ENDBRANCH  11  14
ENDBRANCH  10  11
ENDBRANCH   9  10
ENDBRANCH   2   6
ENDBRANCH   1   2
BRANCH   1  18
ATOM     18  C   UNL     1       0.978  11.548  20.264  0.00  0.00    +0.000 C 
BRANCH  18  19
ATOM     19  C   UNL     1       0.043  11.471  21.429  0.00  0.00    +0.000 A 
ATOM     20  C   UNL     1      -0.439  10.441  22.212  0.00  0.00    +0.000 A 
ATOM     21  C   UNL     1      -1.266  11.033  23.194  0.00  0.00    +0.000 A 
ATOM     22  C   UNL     1      -1.240  12.387  22.951  0.00  0.00    +0.000 A 
ATOM     23  O   UNL     1      -0.452  12.664  21.878  0.00  0.00    +0.000 OA
ENDBRANCH  18  19
ENDBRANCH   1  18
BRANCH   1  24
ATOM     24  C   UNL     1      -0.273  11.824  18.215  0.00  0.00    +0.000 C 
BRANCH  24  25
ATOM     25  C   UNL     1      -1.741  11.570  18.301  0.00  0.00    +0.000 A 
ATOM     26  N   UNL     1      -2.522  12.211  19.243  0.00  0.00    +0.000 NA
ATOM     27  C   UNL     1      -3.751  11.831  18.957  0.00  0.00    +0.000 A 
ATOM     28  O   UNL     1      -3.838  10.975  17.888  0.00  0.00    +0.000 OA
ATOM     29  C   UNL     1      -2.549  10.824  17.468  0.00  0.00    +0.000 A 
ATOM     30  C   UNL     1      -2.316  10.023  16.256  0.00  0.00    +0.000 C 
BRANCH  27  31
ATOM     31  C   UNL     1      -5.009  12.241  19.573  0.00  0.00    +0.000 A 
ATOM     32  C   UNL     1      -6.182  11.517  19.310  0.00  0.00    +0.000 A 
ATOM     33  C   UNL     1      -7.393  11.877  19.907  0.00  0.00    +0.000 A 
ATOM     34  C   UNL     1      -7.446  12.966  20.774  0.00  0.00    +0.000 A 
ATOM     35  C   UNL     1      -6.290  13.698  21.042  0.00  0.00    +0.000 A 
ATOM     36  C   UNL     1      -5.079  13.338  20.445  0.00  0.00    +0.000 A 
ENDBRANCH  27  31
ENDBRANCH  24  25
ENDBRANCH   1  24
TORSDOF 11
ENDMDL
