MODEL 1
REMARK VINA RESULT:      -8.0      0.000      0.000
REMARK  Name = 
REMARK  6 active torsions:
REMARK  status: ('A' for Active; 'I' for Inactive)
REMARK    1  A    between atoms: C_1  and  C_2
REMARK    2  A    between atoms: C_2  and  C_3
REMARK    3  A    between atoms: C_2  and  C_17
REMARK    4  A    between atoms: C_3  and  N_4
REMARK    5  A    between atoms: N_7  and  C_8
REMARK    6  A    between atoms: C_17  and  N_18
REMARK                            x       y       z     vdW  Elec       q    Type
REMARK                         _______ _______ _______ _____ _____    ______ ____
ROOT
ATOM      1  C   UNL     1       5.108   5.516  19.204  0.00  0.00    +0.000 C 
ENDROOT
BRANCH   1   2
ATOM      2  N   UNL     1       5.760   4.332  18.610  0.00  0.00    +0.000 NA
ATOM      3  C   UNL     1       4.892   3.745  17.554  0.00  0.00    +0.000 C 
ATOM      4  C   UNL     1       4.719   4.623  16.290  0.00  0.00    +0.000 C 
ATOM      5  N   UNL     1       6.018   5.069  15.758  0.00  0.00    +0.000 N 
ATOM      6  C   UNL     1       6.977   5.593  16.747  0.00  0.00    +0.000 C 
ATOM      7  C   UNL     1       7.062   4.652  17.972  0.00  0.00    +0.000 C 
BRANCH   5   8
ATOM      8  C   UNL     1       6.442   4.775  14.476  0.00  0.00    +0.000 A 
ATOM      9  C   UNL     1       7.503   5.458  13.862  0.00  0.00    +0.000 A 
ATOM     10  C   UNL     1       7.924   5.156  12.561  0.00  0.00    +0.000 A 
ATOM     11  C   UNL     1       7.285   4.154  11.841  0.00  0.00    +0.000 A 
ATOM     12  C   UNL     1       6.233   3.459  12.428  0.00  0.00    +0.000 A 
ATOM     13 CL   UNL     1       5.436   2.213  11.548  0.00  0.00    +0.000 Cl
ATOM     14  C   UNL     1       5.819   3.764  13.725  0.00  0.00    +0.000 A 
ENDBRANCH   5   8
ENDBRANCH   1   2
BRANCH   1  16
ATOM     15  C   UNL     1       3.461   3.773  20.032  0.00  0.00    +0.000 C 
ATOM     16  C   UNL     1       3.709   5.268  19.812  0.00  0.00    +0.000 C 
BRANCH  16  17
ATOM     17  C   UNL     1       2.607   5.855  18.909  0.00  0.00    +0.000 C 
BRANCH  17  18
ATOM     18  N   UNL     1       1.993   7.045  19.458  0.00  0.00    +0.000 N 
ATOM     19  N   UNL     1       1.590   7.148  20.779  0.00  0.00    +0.000 NA
ATOM     20  C   UNL     1       1.196   8.383  20.880  0.00  0.00    +0.000 A 
ATOM     21  C   UNL     1       0.656   9.066  22.076  0.00  0.00    +0.000 A 
ATOM     22  C   UNL     1       0.320  10.363  21.959  0.00  0.00    +0.000 A 
ATOM     23  C   UNL     1       0.481  11.076  20.704  0.00  0.00    +0.000 A 
ATOM     24  C   UNL     1       0.970  10.437  19.630  0.00  0.00    +0.000 A 
ATOM     25  N   UNL     1       1.306   9.118  19.742  0.00  0.00    +0.000 N 
ATOM     26  C   UNL     1       1.841   8.277  18.797  0.00  0.00    +0.000 A 
ATOM     27  O   UNL     1       2.151   8.540  17.645  0.00  0.00    +0.000 OA
ENDBRANCH  17  18
ENDBRANCH  16  17
ENDBRANCH   1  16
TORSDOF 5
ENDMDL
MODEL 2
REMARK VINA RESULT:      -7.9      3.752      7.633
REMARK  Name = 
REMARK  6 active torsions:
REMARK  status: ('A' for Active; 'I' for Inactive)
REMARK    1  A    between atoms: C_1  and  C_2
REMARK    2  A    between atoms: C_2  and  C_3
REMARK    3  A    between atoms: C_2  and  C_17
REMARK    4  A    between atoms: C_3  and  N_4
REMARK    5  A    between atoms: N_7  and  C_8
REMARK    6  A    between atoms: C_17  and  N_18
REMARK                            x       y       z     vdW  Elec       q    Type
REMARK                         _______ _______ _______ _____ _____    ______ ____
ROOT
ATOM      1  C   UNL     1       3.115   3.553  19.712  0.00  0.00    +0.000 C 
ENDROOT
BRANCH   1   2
ATOM      2  N   UNL     1       1.843   4.108  19.205  0.00  0.00    +0.000 NA
ATOM      3  C   UNL     1       1.046   4.671  20.328  0.00  0.00    +0.000 C 
ATOM      4  C   UNL     1       1.651   5.936  20.986  0.00  0.00    +0.000 C 
ATOM      5  N   UNL     1       1.997   6.956  19.982  0.00  0.00    +0.000 N 
ATOM      6  C   UNL     1       2.720   6.474  18.791  0.00  0.00    +0.000 C 
ATOM      7  C   UNL     1       2.044   5.203  18.224  0.00  0.00    +0.000 C 
BRANCH   5   8
ATOM      8  C   UNL     1       1.457   8.229  19.992  0.00  0.00    +0.000 A 
ATOM      9  C   UNL     1       1.504   9.072  18.872  0.00  0.00    +0.000 A 
ATOM     10  C   UNL     1       0.958  10.361  18.892  0.00  0.00    +0.000 A 
ATOM     11  C   UNL     1       0.347  10.837  20.046  0.00  0.00    +0.000 A 
ATOM     12  C   UNL     1       0.283  10.020  21.169  0.00  0.00    +0.000 A 
ATOM     13 CL   UNL     1      -0.475  10.595  22.603  0.00  0.00    +0.000 Cl
ATOM     14  C   UNL     1       0.829   8.735  21.142  0.00  0.00    +0.000 A 
ENDBRANCH   5   8
ENDBRANCH   1   2
BRANCH   1  16
ATOM     15  C   UNL     1       4.594   1.496  19.846  0.00  0.00    +0.000 C 
ATOM     16  C   UNL     1       3.638   2.306  18.966  0.00  0.00    +0.000 C 
BRANCH  16  17
ATOM     17  C   UNL     1       4.345   2.707  17.656  0.00  0.00    +0.000 C 
BRANCH  17  18
ATOM     18  N   UNL     1       5.171   3.887  17.791  0.00  0.00    +0.000 N 
ATOM     19  N   UNL     1       6.073   4.065  18.826  0.00  0.00    +0.000 NA
ATOM     20  C   UNL     1       6.667   5.181  18.522  0.00  0.00    +0.000 A 
ATOM     21  C   UNL     1       7.737   5.872  19.275  0.00  0.00    +0.000 A 
ATOM     22  C   UNL     1       8.222   7.018  18.767  0.00  0.00    +0.000 A 
ATOM     23  C   UNL     1       7.718   7.566  17.519  0.00  0.00    +0.000 A 
ATOM     24  C   UNL     1       6.745   6.924  16.852  0.00  0.00    +0.000 A 
ATOM     25  N   UNL     1       6.245   5.762  17.369  0.00  0.00    +0.000 N 
ATOM     26  C   UNL     1       5.278   4.933  16.856  0.00  0.00    +0.000 A 
ATOM     27  O   UNL     1       4.665   5.050  15.806  0.00  0.00    +0.000 OA
ENDBRANCH  17  18
ENDBRANCH  16  17
ENDBRANCH   1  16
TORSDOF 5
ENDMDL
MODEL 3
REMARK VINA RESULT:      -7.9      3.599      8.278
REMARK  Name = 
REMARK  6 active torsions:
REMARK  status: ('A' for Active; 'I' for Inactive)
REMARK    1  A    between atoms: C_1  and  C_2
REMARK    2  A    between atoms: C_2  and  C_3
REMARK    3  A    between atoms: C_2  and  C_17
REMARK    4  A    between atoms: C_3  and  N_4
REMARK    5  A    between atoms: N_7  and  C_8
REMARK    6  A    between atoms: C_17  and  N_18
REMARK                            x       y       z     vdW  Elec       q    Type
REMARK                         _______ _______ _______ _____ _____    ______ ____
ROOT
ATOM      1  C   UNL     1       1.578   5.880  18.949  0.00  0.00    +0.000 C 
ENDROOT
BRANCH   1   2
ATOM      2  N   UNL     1       2.538   6.885  19.449  0.00  0.00    +0.000 NA
ATOM      3  C   UNL     1       3.041   7.717  18.323  0.00  0.00    +0.000 C 
ATOM      4  C   UNL     1       1.986   8.647  17.675  0.00  0.00    +0.000 C 
ATOM      5  N   UNL     1       1.279   9.451  18.688  0.00  0.00    +0.000 N 
ATOM      6  C   UNL     1       0.812   8.723  19.881  0.00  0.00    +0.000 C 
ATOM      7  C   UNL     1       1.935   7.815  20.437  0.00  0.00    +0.000 C 
BRANCH   5   8
ATOM      8  C   UNL     1       1.280  10.833  18.679  0.00  0.00    +0.000 A 
ATOM      9  C   UNL     1       2.335  11.578  18.130  0.00  0.00    +0.000 A 
ATOM     10  C   UNL     1       2.329  12.978  18.128  0.00  0.00    +0.000 A 
ATOM     11  C   UNL     1       1.258  13.667  18.682  0.00  0.00    +0.000 A 
ATOM     12  C   UNL     1       0.198  12.953  19.230  0.00  0.00    +0.000 A 
ATOM     13 CL   UNL     1      -1.138  13.795  19.915  0.00  0.00    +0.000 Cl
ATOM     14  C   UNL     1       0.209  11.557  19.227  0.00  0.00    +0.000 A 
ENDBRANCH   5   8
ENDBRANCH   1   2
BRANCH   1  16
ATOM     15  C   UNL     1       0.976   3.935  20.463  0.00  0.00    +0.000 C 
ATOM     16  C   UNL     1       1.890   4.417  19.333  0.00  0.00    +0.000 C 
BRANCH  16  17
ATOM     17  C   UNL     1       3.365   4.262  19.752  0.00  0.00    +0.000 C 
BRANCH  17  18
ATOM     18  N   UNL     1       4.283   4.288  18.633  0.00  0.00    +0.000 N 
ATOM     19  N   UNL     1       3.894   4.026  17.330  0.00  0.00    +0.000 NA
ATOM     20  C   UNL     1       4.972   4.251  16.640  0.00  0.00    +0.000 A 
ATOM     21  C   UNL     1       5.154   4.132  15.178  0.00  0.00    +0.000 A 
ATOM     22  C   UNL     1       6.362   4.430  14.669  0.00  0.00    +0.000 A 
ATOM     23  C   UNL     1       7.458   4.857  15.521  0.00  0.00    +0.000 A 
ATOM     24  C   UNL     1       7.274   4.956  16.847  0.00  0.00    +0.000 A 
ATOM     25  N   UNL     1       6.049   4.648  17.369  0.00  0.00    +0.000 N 
ATOM     26  C   UNL     1       5.627   4.699  18.675  0.00  0.00    +0.000 A 
ATOM     27  O   UNL     1       6.260   5.055  19.657  0.00  0.00    +0.000 OA
ENDBRANCH  17  18
ENDBRANCH  16  17
ENDBRANCH   1  16
TORSDOF 5
ENDMDL
MODEL 4
REMARK VINA RESULT:      -7.8      3.427      7.704
REMARK  Name = 
REMARK  6 active torsions:
REMARK  status: ('A' for Active; 'I' for Inactive)
REMARK    1  A    between atoms: C_1  and  C_2
REMARK    2  A    between atoms: C_2  and  C_3
REMARK    3  A    between atoms: C_2  and  C_17
REMARK    4  A    between atoms: C_3  and  N_4
REMARK    5  A    between atoms: N_7  and  C_8
REMARK    6  A    between atoms: C_17  and  N_18
REMARK                            x       y       z     vdW  Elec       q    Type
REMARK                         _______ _______ _______ _____ _____    ______ ____
ROOT
ATOM      1  C   UNL     1       3.134   3.883  19.102  0.00  0.00    +0.000 C 
ENDROOT
BRANCH   1   2
ATOM      2  N   UNL     1       1.833   4.505  18.784  0.00  0.00    +0.000 NA
ATOM      3  C   UNL     1       1.068   4.759  20.035  0.00  0.00    +0.000 C 
ATOM      4  C   UNL     1       1.671   5.846  20.959  0.00  0.00    +0.000 C 
ATOM      5  N   UNL     1       1.956   7.088  20.219  0.00  0.00    +0.000 N 
ATOM      6  C   UNL     1       2.643   6.926  18.925  0.00  0.00    +0.000 C 
ATOM      7  C   UNL     1       1.973   5.810  18.090  0.00  0.00    +0.000 C 
BRANCH   5   8
ATOM      8  C   UNL     1       1.391   8.304  20.553  0.00  0.00    +0.000 A 
ATOM      9  C   UNL     1       0.971   8.602  21.858  0.00  0.00    +0.000 A 
ATOM     10  C   UNL     1       0.397   9.836  22.187  0.00  0.00    +0.000 A 
ATOM     11  C   UNL     1       0.229  10.805  21.207  0.00  0.00    +0.000 A 
ATOM     12  C   UNL     1       0.639  10.537  19.906  0.00  0.00    +0.000 A 
ATOM     13 CL   UNL     1       0.442  11.731  18.683  0.00  0.00    +0.000 Cl
ATOM     14  C   UNL     1       1.213   9.305  19.585  0.00  0.00    +0.000 A 
ENDBRANCH   5   8
ENDBRANCH   1   2
BRANCH   1  16
ATOM     15  C   UNL     1       4.183   1.573  19.060  0.00  0.00    +0.000 C 
ATOM     16  C   UNL     1       3.522   2.673  18.224  0.00  0.00    +0.000 C 
BRANCH  16  17
ATOM     17  C   UNL     1       4.466   3.102  17.084  0.00  0.00    +0.000 C 
BRANCH  17  18
ATOM     18  N   UNL     1       5.301   4.233  17.428  0.00  0.00    +0.000 N 
ATOM     19  N   UNL     1       6.188   4.221  18.492  0.00  0.00    +0.000 NA
ATOM     20  C   UNL     1       6.798   5.365  18.390  0.00  0.00    +0.000 A 
ATOM     21  C   UNL     1       7.862   5.906  19.264  0.00  0.00    +0.000 A 
ATOM     22  C   UNL     1       8.366   7.115  18.964  0.00  0.00    +0.000 A 
ATOM     23  C   UNL     1       7.887   7.873  17.820  0.00  0.00    +0.000 A 
ATOM     24  C   UNL     1       6.919   7.365  17.041  0.00  0.00    +0.000 A 
ATOM     25  N   UNL     1       6.400   6.139  17.346  0.00  0.00    +0.000 N 
ATOM     26  C   UNL     1       5.433   5.420  16.686  0.00  0.00    +0.000 A 
ATOM     27  O   UNL     1       4.839   5.721  15.662  0.00  0.00    +0.000 OA
ENDBRANCH  17  18
ENDBRANCH  16  17
ENDBRANCH   1  16
TORSDOF 5
ENDMDL
MODEL 5
REMARK VINA RESULT:      -7.8      3.467      9.038
REMARK  Name = 
REMARK  6 active torsions:
REMARK  status: ('A' for Active; 'I' for Inactive)
REMARK    1  A    between atoms: C_1  and  C_2
REMARK    2  A    between atoms: C_2  and  C_3
REMARK    3  A    between atoms: C_2  and  C_17
REMARK    4  A    between atoms: C_3  and  N_4
REMARK    5  A    between atoms: N_7  and  C_8
REMARK    6  A    between atoms: C_17  and  N_18
REMARK                            x       y       z     vdW  Elec       q    Type
REMARK                         _______ _______ _______ _____ _____    ______ ____
ROOT
ATOM      1  C   UNL     1       3.941   5.673  18.543  0.00  0.00    +0.000 C 
ENDROOT
BRANCH   1   2
ATOM      2  N   UNL     1       2.484   5.774  18.322  0.00  0.00    +0.000 NA
ATOM      3  C   UNL     1       1.775   5.877  19.626  0.00  0.00    +0.000 C 
ATOM      4  C   UNL     1       2.024   7.194  20.402  0.00  0.00    +0.000 C 
ATOM      5  N   UNL     1       1.798   8.375  19.550  0.00  0.00    +0.000 N 
ATOM      6  C   UNL     1       2.399   8.327  18.205  0.00  0.00    +0.000 C 
ATOM      7  C   UNL     1       2.104   6.968  17.527  0.00  0.00    +0.000 C 
BRANCH   5   8
ATOM      8  C   UNL     1       0.867   9.350  19.856  0.00  0.00    +0.000 A 
ATOM      9  C   UNL     1       0.316  10.192  18.878  0.00  0.00    +0.000 A 
ATOM     10  C   UNL     1      -0.624  11.180  19.197  0.00  0.00    +0.000 A 
ATOM     11  C   UNL     1      -1.036  11.345  20.514  0.00  0.00    +0.000 A 
ATOM     12  C   UNL     1      -0.508  10.521  21.501  0.00  0.00    +0.000 A 
ATOM     13 CL   UNL     1      -1.013  10.712  23.135  0.00  0.00    +0.000 Cl
ATOM     14  C   UNL     1       0.428   9.537  21.176  0.00  0.00    +0.000 A 
ENDBRANCH   5   8
ENDBRANCH   1   2
BRANCH   1  16
ATOM     15  C   UNL     1       4.377   3.288  19.289  0.00  0.00    +0.000 C 
ATOM     16  C   UNL     1       4.576   4.315  18.171  0.00  0.00    +0.000 C 
BRANCH  16  17
ATOM     17  C   UNL     1       6.079   4.475  17.869  0.00  0.00    +0.000 C 
BRANCH  17  18
ATOM     18  N   UNL     1       6.389   4.403  16.457  0.00  0.00    +0.000 N 
ATOM     19  N   UNL     1       5.804   3.485  15.601  0.00  0.00    +0.000 NA
ATOM     20  C   UNL     1       6.270   3.821  14.434  0.00  0.00    +0.000 A 
ATOM     21  C   UNL     1       5.986   3.185  13.129  0.00  0.00    +0.000 A 
ATOM     22  C   UNL     1       6.570   3.708  12.037  0.00  0.00    +0.000 A 
ATOM     23  C   UNL     1       7.450   4.861  12.127  0.00  0.00    +0.000 A 
ATOM     24  C   UNL     1       7.696   5.421  13.321  0.00  0.00    +0.000 A 
ATOM     25  N   UNL     1       7.110   4.889  14.435  0.00  0.00    +0.000 N 
ATOM     26  C   UNL     1       7.196   5.304  15.741  0.00  0.00    +0.000 A 
ATOM     27  O   UNL     1       7.808   6.263  16.187  0.00  0.00    +0.000 OA
ENDBRANCH  17  18
ENDBRANCH  16  17
ENDBRANCH   1  16
TORSDOF 5
ENDMDL
MODEL 6
REMARK VINA RESULT:      -7.8      3.363      7.552
REMARK  Name = 
REMARK  6 active torsions:
REMARK  status: ('A' for Active; 'I' for Inactive)
REMARK    1  A    between atoms: C_1  and  C_2
REMARK    2  A    between atoms: C_2  and  C_3
REMARK    3  A    between atoms: C_2  and  C_17
REMARK    4  A    between atoms: C_3  and  N_4
REMARK    5  A    between atoms: N_7  and  C_8
REMARK    6  A    between atoms: C_17  and  N_18
REMARK                            x       y       z     vdW  Elec       q    Type
REMARK                         _______ _______ _______ _____ _____    ______ ____
ROOT
ATOM      1  C   UNL     1       4.315   5.528  16.912  0.00  0.00    +0.000 C 
ENDROOT
BRANCH   1   2
ATOM      2  N   UNL     1       4.758   6.522  17.912  0.00  0.00    +0.000 NA
ATOM      3  C   UNL     1       4.254   7.874  17.546  0.00  0.00    +0.000 C 
ATOM      4  C   UNL     1       2.718   8.047  17.650  0.00  0.00    +0.000 C 
ATOM      5  N   UNL     1       2.210   7.599  18.959  0.00  0.00    +0.000 N 
ATOM      6  C   UNL     1       2.719   6.302  19.440  0.00  0.00    +0.000 C 
ATOM      7  C   UNL     1       4.256   6.228  19.277  0.00  0.00    +0.000 C 
BRANCH   5   8
ATOM      8  C   UNL     1       1.523   8.434  19.820  0.00  0.00    +0.000 A 
ATOM      9  C   UNL     1       1.351   8.129  21.179  0.00  0.00    +0.000 A 
ATOM     10  C   UNL     1       0.651   8.979  22.044  0.00  0.00    +0.000 A 
ATOM     11  C   UNL     1       0.104  10.162  21.562  0.00  0.00    +0.000 A 
ATOM     12  C   UNL     1       0.264  10.488  20.221  0.00  0.00    +0.000 A 
ATOM     13 CL   UNL     1      -0.404  11.953  19.612  0.00  0.00    +0.000 Cl
ATOM     14  C   UNL     1       0.964   9.638  19.363  0.00  0.00    +0.000 A 
ENDBRANCH   5   8
ENDBRANCH   1   2
BRANCH   1  16
ATOM     15  C   UNL     1       5.820   4.719  15.037  0.00  0.00    +0.000 C 
ATOM     16  C   UNL     1       5.383   4.496  16.487  0.00  0.00    +0.000 C 
BRANCH  16  17
ATOM     17  C   UNL     1       4.855   3.058  16.660  0.00  0.00    +0.000 C 
BRANCH  17  18
ATOM     18  N   UNL     1       3.983   2.903  17.804  0.00  0.00    +0.000 N 
ATOM     19  N   UNL     1       4.453   2.733  19.096  0.00  0.00    +0.000 NA
ATOM     20  C   UNL     1       3.371   2.737  19.816  0.00  0.00    +0.000 A 
ATOM     21  C   UNL     1       3.258   2.592  21.283  0.00  0.00    +0.000 A 
ATOM     22  C   UNL     1       2.029   2.640  21.826  0.00  0.00    +0.000 A 
ATOM     23  C   UNL     1       0.845   2.829  21.004  0.00  0.00    +0.000 A 
ATOM     24  C   UNL     1       0.969   2.957  19.674  0.00  0.00    +0.000 A 
ATOM     25  N   UNL     1       2.216   2.902  19.118  0.00  0.00    +0.000 N 
ATOM     26  C   UNL     1       2.583   3.031  17.800  0.00  0.00    +0.000 A 
ATOM     27  O   UNL     1       1.864   3.243  16.836  0.00  0.00    +0.000 OA
ENDBRANCH  17  18
ENDBRANCH  16  17
ENDBRANCH   1  16
TORSDOF 5
ENDMDL
MODEL 7
REMARK VINA RESULT:      -7.8      3.287      8.381
REMARK  Name = 
REMARK  6 active torsions:
REMARK  status: ('A' for Active; 'I' for Inactive)
REMARK    1  A    between atoms: C_1  and  C_2
REMARK    2  A    between atoms: C_2  and  C_3
REMARK    3  A    between atoms: C_2  and  C_17
REMARK    4  A    between atoms: C_3  and  N_4
REMARK    5  A    between atoms: N_7  and  C_8
REMARK    6  A    between atoms: C_17  and  N_18
REMARK                            x       y       z     vdW  Elec       q    Type
REMARK                         _______ _______ _______ _____ _____    ______ ____
ROOT
ATOM      1  C   UNL     1       1.292   6.115  20.108  0.00  0.00    +0.000 C 
ENDROOT
BRANCH   1   2
ATOM      2  N   UNL     1       2.253   7.236  20.157  0.00  0.00    +0.000 NA
ATOM      3  C   UNL     1       2.422   7.825  18.802  0.00  0.00    +0.000 C 
ATOM      4  C   UNL     1       1.176   8.560  18.250  0.00  0.00    +0.000 C 
ATOM      5  N   UNL     1       0.650   9.536  19.220  0.00  0.00    +0.000 N 
ATOM      6  C   UNL     1       0.522   9.063  20.610  0.00  0.00    +0.000 C 
ATOM      7  C   UNL     1       1.811   8.333  21.054  0.00  0.00    +0.000 C 
BRANCH   5   8
ATOM      8  C   UNL     1       0.535  10.885  18.937  0.00  0.00    +0.000 A 
ATOM      9  C   UNL     1      -0.709  11.527  18.841  0.00  0.00    +0.000 A 
ATOM     10  C   UNL     1      -0.816  12.893  18.551  0.00  0.00    +0.000 A 
ATOM     11  C   UNL     1       0.331  13.650  18.349  0.00  0.00    +0.000 A 
ATOM     12  C   UNL     1       1.576  13.038  18.442  0.00  0.00    +0.000 A 
ATOM     13 CL   UNL     1       3.005  13.967  18.199  0.00  0.00    +0.000 Cl
ATOM     14  C   UNL     1       1.676  11.677  18.733  0.00  0.00    +0.000 A 
ENDBRANCH   5   8
ENDBRANCH   1   2
BRANCH   1  16
ATOM     15  C   UNL     1       0.949   3.614  19.850  0.00  0.00    +0.000 C 
ATOM     16  C   UNL     1       1.826   4.812  19.473  0.00  0.00    +0.000 C 
BRANCH  16  17
ATOM     17  C   UNL     1       3.283   4.549  19.902  0.00  0.00    +0.000 C 
BRANCH  17  18
ATOM     18  N   UNL     1       4.203   4.482  18.787  0.00  0.00    +0.000 N 
ATOM     19  N   UNL     1       3.796   4.258  17.482  0.00  0.00    +0.000 NA
ATOM     20  C   UNL     1       4.895   4.373  16.798  0.00  0.00    +0.000 A 
ATOM     21  C   UNL     1       5.071   4.234  15.336  0.00  0.00    +0.000 A 
ATOM     22  C   UNL     1       6.305   4.409  14.833  0.00  0.00    +0.000 A 
ATOM     23  C   UNL     1       7.434   4.726  15.690  0.00  0.00    +0.000 A 
ATOM     24  C   UNL     1       7.254   4.845  17.015  0.00  0.00    +0.000 A 
ATOM     25  N   UNL     1       6.003   4.662  17.531  0.00  0.00    +0.000 N 
ATOM     26  C   UNL     1       5.582   4.757  18.835  0.00  0.00    +0.000 A 
ATOM     27  O   UNL     1       6.243   5.048  19.820  0.00  0.00    +0.000 OA
ENDBRANCH  17  18
ENDBRANCH  16  17
ENDBRANCH   1  16
TORSDOF 5
ENDMDL
MODEL 8
REMARK VINA RESULT:      -7.7      1.026      1.588
REMARK  Name = 
REMARK  6 active torsions:
REMARK  status: ('A' for Active; 'I' for Inactive)
REMARK    1  A    between atoms: C_1  and  C_2
REMARK    2  A    between atoms: C_2  and  C_3
REMARK    3  A    between atoms: C_2  and  C_17
REMARK    4  A    between atoms: C_3  and  N_4
REMARK    5  A    between atoms: N_7  and  C_8
REMARK    6  A    between atoms: C_17  and  N_18
REMARK                            x       y       z     vdW  Elec       q    Type
REMARK                         _______ _______ _______ _____ _____    ______ ____
ROOT
ATOM      1  C   UNL     1       5.092   5.422  19.160  0.00  0.00    +0.000 C 
ENDROOT
BRANCH   1   2
ATOM      2  N   UNL     1       5.792   4.265  18.565  0.00  0.00    +0.000 NA
ATOM      3  C   UNL     1       4.942   3.635  17.519  0.00  0.00    +0.000 C 
ATOM      4  C   UNL     1       4.717   4.498  16.253  0.00  0.00    +0.000 C 
ATOM      5  N   UNL     1       5.990   4.999  15.707  0.00  0.00    +0.000 N 
ATOM      6  C   UNL     1       6.933   5.571  16.685  0.00  0.00    +0.000 C 
ATOM      7  C   UNL     1       7.072   4.641  17.913  0.00  0.00    +0.000 C 
BRANCH   5   8
ATOM      8  C   UNL     1       6.415   4.718  14.422  0.00  0.00    +0.000 A 
ATOM      9  C   UNL     1       7.491   5.392  13.825  0.00  0.00    +0.000 A 
ATOM     10  C   UNL     1       7.912   5.104  12.521  0.00  0.00    +0.000 A 
ATOM     11  C   UNL     1       7.259   4.125  11.782  0.00  0.00    +0.000 A 
ATOM     12  C   UNL     1       6.192   3.440  12.352  0.00  0.00    +0.000 A 
ATOM     13 CL   UNL     1       5.377   2.222  11.448  0.00  0.00    +0.000 Cl
ATOM     14  C   UNL     1       5.777   3.732  13.653  0.00  0.00    +0.000 A 
ENDBRANCH   5   8
ENDBRANCH   1   2
BRANCH   1  16
ATOM     15  C   UNL     1       3.599   3.608  20.117  0.00  0.00    +0.000 C 
ATOM     16  C   UNL     1       3.734   5.105  19.824  0.00  0.00    +0.000 C 
BRANCH  16  17
ATOM     17  C   UNL     1       2.566   5.571  18.933  0.00  0.00    +0.000 C 
BRANCH  17  18
ATOM     18  N   UNL     1       2.249   6.974  19.095  0.00  0.00    +0.000 N 
ATOM     19  N   UNL     1       2.426   7.909  18.089  0.00  0.00    +0.000 NA
ATOM     20  C   UNL     1       1.935   8.999  18.599  0.00  0.00    +0.000 A 
ATOM     21  C   UNL     1       1.852  10.336  17.972  0.00  0.00    +0.000 A 
ATOM     22  C   UNL     1       1.288  11.329  18.682  0.00  0.00    +0.000 A 
ATOM     23  C   UNL     1       0.773  11.103  20.022  0.00  0.00    +0.000 A 
ATOM     24  C   UNL     1       0.860   9.883  20.574  0.00  0.00    +0.000 A 
ATOM     25  N   UNL     1       1.439   8.873  19.858  0.00  0.00    +0.000 N 
ATOM     26  C   UNL     1       1.613   7.556  20.206  0.00  0.00    +0.000 A 
ATOM     27  O   UNL     1       1.266   6.996  21.235  0.00  0.00    +0.000 OA
ENDBRANCH  17  18
ENDBRANCH  16  17
ENDBRANCH   1  16
TORSDOF 5
ENDMDL
MODEL 9
REMARK VINA RESULT:      -7.7      3.506      7.643
REMARK  Name = 
REMARK  6 active torsions:
REMARK  status: ('A' for Active; 'I' for Inactive)
REMARK    1  A    between atoms: C_1  and  C_2
REMARK    2  A    between atoms: C_2  and  C_3
REMARK    3  A    between atoms: C_2  and  C_17
REMARK    4  A    between atoms: C_3  and  N_4
REMARK    5  A    between atoms: N_7  and  C_8
REMARK    6  A    between atoms: C_17  and  N_18
REMARK                            x       y       z     vdW  Elec       q    Type
REMARK                         _______ _______ _______ _____ _____    ______ ____
ROOT
ATOM      1  C   UNL     1       4.255   5.713  16.746  0.00  0.00    +0.000 C 
ENDROOT
BRANCH   1   2
ATOM      2  N   UNL     1       4.706   6.724  17.724  0.00  0.00    +0.000 NA
ATOM      3  C   UNL     1       4.132   8.055  17.385  0.00  0.00    +0.000 C 
ATOM      4  C   UNL     1       2.598   8.169  17.563  0.00  0.00    +0.000 C 
ATOM      5  N   UNL     1       2.172   7.701  18.893  0.00  0.00    +0.000 N 
ATOM      6  C   UNL     1       2.753   6.425  19.348  0.00  0.00    +0.000 C 
ATOM      7  C   UNL     1       4.281   6.411  19.111  0.00  0.00    +0.000 C 
BRANCH   5   8
ATOM      8  C   UNL     1       1.495   8.509  19.788  0.00  0.00    +0.000 A 
ATOM      9  C   UNL     1       1.391   8.193  21.151  0.00  0.00    +0.000 A 
ATOM     10  C   UNL     1       0.700   9.016  22.050  0.00  0.00    +0.000 A 
ATOM     11  C   UNL     1       0.095  10.181  21.598  0.00  0.00    +0.000 A 
ATOM     12  C   UNL     1       0.186  10.519  20.253  0.00  0.00    +0.000 A 
ATOM     13 CL   UNL     1      -0.556  11.963  19.681  0.00  0.00    +0.000 Cl
ATOM     14  C   UNL     1       0.877   9.695  19.362  0.00  0.00    +0.000 A 
ENDBRANCH   5   8
ENDBRANCH   1   2
BRANCH   1  16
ATOM     15  C   UNL     1       5.600   4.816  14.790  0.00  0.00    +0.000 C 
ATOM     16  C   UNL     1       5.332   4.702  16.293  0.00  0.00    +0.000 C 
BRANCH  16  17
ATOM     17  C   UNL     1       4.914   3.261  16.643  0.00  0.00    +0.000 C 
BRANCH  17  18
ATOM     18  N   UNL     1       3.960   3.190  17.729  0.00  0.00    +0.000 N 
ATOM     19  N   UNL     1       2.593   3.094  17.530  0.00  0.00    +0.000 NA
ATOM     20  C   UNL     1       2.121   2.954  18.733  0.00  0.00    +0.000 A 
ATOM     21  C   UNL     1       0.707   2.803  19.140  0.00  0.00    +0.000 A 
ATOM     22  C   UNL     1       0.442   2.657  20.450  0.00  0.00    +0.000 A 
ATOM     23  C   UNL     1       1.506   2.645  21.440  0.00  0.00    +0.000 A 
ATOM     24  C   UNL     1       2.782   2.786  21.050  0.00  0.00    +0.000 A 
ATOM     25  N   UNL     1       3.055   2.941  19.721  0.00  0.00    +0.000 N 
ATOM     26  C   UNL     1       4.270   3.077  19.096  0.00  0.00    +0.000 A 
ATOM     27  O   UNL     1       5.382   3.068  19.602  0.00  0.00    +0.000 OA
ENDBRANCH  17  18
ENDBRANCH  16  17
ENDBRANCH   1  16
TORSDOF 5
ENDMDL
