MODEL 1
REMARK VINA RESULT:      -8.4      0.000      0.000
REMARK  Name = 
REMARK  9 active torsions:
REMARK  status: ('A' for Active; 'I' for Inactive)
REMARK    1  A    between atoms: C_1  and  C_2
REMARK    2  A    between atoms: N_4  and  C_5
REMARK    3  A    between atoms: C_5  and  C_6
REMARK    4  A    between atoms: C_5  and  C_7
REMARK    5  A    between atoms: C_7  and  C_8
REMARK    6  A    between atoms: C_11  and  C_12
REMARK    7  A    between atoms: C_13  and  C_14
REMARK    8  A    between atoms: C_18  and  O_19
REMARK    9  A    between atoms: O_19  and  C_20
REMARK                            x       y       z     vdW  Elec       q    Type
REMARK                         _______ _______ _______ _____ _____    ______ ____
ROOT
ATOM      1  C   UNL     1       8.014   8.204  18.031  0.00  0.00    +0.000 C 
ATOM      2  C   UNL     1       8.654   9.178  18.318  0.00  0.00    +0.000 C 
ENDROOT
BRANCH   1   6
ATOM      3  C   UNL     1       5.564   4.872  17.126  0.00  0.00    +0.000 A 
ATOM      4  C   UNL     1       5.226   6.154  16.666  0.00  0.00    +0.000 A 
ATOM      5  C   UNL     1       6.024   7.258  16.986  0.00  0.00    +0.000 A 
ATOM      6  C   UNL     1       7.173   7.087  17.750  0.00  0.00    +0.000 A 
ATOM      7  C   UNL     1       7.526   5.817  18.207  0.00  0.00    +0.000 A 
ATOM      8  C   UNL     1       6.723   4.716  17.901  0.00  0.00    +0.000 A 
BRANCH   3   9
ATOM      9  C   UNL     1       4.677   3.681  16.838  0.00  0.00    +0.000 C 
BRANCH   9  10
ATOM     10  C   UNL     1       3.826   3.195  18.028  0.00  0.00    +0.000 C 
ATOM     11  C   UNL     1       2.845   2.109  17.581  0.00  0.00    +0.000 C 
BRANCH  10  15
ATOM     12  C   UNL     1       1.970   5.402  20.496  0.00  0.00    +0.000 C 
ATOM     13  C   UNL     1       2.747   4.214  20.003  0.00  0.00    +0.000 C 
ATOM     14  O   UNL     1       3.036   3.273  20.734  0.00  0.00    +0.000 OA
ATOM     15  N   UNL     1       3.103   4.289  18.674  0.00  0.00    +0.000 N 
ATOM     16  H   UNL     1       2.775   5.065  18.113  0.00  0.00    +0.000 HD
ENDBRANCH  10  15
ENDBRANCH   9  10
ENDBRANCH   3   9
ENDBRANCH   1   6
BRANCH   2  17
ATOM     17  C   UNL     1       9.296  10.387  18.719  0.00  0.00    +0.000 A 
ATOM     18  C   UNL     1      10.011  11.153  17.801  0.00  0.00    +0.000 A 
ATOM     19  C   UNL     1      10.678  12.263  18.276  0.00  0.00    +0.000 A 
ATOM     20  N   UNL     1      10.678  12.634  19.573  0.00  0.00    +0.000 NA
ATOM     21  C   UNL     1       9.933  11.895  20.433  0.00  0.00    +0.000 A 
ATOM     22  C   UNL     1       9.238  10.764  20.058  0.00  0.00    +0.000 A 
BRANCH  21  23
ATOM     23  O   UNL     1       9.862  12.292  21.763  0.00  0.00    +0.000 OA
BRANCH  23  24
ATOM     24  C   UNL     1       8.609  12.526  22.265  0.00  0.00    +0.000 A 
ATOM     25  C   UNL     1       7.800  13.590  21.913  0.00  0.00    +0.000 A 
ATOM     26  N   UNL     1       6.576  13.819  22.431  0.00  0.00    +0.000 NA
ATOM     27  C   UNL     1       6.158  12.919  23.331  0.00  0.00    +0.000 A 
ATOM     28  N   UNL     1       6.826  11.820  23.722  0.00  0.00    +0.000 NA
ATOM     29  C   UNL     1       8.049  11.648  23.166  0.00  0.00    +0.000 A 
ENDBRANCH  23  24
ENDBRANCH  21  23
ENDBRANCH   2  17
TORSDOF 7
ENDMDL
MODEL 2
REMARK VINA RESULT:      -8.4      2.898      9.866
REMARK  Name = 
REMARK  9 active torsions:
REMARK  status: ('A' for Active; 'I' for Inactive)
REMARK    1  A    between atoms: C_1  and  C_2
REMARK    2  A    between atoms: N_4  and  C_5
REMARK    3  A    between atoms: C_5  and  C_6
REMARK    4  A    between atoms: C_5  and  C_7
REMARK    5  A    between atoms: C_7  and  C_8
REMARK    6  A    between atoms: C_11  and  C_12
REMARK    7  A    between atoms: C_13  and  C_14
REMARK    8  A    between atoms: C_18  and  O_19
REMARK    9  A    between atoms: O_19  and  C_20
REMARK                            x       y       z     vdW  Elec       q    Type
REMARK                         _______ _______ _______ _____ _____    ______ ____
ROOT
ATOM      1  C   UNL     1       8.377   8.754  18.334  0.00  0.00    +0.000 C 
ATOM      2  C   UNL     1       7.900   7.677  18.104  0.00  0.00    +0.000 C 
ENDROOT
BRANCH   1   6
ATOM      3  C   UNL     1       9.948  12.650  18.862  0.00  0.00    +0.000 A 
ATOM      4  C   UNL     1      10.271  11.621  19.760  0.00  0.00    +0.000 A 
ATOM      5  C   UNL     1       9.732  10.340  19.597  0.00  0.00    +0.000 A 
ATOM      6  C   UNL     1       8.883  10.073  18.528  0.00  0.00    +0.000 A 
ATOM      7  C   UNL     1       8.560  11.085  17.623  0.00  0.00    +0.000 A 
ATOM      8  C   UNL     1       9.087  12.368  17.792  0.00  0.00    +0.000 A 
BRANCH   3   9
ATOM      9  C   UNL     1      10.476  14.054  19.062  0.00  0.00    +0.000 C 
BRANCH   9  10
ATOM     10  C   UNL     1      10.002  15.086  18.020  0.00  0.00    +0.000 C 
ATOM     11  C   UNL     1      11.198  15.785  17.372  0.00  0.00    +0.000 C 
BRANCH  10  15
ATOM     12  C   UNL     1       6.972  17.189  18.917  0.00  0.00    +0.000 C 
ATOM     13  C   UNL     1       7.754  16.078  18.275  0.00  0.00    +0.000 C 
ATOM     14  O   UNL     1       7.228  15.251  17.537  0.00  0.00    +0.000 OA
ATOM     15  N   UNL     1       9.094  16.076  18.596  0.00  0.00    +0.000 N 
ATOM     16  H   UNL     1       9.473  16.828  19.158  0.00  0.00    +0.000 HD
ENDBRANCH  10  15
ENDBRANCH   9  10
ENDBRANCH   3   9
ENDBRANCH   1   6
BRANCH   2  17
ATOM     17  C   UNL     1       7.244   6.464  17.740  0.00  0.00    +0.000 A 
ATOM     18  C   UNL     1       7.107   6.101  16.401  0.00  0.00    +0.000 A 
ATOM     19  C   UNL     1       6.385   4.960  16.120  0.00  0.00    +0.000 A 
ATOM     20  N   UNL     1       5.806   4.192  17.065  0.00  0.00    +0.000 NA
ATOM     21  C   UNL     1       5.998   4.545  18.360  0.00  0.00    +0.000 A 
ATOM     22  C   UNL     1       6.696   5.672  18.745  0.00  0.00    +0.000 A 
BRANCH  21  23
ATOM     23  O   UNL     1       5.468   3.735  19.358  0.00  0.00    +0.000 OA
BRANCH  23  24
ATOM     24  C   UNL     1       4.111   3.556  19.343  0.00  0.00    +0.000 A 
ATOM     25  C   UNL     1       3.176   4.560  19.511  0.00  0.00    +0.000 A 
ATOM     26  N   UNL     1       1.842   4.364  19.514  0.00  0.00    +0.000 NA
ATOM     27  C   UNL     1       1.448   3.098  19.324  0.00  0.00    +0.000 A 
ATOM     28  N   UNL     1       2.252   2.043  19.102  0.00  0.00    +0.000 NA
ATOM     29  C   UNL     1       3.581   2.306  19.113  0.00  0.00    +0.000 A 
ENDBRANCH  23  24
ENDBRANCH  21  23
ENDBRANCH   2  17
TORSDOF 7
ENDMDL
MODEL 3
REMARK VINA RESULT:      -8.2      2.403      3.707
REMARK  Name = 
REMARK  9 active torsions:
REMARK  status: ('A' for Active; 'I' for Inactive)
REMARK    1  A    between atoms: C_1  and  C_2
REMARK    2  A    between atoms: N_4  and  C_5
REMARK    3  A    between atoms: C_5  and  C_6
REMARK    4  A    between atoms: C_5  and  C_7
REMARK    5  A    between atoms: C_7  and  C_8
REMARK    6  A    between atoms: C_11  and  C_12
REMARK    7  A    between atoms: C_13  and  C_14
REMARK    8  A    between atoms: C_18  and  O_19
REMARK    9  A    between atoms: O_19  and  C_20
REMARK                            x       y       z     vdW  Elec       q    Type
REMARK                         _______ _______ _______ _____ _____    ______ ____
ROOT
ATOM      1  C   UNL     1       8.057   8.594  18.150  0.00  0.00    +0.000 C 
ATOM      2  C   UNL     1       8.743   9.540  18.422  0.00  0.00    +0.000 C 
ENDROOT
BRANCH   1   6
ATOM      3  C   UNL     1       5.922   5.052  17.240  0.00  0.00    +0.000 A 
ATOM      4  C   UNL     1       5.579   6.270  16.634  0.00  0.00    +0.000 A 
ATOM      5  C   UNL     1       6.270   7.444  16.953  0.00  0.00    +0.000 A 
ATOM      6  C   UNL     1       7.319   7.406  17.865  0.00  0.00    +0.000 A 
ATOM      7  C   UNL     1       7.678   6.201  18.469  0.00  0.00    +0.000 A 
ATOM      8  C   UNL     1       6.979   5.031  18.162  0.00  0.00    +0.000 A 
BRANCH   3   9
ATOM      9  C   UNL     1       5.143   3.788  16.948  0.00  0.00    +0.000 C 
BRANCH   9  10
ATOM     10  C   UNL     1       4.240   3.297  18.096  0.00  0.00    +0.000 C 
ATOM     11  C   UNL     1       3.354   2.141  17.626  0.00  0.00    +0.000 C 
BRANCH  10  15
ATOM     12  C   UNL     1       2.019   5.436  20.310  0.00  0.00    +0.000 C 
ATOM     13  C   UNL     1       2.878   4.268  19.914  0.00  0.00    +0.000 C 
ATOM     14  O   UNL     1       3.079   3.320  20.666  0.00  0.00    +0.000 OA
ATOM     15  N   UNL     1       3.415   4.369  18.649  0.00  0.00    +0.000 N 
ATOM     16  H   UNL     1       3.154   5.148  18.058  0.00  0.00    +0.000 HD
ENDBRANCH  10  15
ENDBRANCH   9  10
ENDBRANCH   3   9
ENDBRANCH   1   6
BRANCH   2  17
ATOM     17  C   UNL     1       9.646  10.573  18.812  0.00  0.00    +0.000 A 
ATOM     18  C   UNL     1       9.924  10.807  20.157  0.00  0.00    +0.000 A 
ATOM     19  C   UNL     1      10.738  11.878  20.464  0.00  0.00    +0.000 A 
ATOM     20  N   UNL     1      11.265  12.703  19.537  0.00  0.00    +0.000 NA
ATOM     21  C   UNL     1      11.015  12.419  18.235  0.00  0.00    +0.000 A 
ATOM     22  C   UNL     1      10.208  11.378  17.825  0.00  0.00    +0.000 A 
BRANCH  21  23
ATOM     23  O   UNL     1      11.601  13.214  17.256  0.00  0.00    +0.000 OA
BRANCH  23  24
ATOM     24  C   UNL     1      11.371  14.561  17.344  0.00  0.00    +0.000 A 
ATOM     25  C   UNL     1      12.330  15.542  17.177  0.00  0.00    +0.000 A 
ATOM     26  N   UNL     1      12.092  16.865  17.287  0.00  0.00    +0.000 NA
ATOM     27  C   UNL     1      10.824  17.198  17.564  0.00  0.00    +0.000 A 
ATOM     28  N   UNL     1       9.794  16.347  17.702  0.00  0.00    +0.000 NA
ATOM     29  C   UNL     1      10.098  15.032  17.581  0.00  0.00    +0.000 A 
ENDBRANCH  23  24
ENDBRANCH  21  23
ENDBRANCH   2  17
TORSDOF 7
ENDMDL
MODEL 4
REMARK VINA RESULT:      -8.2      2.298      9.707
REMARK  Name = 
REMARK  9 active torsions:
REMARK  status: ('A' for Active; 'I' for Inactive)
REMARK    1  A    between atoms: C_1  and  C_2
REMARK    2  A    between atoms: N_4  and  C_5
REMARK    3  A    between atoms: C_5  and  C_6
REMARK    4  A    between atoms: C_5  and  C_7
REMARK    5  A    between atoms: C_7  and  C_8
REMARK    6  A    between atoms: C_11  and  C_12
REMARK    7  A    between atoms: C_13  and  C_14
REMARK    8  A    between atoms: C_18  and  O_19
REMARK    9  A    between atoms: O_19  and  C_20
REMARK                            x       y       z     vdW  Elec       q    Type
REMARK                         _______ _______ _______ _____ _____    ______ ____
ROOT
ATOM      1  C   UNL     1       8.557   8.903  18.291  0.00  0.00    +0.000 C 
ATOM      2  C   UNL     1       8.019   7.890  17.939  0.00  0.00    +0.000 C 
ENDROOT
BRANCH   1   6
ATOM      3  C   UNL     1      10.328  12.449  19.781  0.00  0.00    +0.000 A 
ATOM      4  C   UNL     1       9.783  11.498  20.658  0.00  0.00    +0.000 A 
ATOM      5  C   UNL     1       9.178  10.338  20.163  0.00  0.00    +0.000 A 
ATOM      6  C   UNL     1       9.128  10.111  18.792  0.00  0.00    +0.000 A 
ATOM      7  C   UNL     1       9.673  11.043  17.908  0.00  0.00    +0.000 A 
ATOM      8  C   UNL     1      10.266  12.208  18.401  0.00  0.00    +0.000 A 
BRANCH   3   9
ATOM      9  C   UNL     1      10.931  13.735  20.302  0.00  0.00    +0.000 C 
BRANCH   9  10
ATOM     10  C   UNL     1       9.919  14.857  20.603  0.00  0.00    +0.000 C 
ATOM     11  C   UNL     1       9.587  14.896  22.096  0.00  0.00    +0.000 C 
BRANCH  10  15
ATOM     12  C   UNL     1       7.188  15.204  17.989  0.00  0.00    +0.000 C 
ATOM     13  C   UNL     1       8.523  15.423  18.645  0.00  0.00    +0.000 C 
ATOM     14  O   UNL     1       9.376  16.159  18.161  0.00  0.00    +0.000 OA
ATOM     15  N   UNL     1       8.693  14.722  19.819  0.00  0.00    +0.000 N 
ATOM     16  H   UNL     1       7.922  14.184  20.194  0.00  0.00    +0.000 HD
ENDBRANCH  10  15
ENDBRANCH   9  10
ENDBRANCH   3   9
ENDBRANCH   1   6
BRANCH   2  17
ATOM     17  C   UNL     1       7.309   6.689  17.645  0.00  0.00    +0.000 A 
ATOM     18  C   UNL     1       7.030   6.329  16.328  0.00  0.00    +0.000 A 
ATOM     19  C   UNL     1       6.264   5.200  16.122  0.00  0.00    +0.000 A 
ATOM     20  N   UNL     1       5.770   4.442  17.122  0.00  0.00    +0.000 NA
ATOM     21  C   UNL     1       6.100   4.791  18.390  0.00  0.00    +0.000 A 
ATOM     22  C   UNL     1       6.853   5.905  18.701  0.00  0.00    +0.000 A 
BRANCH  21  23
ATOM     23  O   UNL     1       5.661   3.989  19.438  0.00  0.00    +0.000 OA
BRANCH  23  24
ATOM     24  C   UNL     1       4.322   3.703  19.469  0.00  0.00    +0.000 A 
ATOM     25  C   UNL     1       3.776   2.442  19.317  0.00  0.00    +0.000 A 
ATOM     26  N   UNL     1       2.453   2.180  19.329  0.00  0.00    +0.000 NA
ATOM     27  C   UNL     1       1.660   3.243  19.518  0.00  0.00    +0.000 A 
ATOM     28  N   UNL     1       2.065   4.507  19.725  0.00  0.00    +0.000 NA
ATOM     29  C   UNL     1       3.405   4.705  19.699  0.00  0.00    +0.000 A 
ENDBRANCH  23  24
ENDBRANCH  21  23
ENDBRANCH   2  17
TORSDOF 7
ENDMDL
MODEL 5
REMARK VINA RESULT:      -8.1      2.017      9.575
REMARK  Name = 
REMARK  9 active torsions:
REMARK  status: ('A' for Active; 'I' for Inactive)
REMARK    1  A    between atoms: C_1  and  C_2
REMARK    2  A    between atoms: N_4  and  C_5
REMARK    3  A    between atoms: C_5  and  C_6
REMARK    4  A    between atoms: C_5  and  C_7
REMARK    5  A    between atoms: C_7  and  C_8
REMARK    6  A    between atoms: C_11  and  C_12
REMARK    7  A    between atoms: C_13  and  C_14
REMARK    8  A    between atoms: C_18  and  O_19
REMARK    9  A    between atoms: O_19  and  C_20
REMARK                            x       y       z     vdW  Elec       q    Type
REMARK                         _______ _______ _______ _____ _____    ______ ____
ROOT
ATOM      1  C   UNL     1       8.317   9.105  18.136  0.00  0.00    +0.000 C 
ATOM      2  C   UNL     1       7.817   8.064  17.811  0.00  0.00    +0.000 C 
ENDROOT
BRANCH   1   6
ATOM      3  C   UNL     1      10.278  12.604  19.493  0.00  0.00    +0.000 A 
ATOM      4  C   UNL     1      10.260  11.443  20.281  0.00  0.00    +0.000 A 
ATOM      5  C   UNL     1       9.592  10.295  19.841  0.00  0.00    +0.000 A 
ATOM      6  C   UNL     1       8.954  10.293  18.606  0.00  0.00    +0.000 A 
ATOM      7  C   UNL     1       8.970  11.437  17.808  0.00  0.00    +0.000 A 
ATOM      8  C   UNL     1       9.625  12.588  18.252  0.00  0.00    +0.000 A 
BRANCH   3   9
ATOM      9  C   UNL     1      10.946  13.870  19.984  0.00  0.00    +0.000 C 
BRANCH   9  10
ATOM     10  C   UNL     1       9.985  15.022  20.337  0.00  0.00    +0.000 C 
ATOM     11  C   UNL     1      10.762  16.228  20.868  0.00  0.00    +0.000 C 
BRANCH  10  15
ATOM     12  C   UNL     1       6.717  14.172  22.071  0.00  0.00    +0.000 C 
ATOM     13  C   UNL     1       7.636  14.563  20.947  0.00  0.00    +0.000 C 
ATOM     14  O   UNL     1       7.221  14.803  19.818  0.00  0.00    +0.000 OA
ATOM     15  N   UNL     1       8.966  14.616  21.303  0.00  0.00    +0.000 N 
ATOM     16  H   UNL     1       9.229  14.470  22.269  0.00  0.00    +0.000 HD
ENDBRANCH  10  15
ENDBRANCH   9  10
ENDBRANCH   3   9
ENDBRANCH   1   6
BRANCH   2  17
ATOM     17  C   UNL     1       7.302   6.765  17.529  0.00  0.00    +0.000 A 
ATOM     18  C   UNL     1       7.231   6.294  16.219  0.00  0.00    +0.000 A 
ATOM     19  C   UNL     1       6.641   5.064  16.012  0.00  0.00    +0.000 A 
ATOM     20  N   UNL     1       6.128   4.308  17.004  0.00  0.00    +0.000 NA
ATOM     21  C   UNL     1       6.255   4.772  18.272  0.00  0.00    +0.000 A 
ATOM     22  C   UNL     1       6.821   5.991  18.583  0.00  0.00    +0.000 A 
BRANCH  21  23
ATOM     23  O   UNL     1       5.794   3.982  19.320  0.00  0.00    +0.000 OA
BRANCH  23  24
ATOM     24  C   UNL     1       4.451   3.716  19.339  0.00  0.00    +0.000 A 
ATOM     25  C   UNL     1       3.456   4.665  19.491  0.00  0.00    +0.000 A 
ATOM     26  N   UNL     1       2.138   4.385  19.529  0.00  0.00    +0.000 NA
ATOM     27  C   UNL     1       1.823   3.090  19.393  0.00  0.00    +0.000 A 
ATOM     28  N   UNL     1       2.688   2.081  19.192  0.00  0.00    +0.000 NA
ATOM     29  C   UNL     1       3.998   2.428  19.166  0.00  0.00    +0.000 A 
ENDBRANCH  23  24
ENDBRANCH  21  23
ENDBRANCH   2  17
TORSDOF 7
ENDMDL
MODEL 6
REMARK VINA RESULT:      -8.1      6.054     10.511
REMARK  Name = 
REMARK  9 active torsions:
REMARK  status: ('A' for Active; 'I' for Inactive)
REMARK    1  A    between atoms: C_1  and  C_2
REMARK    2  A    between atoms: N_4  and  C_5
REMARK    3  A    between atoms: C_5  and  C_6
REMARK    4  A    between atoms: C_5  and  C_7
REMARK    5  A    between atoms: C_7  and  C_8
REMARK    6  A    between atoms: C_11  and  C_12
REMARK    7  A    between atoms: C_13  and  C_14
REMARK    8  A    between atoms: C_18  and  O_19
REMARK    9  A    between atoms: O_19  and  C_20
REMARK                            x       y       z     vdW  Elec       q    Type
REMARK                         _______ _______ _______ _____ _____    ______ ____
ROOT
ATOM      1  C   UNL     1       1.227   7.708  21.016  0.00  0.00    +0.000 C 
ATOM      2  C   UNL     1       1.752   6.700  20.629  0.00  0.00    +0.000 C 
ENDROOT
BRANCH   1   6
ATOM      3  C   UNL     1      -0.888  11.207  22.115  0.00  0.00    +0.000 A 
ATOM      4  C   UNL     1      -0.482  11.004  20.787  0.00  0.00    +0.000 A 
ATOM      5  C   UNL     1       0.238   9.858  20.430  0.00  0.00    +0.000 A 
ATOM      6  C   UNL     1       0.539   8.900  21.392  0.00  0.00    +0.000 A 
ATOM      7  C   UNL     1       0.135   9.084  22.714  0.00  0.00    +0.000 A 
ATOM      8  C   UNL     1      -0.572  10.234  23.074  0.00  0.00    +0.000 A 
BRANCH   3   9
ATOM      9  C   UNL     1      -1.613  12.470  22.524  0.00  0.00    +0.000 C 
BRANCH   9  10
ATOM     10  C   UNL     1      -2.994  12.673  21.870  0.00  0.00    +0.000 C 
ATOM     11  C   UNL     1      -2.891  13.633  20.683  0.00  0.00    +0.000 C 
BRANCH  10  15
ATOM     12  C   UNL     1      -6.219  13.442  23.717  0.00  0.00    +0.000 C 
ATOM     13  C   UNL     1      -5.322  12.825  22.681  0.00  0.00    +0.000 C 
ATOM     14  O   UNL     1      -5.752  12.089  21.799  0.00  0.00    +0.000 OA
ATOM     15  N   UNL     1      -3.992  13.156  22.822  0.00  0.00    +0.000 N 
ATOM     16  H   UNL     1      -3.717  13.821  23.533  0.00  0.00    +0.000 HD
ENDBRANCH  10  15
ENDBRANCH   9  10
ENDBRANCH   3   9
ENDBRANCH   1   6
BRANCH   2  17
ATOM     17  C   UNL     1       2.271   5.495  20.070  0.00  0.00    +0.000 A 
ATOM     18  C   UNL     1       1.440   4.400  19.839  0.00  0.00    +0.000 A 
ATOM     19  C   UNL     1       2.025   3.239  19.379  0.00  0.00    +0.000 A 
ATOM     20  N   UNL     1       3.349   3.111  19.153  0.00  0.00    +0.000 NA
ATOM     21  C   UNL     1       4.123   4.208  19.341  0.00  0.00    +0.000 A 
ATOM     22  C   UNL     1       3.635   5.412  19.806  0.00  0.00    +0.000 A 
BRANCH  21  23
ATOM     23  O   UNL     1       5.480   4.124  19.052  0.00  0.00    +0.000 OA
BRANCH  23  24
ATOM     24  C   UNL     1       5.842   4.339  17.748  0.00  0.00    +0.000 A 
ATOM     25  C   UNL     1       4.973   4.332  16.673  0.00  0.00    +0.000 A 
ATOM     26  N   UNL     1       5.348   4.525  15.392  0.00  0.00    +0.000 NA
ATOM     27  C   UNL     1       6.656   4.746  15.205  0.00  0.00    +0.000 A 
ATOM     28  N   UNL     1       7.592   4.825  16.166  0.00  0.00    +0.000 NA
ATOM     29  C   UNL     1       7.152   4.621  17.431  0.00  0.00    +0.000 A 
ENDBRANCH  23  24
ENDBRANCH  21  23
ENDBRANCH   2  17
TORSDOF 7
ENDMDL
MODEL 7
REMARK VINA RESULT:      -8.1      1.892      9.604
REMARK  Name = 
REMARK  9 active torsions:
REMARK  status: ('A' for Active; 'I' for Inactive)
REMARK    1  A    between atoms: C_1  and  C_2
REMARK    2  A    between atoms: N_4  and  C_5
REMARK    3  A    between atoms: C_5  and  C_6
REMARK    4  A    between atoms: C_5  and  C_7
REMARK    5  A    between atoms: C_7  and  C_8
REMARK    6  A    between atoms: C_11  and  C_12
REMARK    7  A    between atoms: C_13  and  C_14
REMARK    8  A    between atoms: C_18  and  O_19
REMARK    9  A    between atoms: O_19  and  C_20
REMARK                            x       y       z     vdW  Elec       q    Type
REMARK                         _______ _______ _______ _____ _____    ______ ____
ROOT
ATOM      1  C   UNL     1       8.398   8.975  18.172  0.00  0.00    +0.000 C 
ATOM      2  C   UNL     1       7.904   7.939  17.822  0.00  0.00    +0.000 C 
ENDROOT
BRANCH   1   6
ATOM      3  C   UNL     1      10.114  12.541  19.678  0.00  0.00    +0.000 A 
ATOM      4  C   UNL     1       9.948  11.421  20.507  0.00  0.00    +0.000 A 
ATOM      5  C   UNL     1       9.359  10.251  20.015  0.00  0.00    +0.000 A 
ATOM      6  C   UNL     1       8.950  10.185  18.687  0.00  0.00    +0.000 A 
ATOM      7  C   UNL     1       9.116  11.287  17.848  0.00  0.00    +0.000 A 
ATOM      8  C   UNL     1       9.691  12.461  18.343  0.00  0.00    +0.000 A 
BRANCH   3   9
ATOM      9  C   UNL     1      10.693  13.831  20.216  0.00  0.00    +0.000 C 
BRANCH   9  10
ATOM     10  C   UNL     1       9.670  14.793  20.851  0.00  0.00    +0.000 C 
ATOM     11  C   UNL     1      10.054  16.247  20.571  0.00  0.00    +0.000 C 
BRANCH  10  15
ATOM     12  C   UNL     1       8.406  13.855  24.304  0.00  0.00    +0.000 C 
ATOM     13  C   UNL     1       8.414  13.954  22.805  0.00  0.00    +0.000 C 
ATOM     14  O   UNL     1       7.503  13.506  22.116  0.00  0.00    +0.000 OA
ATOM     15  N   UNL     1       9.529  14.578  22.289  0.00  0.00    +0.000 N 
ATOM     16  H   UNL     1      10.210  14.982  22.920  0.00  0.00    +0.000 HD
ENDBRANCH  10  15
ENDBRANCH   9  10
ENDBRANCH   3   9
ENDBRANCH   1   6
BRANCH   2  17
ATOM     17  C   UNL     1       7.293   6.680  17.545  0.00  0.00    +0.000 A 
ATOM     18  C   UNL     1       7.109   6.250  16.232  0.00  0.00    +0.000 A 
ATOM     19  C   UNL     1       6.433   5.064  16.037  0.00  0.00    +0.000 A 
ATOM     20  N   UNL     1       5.940   4.312  17.043  0.00  0.00    +0.000 NA
ATOM     21  C   UNL     1       6.179   4.733  18.310  0.00  0.00    +0.000 A 
ATOM     22  C   UNL     1       6.836   5.908  18.610  0.00  0.00    +0.000 A 
BRANCH  21  23
ATOM     23  O   UNL     1       5.740   3.944  19.368  0.00  0.00    +0.000 OA
BRANCH  23  24
ATOM     24  C   UNL     1       4.408   3.629  19.384  0.00  0.00    +0.000 A 
ATOM     25  C   UNL     1       3.891   2.358  19.218  0.00  0.00    +0.000 A 
ATOM     26  N   UNL     1       2.574   2.067  19.216  0.00  0.00    +0.000 NA
ATOM     27  C   UNL     1       1.756   3.111  19.406  0.00  0.00    +0.000 A 
ATOM     28  N   UNL     1       2.132   4.382  19.627  0.00  0.00    +0.000 NA
ATOM     29  C   UNL     1       3.468   4.609  19.615  0.00  0.00    +0.000 A 
ENDBRANCH  23  24
ENDBRANCH  21  23
ENDBRANCH   2  17
TORSDOF 7
ENDMDL
MODEL 8
REMARK VINA RESULT:      -8.1      2.375      9.687
REMARK  Name = 
REMARK  9 active torsions:
REMARK  status: ('A' for Active; 'I' for Inactive)
REMARK    1  A    between atoms: C_1  and  C_2
REMARK    2  A    between atoms: N_4  and  C_5
REMARK    3  A    between atoms: C_5  and  C_6
REMARK    4  A    between atoms: C_5  and  C_7
REMARK    5  A    between atoms: C_7  and  C_8
REMARK    6  A    between atoms: C_11  and  C_12
REMARK    7  A    between atoms: C_13  and  C_14
REMARK    8  A    between atoms: C_18  and  O_19
REMARK    9  A    between atoms: O_19  and  C_20
REMARK                            x       y       z     vdW  Elec       q    Type
REMARK                         _______ _______ _______ _____ _____    ______ ____
ROOT
ATOM      1  C   UNL     1       8.656   8.924  18.477  0.00  0.00    +0.000 C 
ATOM      2  C   UNL     1       8.129   7.899  18.143  0.00  0.00    +0.000 C 
ENDROOT
BRANCH   1   6
ATOM      3  C   UNL     1      10.147  12.702  19.674  0.00  0.00    +0.000 A 
ATOM      4  C   UNL     1      10.022  12.380  18.313  0.00  0.00    +0.000 A 
ATOM      5  C   UNL     1       9.551  11.123  17.920  0.00  0.00    +0.000 A 
ATOM      6  C   UNL     1       9.185  10.186  18.880  0.00  0.00    +0.000 A 
ATOM      7  C   UNL     1       9.295  10.495  20.236  0.00  0.00    +0.000 A 
ATOM      8  C   UNL     1       9.779  11.745  20.630  0.00  0.00    +0.000 A 
BRANCH   3   9
ATOM      9  C   UNL     1      10.712  14.036  20.111  0.00  0.00    +0.000 C 
BRANCH   9  10
ATOM     10  C   UNL     1       9.921  15.269  19.633  0.00  0.00    +0.000 C 
ATOM     11  C   UNL     1      10.505  16.549  20.234  0.00  0.00    +0.000 C 
BRANCH  10  15
ATOM     12  C   UNL     1       6.133  15.110  19.448  0.00  0.00    +0.000 C 
ATOM     13  C   UNL     1       7.550  15.171  18.949  0.00  0.00    +0.000 C 
ATOM     14  O   UNL     1       7.819  15.211  17.753  0.00  0.00    +0.000 OA
ATOM     15  N   UNL     1       8.497  15.170  19.948  0.00  0.00    +0.000 N 
ATOM     16  H   UNL     1       8.201  15.202  20.916  0.00  0.00    +0.000 HD
ENDBRANCH  10  15
ENDBRANCH   9  10
ENDBRANCH   3   9
ENDBRANCH   1   6
BRANCH   2  17
ATOM     17  C   UNL     1       7.377   6.744  17.776  0.00  0.00    +0.000 A 
ATOM     18  C   UNL     1       7.053   6.497  16.443  0.00  0.00    +0.000 A 
ATOM     19  C   UNL     1       6.250   5.409  16.172  0.00  0.00    +0.000 A 
ATOM     20  N   UNL     1       5.763   4.586  17.123  0.00  0.00    +0.000 NA
ATOM     21  C   UNL     1       6.136   4.825  18.405  0.00  0.00    +0.000 A 
ATOM     22  C   UNL     1       6.928   5.890  18.780  0.00  0.00    +0.000 A 
BRANCH  21  23
ATOM     23  O   UNL     1       5.703   3.954  19.398  0.00  0.00    +0.000 OA
BRANCH  23  24
ATOM     24  C   UNL     1       4.373   3.627  19.387  0.00  0.00    +0.000 A 
ATOM     25  C   UNL     1       3.868   2.364  19.140  0.00  0.00    +0.000 A 
ATOM     26  N   UNL     1       2.554   2.063  19.112  0.00  0.00    +0.000 NA
ATOM     27  C   UNL     1       1.726   3.087  19.360  0.00  0.00    +0.000 A 
ATOM     28  N   UNL     1       2.090   4.345  19.661  0.00  0.00    +0.000 NA
ATOM     29  C   UNL     1       3.423   4.584  19.671  0.00  0.00    +0.000 A 
ENDBRANCH  23  24
ENDBRANCH  21  23
ENDBRANCH   2  17
TORSDOF 7
ENDMDL
MODEL 9
REMARK VINA RESULT:      -8.1      2.540      9.803
REMARK  Name = 
REMARK  9 active torsions:
REMARK  status: ('A' for Active; 'I' for Inactive)
REMARK    1  A    between atoms: C_1  and  C_2
REMARK    2  A    between atoms: N_4  and  C_5
REMARK    3  A    between atoms: C_5  and  C_6
REMARK    4  A    between atoms: C_5  and  C_7
REMARK    5  A    between atoms: C_7  and  C_8
REMARK    6  A    between atoms: C_11  and  C_12
REMARK    7  A    between atoms: C_13  and  C_14
REMARK    8  A    between atoms: C_18  and  O_19
REMARK    9  A    between atoms: O_19  and  C_20
REMARK                            x       y       z     vdW  Elec       q    Type
REMARK                         _______ _______ _______ _____ _____    ______ ____
ROOT
ATOM      1  C   UNL     1       8.352   8.820  18.084  0.00  0.00    +0.000 C 
ATOM      2  C   UNL     1       7.685   7.904  17.690  0.00  0.00    +0.000 C 
ENDROOT
BRANCH   1   6
ATOM      3  C   UNL     1      10.362  12.262  19.515  0.00  0.00    +0.000 A 
ATOM      4  C   UNL     1      10.271  12.006  18.137  0.00  0.00    +0.000 A 
ATOM      5  C   UNL     1       9.627  10.857  17.668  0.00  0.00    +0.000 A 
ATOM      6  C   UNL     1       9.053   9.965  18.567  0.00  0.00    +0.000 A 
ATOM      7  C   UNL     1       9.127  10.210  19.938  0.00  0.00    +0.000 A 
ATOM      8  C   UNL     1       9.782  11.350  20.410  0.00  0.00    +0.000 A 
BRANCH   3   9
ATOM      9  C   UNL     1      11.107  13.470  20.037  0.00  0.00    +0.000 C 
BRANCH   9  10
ATOM     10  C   UNL     1      10.274  14.763  20.129  0.00  0.00    +0.000 C 
ATOM     11  C   UNL     1      10.141  15.215  21.585  0.00  0.00    +0.000 C 
BRANCH  10  15
ATOM     12  C   UNL     1       7.192  15.089  17.939  0.00  0.00    +0.000 C 
ATOM     13  C   UNL     1       8.602  15.326  18.401  0.00  0.00    +0.000 C 
ATOM     14  O   UNL     1       9.364  16.085  17.810  0.00  0.00    +0.000 OA
ATOM     15  N   UNL     1       8.951  14.614  19.527  0.00  0.00    +0.000 N 
ATOM     16  H   UNL     1       8.252  14.056  20.001  0.00  0.00    +0.000 HD
ENDBRANCH  10  15
ENDBRANCH   9  10
ENDBRANCH   3   9
ENDBRANCH   1   6
BRANCH   2  17
ATOM     17  C   UNL     1       6.778   6.889  17.264  0.00  0.00    +0.000 A 
ATOM     18  C   UNL     1       7.188   5.890  16.383  0.00  0.00    +0.000 A 
ATOM     19  C   UNL     1       6.235   4.993  15.946  0.00  0.00    +0.000 A 
ATOM     20  N   UNL     1       4.940   5.041  16.318  0.00  0.00    +0.000 NA
ATOM     21  C   UNL     1       4.583   5.996  17.213  0.00  0.00    +0.000 A 
ATOM     22  C   UNL     1       5.458   6.943  17.704  0.00  0.00    +0.000 A 
BRANCH  21  23
ATOM     23  O   UNL     1       3.269   6.027  17.666  0.00  0.00    +0.000 OA
BRANCH  23  24
ATOM     24  C   UNL     1       2.790   4.876  18.233  0.00  0.00    +0.000 A 
ATOM     25  C   UNL     1       3.302   4.280  19.371  0.00  0.00    +0.000 A 
ATOM     26  N   UNL     1       2.832   3.134  19.906  0.00  0.00    +0.000 NA
ATOM     27  C   UNL     1       1.793   2.586  19.263  0.00  0.00    +0.000 A 
ATOM     28  N   UNL     1       1.176   3.089  18.180  0.00  0.00    +0.000 NA
ATOM     29  C   UNL     1       1.696   4.240  17.690  0.00  0.00    +0.000 A 
ENDBRANCH  23  24
ENDBRANCH  21  23
ENDBRANCH   2  17
TORSDOF 7
ENDMDL
