MODEL 1
REMARK VINA RESULT:      -7.5      0.000      0.000
REMARK  Name = 
REMARK  7 active torsions:
REMARK  status: ('A' for Active; 'I' for Inactive)
REMARK    1  A    between atoms: C_1  and  C_2
REMARK    2  A    between atoms: N_4  and  C_5
REMARK    3  A    between atoms: C_6  and  C_7
REMARK    4  A    between atoms: C_8  and  C_9
REMARK    5  A    between atoms: C_9  and  N_10
REMARK    6  A    between atoms: C_11  and  C_13
REMARK    7  A    between atoms: C_14  and  C_15
REMARK                            x       y       z     vdW  Elec       q    Type
REMARK                         _______ _______ _______ _____ _____    ______ ____
ROOT
ATOM      1  N   UNL     1       5.991   7.509  17.498  0.00  0.00    +0.000 N 
ATOM      2  C   UNL     1       7.314   7.136  17.515  0.00  0.00    +0.000 C 
ATOM      3  O   UNL     1       7.727   6.038  17.167  0.00  0.00    +0.000 OA
ATOM      4  H   UNL     1       5.712   8.432  17.799  0.00  0.00    +0.000 HD
ENDROOT
BRANCH   2   5
ATOM      5  C   UNL     1       8.220   8.208  18.004  0.00  0.00    +0.000 C 
ATOM      6  C   UNL     1       7.933   9.506  17.785  0.00  0.00    +0.000 C 
BRANCH   6   7
ATOM      7  C   UNL     1       8.778  10.635  18.232  0.00  0.00    +0.000 A 
ATOM      8  C   UNL     1       9.763  10.413  19.206  0.00  0.00    +0.000 A 
ATOM      9  C   UNL     1      10.577  11.457  19.659  0.00  0.00    +0.000 A 
ATOM     10  C   UNL     1      10.409  12.748  19.157  0.00  0.00    +0.000 A 
ATOM     11  C   UNL     1       9.420  12.992  18.210  0.00  0.00    +0.000 A 
ATOM     12  C   UNL     1       8.613  11.947  17.764  0.00  0.00    +0.000 A 
ATOM     13  F   UNL     1       7.654  12.240  16.867  0.00  0.00    +0.000 F 
ENDBRANCH   6   7
ENDBRANCH   2   5
BRANCH   1  14
ATOM     14  C   UNL     1       4.947   6.630  17.000  0.00  0.00    +0.000 C 
BRANCH  14  22
ATOM     15  C   UNL     1       2.234   8.240  17.919  0.00  0.00    +0.000 C 
ATOM     16  C   UNL     1       2.813   6.996  18.486  0.00  0.00    +0.000 A 
ATOM     17  N   UNL     1       2.172   6.385  19.486  0.00  0.00    +0.000 NA
ATOM     18  N   UNL     1       2.892   5.279  19.720  0.00  0.00    +0.000 N 
ATOM     19  C   UNL     1       2.444   4.361  20.742  0.00  0.00    +0.000 C 
ATOM     20  C   UNL     1       3.984   5.156  18.902  0.00  0.00    +0.000 A 
ATOM     21  C   UNL     1       4.900   3.984  18.914  0.00  0.00    +0.000 C 
ATOM     22  C   UNL     1       3.990   6.288  18.095  0.00  0.00    +0.000 A 
ENDBRANCH  14  22
ENDBRANCH   1  14
TORSDOF 4
ENDMDL
MODEL 2
REMARK VINA RESULT:      -7.5      1.313      1.562
REMARK  Name = 
REMARK  7 active torsions:
REMARK  status: ('A' for Active; 'I' for Inactive)
REMARK    1  A    between atoms: C_1  and  C_2
REMARK    2  A    between atoms: N_4  and  C_5
REMARK    3  A    between atoms: C_6  and  C_7
REMARK    4  A    between atoms: C_8  and  C_9
REMARK    5  A    between atoms: C_9  and  N_10
REMARK    6  A    between atoms: C_11  and  C_13
REMARK    7  A    between atoms: C_14  and  C_15
REMARK                            x       y       z     vdW  Elec       q    Type
REMARK                         _______ _______ _______ _____ _____    ______ ____
ROOT
ATOM      1  N   UNL     1       6.056   7.498  16.970  0.00  0.00    +0.000 N 
ATOM      2  C   UNL     1       7.280   7.385  17.585  0.00  0.00    +0.000 C 
ATOM      3  O   UNL     1       7.730   6.344  18.045  0.00  0.00    +0.000 OA
ATOM      4  H   UNL     1       5.740   8.387  16.611  0.00  0.00    +0.000 HD
ENDROOT
BRANCH   2   5
ATOM      5  C   UNL     1       8.027   8.669  17.645  0.00  0.00    +0.000 C 
ATOM      6  C   UNL     1       8.580   9.092  18.798  0.00  0.00    +0.000 C 
BRANCH   6   7
ATOM      7  C   UNL     1       9.336  10.355  18.949  0.00  0.00    +0.000 A 
ATOM      8  C   UNL     1       9.845  10.991  17.807  0.00  0.00    +0.000 A 
ATOM      9  C   UNL     1      10.571  12.182  17.909  0.00  0.00    +0.000 A 
ATOM     10  C   UNL     1      10.815  12.752  19.159  0.00  0.00    +0.000 A 
ATOM     11  C   UNL     1      10.340  12.121  20.305  0.00  0.00    +0.000 A 
ATOM     12  C   UNL     1       9.618  10.934  20.194  0.00  0.00    +0.000 A 
ATOM     13  F   UNL     1       9.203  10.350  21.333  0.00  0.00    +0.000 F 
ENDBRANCH   6   7
ENDBRANCH   2   5
BRANCH   1  14
ATOM     14  C   UNL     1       5.191   6.350  16.756  0.00  0.00    +0.000 C 
BRANCH  14  22
ATOM     15  C   UNL     1       2.649   8.247  17.615  0.00  0.00    +0.000 C 
ATOM     16  C   UNL     1       3.153   7.015  18.272  0.00  0.00    +0.000 A 
ATOM     17  N   UNL     1       2.507   6.547  19.344  0.00  0.00    +0.000 NA
ATOM     18  N   UNL     1       3.149   5.412  19.653  0.00  0.00    +0.000 N 
ATOM     19  C   UNL     1       2.673   4.626  20.768  0.00  0.00    +0.000 C 
ATOM     20  C   UNL     1       4.194   5.130  18.814  0.00  0.00    +0.000 A 
ATOM     21  C   UNL     1       5.017   3.895  18.902  0.00  0.00    +0.000 C 
ATOM     22  C   UNL     1       4.255   6.183  17.908  0.00  0.00    +0.000 A 
ENDBRANCH  14  22
ENDBRANCH   1  14
TORSDOF 4
ENDMDL
MODEL 3
REMARK VINA RESULT:      -7.5      1.268      1.532
REMARK  Name = 
REMARK  7 active torsions:
REMARK  status: ('A' for Active; 'I' for Inactive)
REMARK    1  A    between atoms: C_1  and  C_2
REMARK    2  A    between atoms: N_4  and  C_5
REMARK    3  A    between atoms: C_6  and  C_7
REMARK    4  A    between atoms: C_8  and  C_9
REMARK    5  A    between atoms: C_9  and  N_10
REMARK    6  A    between atoms: C_11  and  C_13
REMARK    7  A    between atoms: C_14  and  C_15
REMARK                            x       y       z     vdW  Elec       q    Type
REMARK                         _______ _______ _______ _____ _____    ______ ____
ROOT
ATOM      1  N   UNL     1       5.942   7.546  16.996  0.00  0.00    +0.000 N 
ATOM      2  C   UNL     1       7.284   7.271  17.104  0.00  0.00    +0.000 C 
ATOM      3  O   UNL     1       7.843   6.328  16.561  0.00  0.00    +0.000 OA
ATOM      4  H   UNL     1       5.539   8.341  17.471  0.00  0.00    +0.000 HD
ENDROOT
BRANCH   2   5
ATOM      5  C   UNL     1       8.016   8.243  17.958  0.00  0.00    +0.000 C 
ATOM      6  C   UNL     1       8.098   9.541  17.610  0.00  0.00    +0.000 C 
BRANCH   6   7
ATOM      7  C   UNL     1       8.807  10.575  18.397  0.00  0.00    +0.000 A 
ATOM      8  C   UNL     1       9.474  10.204  19.574  0.00  0.00    +0.000 A 
ATOM      9  C   UNL     1      10.150  11.153  20.348  0.00  0.00    +0.000 A 
ATOM     10  C   UNL     1      10.157  12.496  19.967  0.00  0.00    +0.000 A 
ATOM     11  C   UNL     1       9.478  12.886  18.817  0.00  0.00    +0.000 A 
ATOM     12  C   UNL     1       8.807  11.934  18.051  0.00  0.00    +0.000 A 
ATOM     13  F   UNL     1       8.145  12.366  16.962  0.00  0.00    +0.000 F 
ENDBRANCH   6   7
ENDBRANCH   2   5
BRANCH   1  14
ATOM     14  C   UNL     1       5.056   6.753  16.162  0.00  0.00    +0.000 C 
BRANCH  14  22
ATOM     15  C   UNL     1       2.604   6.982  18.338  0.00  0.00    +0.000 C 
ATOM     16  C   UNL     1       3.356   5.776  17.909  0.00  0.00    +0.000 A 
ATOM     17  N   UNL     1       3.014   4.589  18.418  0.00  0.00    +0.000 NA
ATOM     18  N   UNL     1       3.813   3.713  17.792  0.00  0.00    +0.000 N 
ATOM     19  C   UNL     1       3.675   2.307  18.096  0.00  0.00    +0.000 C 
ATOM     20  C   UNL     1       4.665   4.298  16.893  0.00  0.00    +0.000 A 
ATOM     21  C   UNL     1       5.599   3.536  16.022  0.00  0.00    +0.000 C 
ATOM     22  C   UNL     1       4.422   5.664  16.965  0.00  0.00    +0.000 A 
ENDBRANCH  14  22
ENDBRANCH   1  14
TORSDOF 4
ENDMDL
MODEL 4
REMARK VINA RESULT:      -7.4      1.461      2.446
REMARK  Name = 
REMARK  7 active torsions:
REMARK  status: ('A' for Active; 'I' for Inactive)
REMARK    1  A    between atoms: C_1  and  C_2
REMARK    2  A    between atoms: N_4  and  C_5
REMARK    3  A    between atoms: C_6  and  C_7
REMARK    4  A    between atoms: C_8  and  C_9
REMARK    5  A    between atoms: C_9  and  N_10
REMARK    6  A    between atoms: C_11  and  C_13
REMARK    7  A    between atoms: C_14  and  C_15
REMARK                            x       y       z     vdW  Elec       q    Type
REMARK                         _______ _______ _______ _____ _____    ______ ____
ROOT
ATOM      1  N   UNL     1       6.129   7.607  16.967  0.00  0.00    +0.000 N 
ATOM      2  C   UNL     1       7.338   7.524  17.615  0.00  0.00    +0.000 C 
ATOM      3  O   UNL     1       7.797   6.495  18.093  0.00  0.00    +0.000 OA
ATOM      4  H   UNL     1       5.805   8.488  16.594  0.00  0.00    +0.000 HD
ENDROOT
BRANCH   2   5
ATOM      5  C   UNL     1       8.058   8.822  17.686  0.00  0.00    +0.000 C 
ATOM      6  C   UNL     1       8.703   9.193  18.809  0.00  0.00    +0.000 C 
BRANCH   6   7
ATOM      7  C   UNL     1       9.440  10.466  18.968  0.00  0.00    +0.000 A 
ATOM      8  C   UNL     1       9.980  11.093  17.835  0.00  0.00    +0.000 A 
ATOM      9  C   UNL     1      10.690  12.294  17.946  0.00  0.00    +0.000 A 
ATOM     10  C   UNL     1      10.886  12.882  19.196  0.00  0.00    +0.000 A 
ATOM     11  C   UNL     1      10.380  12.261  20.333  0.00  0.00    +0.000 A 
ATOM     12  C   UNL     1       9.675  11.064  20.214  0.00  0.00    +0.000 A 
ATOM     13  F   UNL     1       9.228  10.491  21.346  0.00  0.00    +0.000 F 
ENDBRANCH   6   7
ENDBRANCH   2   5
BRANCH   1  14
ATOM     14  C   UNL     1       5.294   6.442  16.738  0.00  0.00    +0.000 C 
BRANCH  14  22
ATOM     15  C   UNL     1       5.486   4.115  19.051  0.00  0.00    +0.000 C 
ATOM     16  C   UNL     1       4.482   5.199  18.904  0.00  0.00    +0.000 A 
ATOM     17  N   UNL     1       3.520   5.314  19.824  0.00  0.00    +0.000 NA
ATOM     18  N   UNL     1       2.833   6.405  19.457  0.00  0.00    +0.000 N 
ATOM     19  C   UNL     1       1.723   6.835  20.274  0.00  0.00    +0.000 C 
ATOM     20  C   UNL     1       3.321   7.000  18.323  0.00  0.00    +0.000 A 
ATOM     21  C   UNL     1       2.779   8.263  17.753  0.00  0.00    +0.000 C 
ATOM     22  C   UNL     1       4.388   6.214  17.905  0.00  0.00    +0.000 A 
ENDBRANCH  14  22
ENDBRANCH   1  14
TORSDOF 4
ENDMDL
MODEL 5
REMARK VINA RESULT:      -7.4      4.967      7.147
REMARK  Name = 
REMARK  7 active torsions:
REMARK  status: ('A' for Active; 'I' for Inactive)
REMARK    1  A    between atoms: C_1  and  C_2
REMARK    2  A    between atoms: N_4  and  C_5
REMARK    3  A    between atoms: C_6  and  C_7
REMARK    4  A    between atoms: C_8  and  C_9
REMARK    5  A    between atoms: C_9  and  N_10
REMARK    6  A    between atoms: C_11  and  C_13
REMARK    7  A    between atoms: C_14  and  C_15
REMARK                            x       y       z     vdW  Elec       q    Type
REMARK                         _______ _______ _______ _____ _____    ______ ____
ROOT
ATOM      1  N   UNL     1       3.926   4.546  16.982  0.00  0.00    +0.000 N 
ATOM      2  C   UNL     1       2.667   4.230  17.434  0.00  0.00    +0.000 C 
ATOM      3  O   UNL     1       2.144   3.130  17.313  0.00  0.00    +0.000 OA
ATOM      4  H   UNL     1       4.301   5.474  17.112  0.00  0.00    +0.000 HD
ENDROOT
BRANCH   2   5
ATOM      5  C   UNL     1       1.979   5.367  18.100  0.00  0.00    +0.000 C 
ATOM      6  C   UNL     1       2.595   6.556  18.245  0.00  0.00    +0.000 C 
BRANCH   6   7
ATOM      7  C   UNL     1       1.990   7.738  18.897  0.00  0.00    +0.000 A 
ATOM      8  C   UNL     1       1.815   8.917  18.157  0.00  0.00    +0.000 A 
ATOM      9  C   UNL     1       1.252  10.057  18.740  0.00  0.00    +0.000 A 
ATOM     10  C   UNL     1       0.868  10.044  20.082  0.00  0.00    +0.000 A 
ATOM     11  C   UNL     1       1.058   8.892  20.838  0.00  0.00    +0.000 A 
ATOM     12  C   UNL     1       1.620   7.760  20.250  0.00  0.00    +0.000 A 
ATOM     13  F   UNL     1       1.805   6.681  21.031  0.00  0.00    +0.000 F 
ENDBRANCH   6   7
ENDBRANCH   2   5
BRANCH   1  14
ATOM     14  C   UNL     1       4.789   3.563  16.353  0.00  0.00    +0.000 C 
BRANCH  14  22
ATOM     15  C   UNL     1       7.380   5.252  17.466  0.00  0.00    +0.000 C 
ATOM     16  C   UNL     1       6.985   4.974  16.061  0.00  0.00    +0.000 A 
ATOM     17  N   UNL     1       7.767   5.417  15.073  0.00  0.00    +0.000 NA
ATOM     18  N   UNL     1       7.191   4.953  13.955  0.00  0.00    +0.000 N 
ATOM     19  C   UNL     1       7.816   5.234  12.684  0.00  0.00    +0.000 C 
ATOM     20  C   UNL     1       6.056   4.222  14.190  0.00  0.00    +0.000 A 
ATOM     21  C   UNL     1       5.275   3.541  13.123  0.00  0.00    +0.000 C 
ATOM     22  C   UNL     1       5.864   4.242  15.567  0.00  0.00    +0.000 A 
ENDBRANCH  14  22
ENDBRANCH   1  14
TORSDOF 4
ENDMDL
MODEL 6
REMARK VINA RESULT:      -7.3      1.348      2.131
REMARK  Name = 
REMARK  7 active torsions:
REMARK  status: ('A' for Active; 'I' for Inactive)
REMARK    1  A    between atoms: C_1  and  C_2
REMARK    2  A    between atoms: N_4  and  C_5
REMARK    3  A    between atoms: C_6  and  C_7
REMARK    4  A    between atoms: C_8  and  C_9
REMARK    5  A    between atoms: C_9  and  N_10
REMARK    6  A    between atoms: C_11  and  C_13
REMARK    7  A    between atoms: C_14  and  C_15
REMARK                            x       y       z     vdW  Elec       q    Type
REMARK                         _______ _______ _______ _____ _____    ______ ____
ROOT
ATOM      1  N   UNL     1       5.922   7.548  16.947  0.00  0.00    +0.000 N 
ATOM      2  C   UNL     1       7.259   7.239  17.037  0.00  0.00    +0.000 C 
ATOM      3  O   UNL     1       7.785   6.277  16.494  0.00  0.00    +0.000 OA
ATOM      4  H   UNL     1       5.548   8.357  17.421  0.00  0.00    +0.000 HD
ENDROOT
BRANCH   2   5
ATOM      5  C   UNL     1       8.028   8.200  17.871  0.00  0.00    +0.000 C 
ATOM      6  C   UNL     1       7.995   9.521  17.610  0.00  0.00    +0.000 C 
BRANCH   6   7
ATOM      7  C   UNL     1       8.730  10.545  18.383  0.00  0.00    +0.000 A 
ATOM      8  C   UNL     1       9.402  10.169  19.556  0.00  0.00    +0.000 A 
ATOM      9  C   UNL     1      10.103  11.110  20.318  0.00  0.00    +0.000 A 
ATOM     10  C   UNL     1      10.131  12.450  19.929  0.00  0.00    +0.000 A 
ATOM     11  C   UNL     1       9.448  12.846  18.783  0.00  0.00    +0.000 A 
ATOM     12  C   UNL     1       8.752  11.902  18.029  0.00  0.00    +0.000 A 
ATOM     13  F   UNL     1       8.088  12.340  16.944  0.00  0.00    +0.000 F 
ENDBRANCH   6   7
ENDBRANCH   2   5
BRANCH   1  14
ATOM     14  C   UNL     1       5.004   6.770  16.134  0.00  0.00    +0.000 C 
BRANCH  14  22
ATOM     15  C   UNL     1       5.843   3.616  15.743  0.00  0.00    +0.000 C 
ATOM     16  C   UNL     1       4.890   4.212  16.714  0.00  0.00    +0.000 A 
ATOM     17  N   UNL     1       4.285   3.410  17.595  0.00  0.00    +0.000 NA
ATOM     18  N   UNL     1       3.561   4.239  18.361  0.00  0.00    +0.000 N 
ATOM     19  C   UNL     1       2.795   3.685  19.453  0.00  0.00    +0.000 C 
ATOM     20  C   UNL     1       3.678   5.555  18.000  0.00  0.00    +0.000 A 
ATOM     21  C   UNL     1       3.032   6.675  18.736  0.00  0.00    +0.000 C 
ATOM     22  C   UNL     1       4.518   5.579  16.893  0.00  0.00    +0.000 A 
ENDBRANCH  14  22
ENDBRANCH   1  14
TORSDOF 4
ENDMDL
MODEL 7
REMARK VINA RESULT:      -7.3      0.547      1.839
REMARK  Name = 
REMARK  7 active torsions:
REMARK  status: ('A' for Active; 'I' for Inactive)
REMARK    1  A    between atoms: C_1  and  C_2
REMARK    2  A    between atoms: N_4  and  C_5
REMARK    3  A    between atoms: C_6  and  C_7
REMARK    4  A    between atoms: C_8  and  C_9
REMARK    5  A    between atoms: C_9  and  N_10
REMARK    6  A    between atoms: C_11  and  C_13
REMARK    7  A    between atoms: C_14  and  C_15
REMARK                            x       y       z     vdW  Elec       q    Type
REMARK                         _______ _______ _______ _____ _____    ______ ____
ROOT
ATOM      1  N   UNL     1       5.946   7.613  17.537  0.00  0.00    +0.000 N 
ATOM      2  C   UNL     1       7.276   7.353  17.303  0.00  0.00    +0.000 C 
ATOM      3  O   UNL     1       7.691   6.400  16.658  0.00  0.00    +0.000 OA
ATOM      4  H   UNL     1       5.667   8.418  18.079  0.00  0.00    +0.000 HD
ENDROOT
BRANCH   2   5
ATOM      5  C   UNL     1       8.186   8.356  17.914  0.00  0.00    +0.000 C 
ATOM      6  C   UNL     1       7.978   9.675  17.737  0.00  0.00    +0.000 C 
BRANCH   6   7
ATOM      7  C   UNL     1       8.834  10.741  18.304  0.00  0.00    +0.000 A 
ATOM      8  C   UNL     1       9.698  10.435  19.366  0.00  0.00    +0.000 A 
ATOM      9  C   UNL     1      10.517  11.416  19.934  0.00  0.00    +0.000 A 
ATOM     10  C   UNL     1      10.476  12.728  19.459  0.00  0.00    +0.000 A 
ATOM     11  C   UNL     1       9.606  13.055  18.423  0.00  0.00    +0.000 A 
ATOM     12  C   UNL     1       8.793  12.071  17.863  0.00  0.00    +0.000 A 
ATOM     13  F   UNL     1       7.951  12.444  16.882  0.00  0.00    +0.000 F 
ENDBRANCH   6   7
ENDBRANCH   2   5
BRANCH   1  14
ATOM     14  C   UNL     1       4.889   6.788  16.979  0.00  0.00    +0.000 C 
BRANCH  14  22
ATOM     15  C   UNL     1       5.523   4.008  18.613  0.00  0.00    +0.000 C 
ATOM     16  C   UNL     1       4.380   4.942  18.776  0.00  0.00    +0.000 A 
ATOM     17  N   UNL     1       3.471   4.687  19.721  0.00  0.00    +0.000 NA
ATOM     18  N   UNL     1       2.628   5.728  19.665  0.00  0.00    +0.000 N 
ATOM     19  C   UNL     1       1.525   5.779  20.596  0.00  0.00    +0.000 C 
ATOM     20  C   UNL     1       2.963   6.650  18.709  0.00  0.00    +0.000 A 
ATOM     21  C   UNL     1       2.230   7.926  18.497  0.00  0.00    +0.000 C 
ATOM     22  C   UNL     1       4.095   6.151  18.074  0.00  0.00    +0.000 A 
ENDBRANCH  14  22
ENDBRANCH   1  14
TORSDOF 4
ENDMDL
MODEL 8
REMARK VINA RESULT:      -7.3      3.681      6.815
REMARK  Name = 
REMARK  7 active torsions:
REMARK  status: ('A' for Active; 'I' for Inactive)
REMARK    1  A    between atoms: C_1  and  C_2
REMARK    2  A    between atoms: N_4  and  C_5
REMARK    3  A    between atoms: C_6  and  C_7
REMARK    4  A    between atoms: C_8  and  C_9
REMARK    5  A    between atoms: C_9  and  N_10
REMARK    6  A    between atoms: C_11  and  C_13
REMARK    7  A    between atoms: C_14  and  C_15
REMARK                            x       y       z     vdW  Elec       q    Type
REMARK                         _______ _______ _______ _____ _____    ______ ____
ROOT
ATOM      1  N   UNL     1       4.495   5.593  19.506  0.00  0.00    +0.000 N 
ATOM      2  C   UNL     1       3.214   5.095  19.474  0.00  0.00    +0.000 C 
ATOM      3  O   UNL     1       2.924   3.952  19.146  0.00  0.00    +0.000 OA
ATOM      4  H   UNL     1       4.669   6.547  19.785  0.00  0.00    +0.000 HD
ENDROOT
BRANCH   2   5
ATOM      5  C   UNL     1       2.187   6.088  19.884  0.00  0.00    +0.000 C 
ATOM      6  C   UNL     1       2.360   7.401  19.635  0.00  0.00    +0.000 C 
BRANCH   6   7
ATOM      7  C   UNL     1       1.394   8.457  20.010  0.00  0.00    +0.000 A 
ATOM      8  C   UNL     1       0.814   8.435  21.288  0.00  0.00    +0.000 A 
ATOM      9  C   UNL     1      -0.109   9.412  21.677  0.00  0.00    +0.000 A 
ATOM     10  C   UNL     1      -0.481  10.421  20.788  0.00  0.00    +0.000 A 
ATOM     11  C   UNL     1       0.064  10.444  19.508  0.00  0.00    +0.000 A 
ATOM     12  C   UNL     1       0.983   9.466  19.128  0.00  0.00    +0.000 A 
ATOM     13  F   UNL     1       1.461   9.518  17.872  0.00  0.00    +0.000 F 
ENDBRANCH   6   7
ENDBRANCH   2   5
BRANCH   1  14
ATOM     14  C   UNL     1       5.651   4.769  19.198  0.00  0.00    +0.000 C 
BRANCH  14  22
ATOM     15  C   UNL     1       7.991   6.946  18.431  0.00  0.00    +0.000 C 
ATOM     16  C   UNL     1       7.209   6.065  17.527  0.00  0.00    +0.000 A 
ATOM     17  N   UNL     1       7.469   6.094  16.217  0.00  0.00    +0.000 NA
ATOM     18  N   UNL     1       6.666   5.156  15.695  0.00  0.00    +0.000 N 
ATOM     19  C   UNL     1       6.724   4.905  14.274  0.00  0.00    +0.000 C 
ATOM     20  C   UNL     1       5.891   4.521  16.629  0.00  0.00    +0.000 A 
ATOM     21  C   UNL     1       4.971   3.396  16.314  0.00  0.00    +0.000 C 
ATOM     22  C   UNL     1       6.191   5.116  17.848  0.00  0.00    +0.000 A 
ENDBRANCH  14  22
ENDBRANCH   1  14
TORSDOF 4
ENDMDL
MODEL 9
REMARK VINA RESULT:      -7.2      4.644      6.980
REMARK  Name = 
REMARK  7 active torsions:
REMARK  status: ('A' for Active; 'I' for Inactive)
REMARK    1  A    between atoms: C_1  and  C_2
REMARK    2  A    between atoms: N_4  and  C_5
REMARK    3  A    between atoms: C_6  and  C_7
REMARK    4  A    between atoms: C_8  and  C_9
REMARK    5  A    between atoms: C_9  and  N_10
REMARK    6  A    between atoms: C_11  and  C_13
REMARK    7  A    between atoms: C_14  and  C_15
REMARK                            x       y       z     vdW  Elec       q    Type
REMARK                         _______ _______ _______ _____ _____    ______ ____
ROOT
ATOM      1  N   UNL     1       3.868   4.693  16.920  0.00  0.00    +0.000 N 
ATOM      2  C   UNL     1       2.802   4.355  17.720  0.00  0.00    +0.000 C 
ATOM      3  O   UNL     1       2.488   3.207  18.006  0.00  0.00    +0.000 OA
ATOM      4  H   UNL     1       4.075   5.661  16.721  0.00  0.00    +0.000 HD
ENDROOT
BRANCH   2   5
ATOM      5  C   UNL     1       2.047   5.533  18.221  0.00  0.00    +0.000 C 
ATOM      6  C   UNL     1       2.671   6.512  18.904  0.00  0.00    +0.000 C 
BRANCH   6   7
ATOM      7  C   UNL     1       1.998   7.716  19.441  0.00  0.00    +0.000 A 
ATOM      8  C   UNL     1       1.598   7.736  20.786  0.00  0.00    +0.000 A 
ATOM      9  C   UNL     1       0.953   8.853  21.329  0.00  0.00    +0.000 A 
ATOM     10  C   UNL     1       0.683   9.966  20.531  0.00  0.00    +0.000 A 
ATOM     11  C   UNL     1       1.050   9.953  19.189  0.00  0.00    +0.000 A 
ATOM     12  C   UNL     1       1.691   8.836  18.655  0.00  0.00    +0.000 A 
ATOM     13  F   UNL     1       2.002   8.863  17.347  0.00  0.00    +0.000 F 
ENDBRANCH   6   7
ENDBRANCH   2   5
BRANCH   1  14
ATOM     14  C   UNL     1       4.771   3.695  16.375  0.00  0.00    +0.000 C 
BRANCH  14  22
ATOM     15  C   UNL     1       7.307   5.510  17.413  0.00  0.00    +0.000 C 
ATOM     16  C   UNL     1       6.937   5.137  16.024  0.00  0.00    +0.000 A 
ATOM     17  N   UNL     1       7.721   5.539  15.020  0.00  0.00    +0.000 NA
ATOM     18  N   UNL     1       7.171   4.994  13.926  0.00  0.00    +0.000 N 
ATOM     19  C   UNL     1       7.806   5.212  12.647  0.00  0.00    +0.000 C 
ATOM     20  C   UNL     1       6.051   4.252  14.191  0.00  0.00    +0.000 A 
ATOM     21  C   UNL     1       5.300   3.489  13.158  0.00  0.00    +0.000 C 
ATOM     22  C   UNL     1       5.839   4.350  15.561  0.00  0.00    +0.000 A 
ENDBRANCH  14  22
ENDBRANCH   1  14
TORSDOF 4
ENDMDL
