MODEL 1
REMARK VINA RESULT:      -8.2      0.000      0.000
REMARK  Name = 
REMARK  1 active torsions:
REMARK  status: ('A' for Active; 'I' for Inactive)
REMARK    1  A    between atoms: C_7  and  C_8
REMARK                            x       y       z     vdW  Elec       q    Type
REMARK                         _______ _______ _______ _____ _____    ______ ____
ROOT
ATOM      1  C   UNL     1       3.697   3.599  17.571  0.00  0.00    +0.000 A 
ATOM      2  C   UNL     1       2.334   3.851  17.296  0.00  0.00    +0.000 A 
ATOM      3  C   UNL     1       1.363   3.694  18.292  0.00  0.00    +0.000 A 
ATOM      4  C   UNL     1       1.782   3.286  19.539  0.00  0.00    +0.000 A 
ATOM      5  C   UNL     1       3.107   3.027  19.806  0.00  0.00    +0.000 A 
ATOM      6  C   UNL     1       4.087   3.171  18.846  0.00  0.00    +0.000 A 
ATOM      7  O   UNL     1       3.313   2.631  21.091  0.00  0.00    +0.000 OA
ATOM      8  C   UNL     1       1.969   2.700  21.590  0.00  0.00    +0.000 C 
ATOM      9  F   UNL     1       1.629   1.485  22.084  0.00  0.00    +0.000 F 
ATOM     10  F   UNL     1       1.940   3.583  22.619  0.00  0.00    +0.000 F 
ATOM     11  O   UNL     1       0.985   3.092  20.623  0.00  0.00    +0.000 OA
ENDROOT
BRANCH   1  18
ATOM     12  O   UNL     1       7.851   7.684  17.060  0.00  0.00    +0.000 OA
ATOM     13  C   UNL     1       7.227   6.686  16.740  0.00  0.00    +0.000 C 
ATOM     14  N   UNL     1       7.460   5.920  15.643  0.00  0.00    +0.000 N 
ATOM     15  C   UNL     1       6.662   4.837  15.435  0.00  0.00    +0.000 C 
ATOM     16  O   UNL     1       6.774   4.057  14.501  0.00  0.00    +0.000 OA
ATOM     17  C   UNL     1       5.643   4.745  16.515  0.00  0.00    +0.000 C 
ATOM     18  C   UNL     1       4.715   3.779  16.533  0.00  0.00    +0.000 C 
ATOM     19  S   UNL     1       5.882   6.022  17.648  0.00  0.00    +0.000 S 
ATOM     20  H   UNL     1       8.208   6.146  15.007  0.00  0.00    +0.000 HD
ENDBRANCH   1  18
TORSDOF 1
ENDMDL
MODEL 2
REMARK VINA RESULT:      -7.9      3.919      6.624
REMARK  Name = 
REMARK  1 active torsions:
REMARK  status: ('A' for Active; 'I' for Inactive)
REMARK    1  A    between atoms: C_7  and  C_8
REMARK                            x       y       z     vdW  Elec       q    Type
REMARK                         _______ _______ _______ _____ _____    ______ ____
ROOT
ATOM      1  C   UNL     1       4.013   4.303  17.210  0.00  0.00    +0.000 A 
ATOM      2  C   UNL     1       4.827   3.815  16.163  0.00  0.00    +0.000 A 
ATOM      3  C   UNL     1       6.050   4.427  15.864  0.00  0.00    +0.000 A 
ATOM      4  C   UNL     1       6.425   5.516  16.621  0.00  0.00    +0.000 A 
ATOM      5  C   UNL     1       5.628   6.002  17.632  0.00  0.00    +0.000 A 
ATOM      6  C   UNL     1       4.417   5.422  17.950  0.00  0.00    +0.000 A 
ATOM      7  O   UNL     1       6.173   7.083  18.252  0.00  0.00    +0.000 OA
ATOM      8  C   UNL     1       7.405   7.191  17.526  0.00  0.00    +0.000 C 
ATOM      9  F   UNL     1       7.480   8.431  16.986  0.00  0.00    +0.000 F 
ATOM     10  F   UNL     1       8.431   7.064  18.404  0.00  0.00    +0.000 F 
ATOM     11  O   UNL     1       7.577   6.225  16.479  0.00  0.00    +0.000 OA
ENDROOT
BRANCH   1  18
ATOM     12  O   UNL     1       1.773   2.819  22.404  0.00  0.00    +0.000 OA
ATOM     13  C   UNL     1       1.786   2.932  21.190  0.00  0.00    +0.000 C 
ATOM     14  N   UNL     1       0.803   2.530  20.344  0.00  0.00    +0.000 N 
ATOM     15  C   UNL     1       0.983   2.731  19.009  0.00  0.00    +0.000 C 
ATOM     16  O   UNL     1       0.173   2.436  18.143  0.00  0.00    +0.000 OA
ATOM     17  C   UNL     1       2.305   3.369  18.768  0.00  0.00    +0.000 C 
ATOM     18  C   UNL     1       2.741   3.652  17.533  0.00  0.00    +0.000 C 
ATOM     19  S   UNL     1       3.097   3.651  20.273  0.00  0.00    +0.000 S 
ATOM     20  H   UNL     1      -0.038   2.103  20.697  0.00  0.00    +0.000 HD
ENDBRANCH   1  18
TORSDOF 1
ENDMDL
MODEL 3
REMARK VINA RESULT:      -7.8      1.724      2.434
REMARK  Name = 
REMARK  1 active torsions:
REMARK  status: ('A' for Active; 'I' for Inactive)
REMARK    1  A    between atoms: C_7  and  C_8
REMARK                            x       y       z     vdW  Elec       q    Type
REMARK                         _______ _______ _______ _____ _____    ______ ____
ROOT
ATOM      1  C   UNL     1       4.238   5.617  18.704  0.00  0.00    +0.000 A 
ATOM      2  C   UNL     1       3.232   6.567  18.993  0.00  0.00    +0.000 A 
ATOM      3  C   UNL     1       2.060   6.187  19.657  0.00  0.00    +0.000 A 
ATOM      4  C   UNL     1       1.923   4.863  20.012  0.00  0.00    +0.000 A 
ATOM      5  C   UNL     1       2.895   3.933  19.720  0.00  0.00    +0.000 A 
ATOM      6  C   UNL     1       4.060   4.276  19.066  0.00  0.00    +0.000 A 
ATOM      7  O   UNL     1       2.568   2.684  20.149  0.00  0.00    +0.000 OA
ATOM      8  C   UNL     1       1.298   2.956  20.759  0.00  0.00    +0.000 C 
ATOM      9  F   UNL     1       0.363   2.164  20.180  0.00  0.00    +0.000 F 
ATOM     10  F   UNL     1       1.372   2.612  22.069  0.00  0.00    +0.000 F 
ATOM     11  O   UNL     1       0.863   4.319  20.667  0.00  0.00    +0.000 OA
ENDROOT
BRANCH   1  18
ATOM     12  O   UNL     1       6.499   3.771  13.636  0.00  0.00    +0.000 OA
ATOM     13  C   UNL     1       6.448   4.444  14.652  0.00  0.00    +0.000 C 
ATOM     14  N   UNL     1       7.363   5.370  15.038  0.00  0.00    +0.000 N 
ATOM     15  C   UNL     1       7.152   6.032  16.209  0.00  0.00    +0.000 C 
ATOM     16  O   UNL     1       7.884   6.899  16.663  0.00  0.00    +0.000 OA
ATOM     17  C   UNL     1       5.898   5.546  16.845  0.00  0.00    +0.000 C 
ATOM     18  C   UNL     1       5.472   6.019  18.024  0.00  0.00    +0.000 C 
ATOM     19  S   UNL     1       5.160   4.356  15.839  0.00  0.00    +0.000 S 
ATOM     20  H   UNL     1       8.171   5.565  14.469  0.00  0.00    +0.000 HD
ENDBRANCH   1  18
TORSDOF 1
ENDMDL
MODEL 4
REMARK VINA RESULT:      -7.6      4.439      7.140
REMARK  Name = 
REMARK  1 active torsions:
REMARK  status: ('A' for Active; 'I' for Inactive)
REMARK    1  A    between atoms: C_7  and  C_8
REMARK                            x       y       z     vdW  Elec       q    Type
REMARK                         _______ _______ _______ _____ _____    ______ ____
ROOT
ATOM      1  C   UNL     1       4.896   5.175  18.142  0.00  0.00    +0.000 A 
ATOM      2  C   UNL     1       6.212   4.943  18.601  0.00  0.00    +0.000 A 
ATOM      3  C   UNL     1       7.258   4.732  17.695  0.00  0.00    +0.000 A 
ATOM      4  C   UNL     1       6.958   4.756  16.350  0.00  0.00    +0.000 A 
ATOM      5  C   UNL     1       5.675   4.969  15.901  0.00  0.00    +0.000 A 
ATOM      6  C   UNL     1       4.623   5.178  16.768  0.00  0.00    +0.000 A 
ATOM      7  O   UNL     1       5.587   4.949  14.544  0.00  0.00    +0.000 OA
ATOM      8  C   UNL     1       6.964   4.727  14.209  0.00  0.00    +0.000 C 
ATOM      9  F   UNL     1       7.048   3.608  13.449  0.00  0.00    +0.000 F 
ATOM     10  F   UNL     1       7.395   5.768  13.455  0.00  0.00    +0.000 F 
ATOM     11  O   UNL     1       7.844   4.582  15.333  0.00  0.00    +0.000 OA
ENDROOT
BRANCH   1  18
ATOM     12  O   UNL     1       0.074   2.030  19.174  0.00  0.00    +0.000 OA
ATOM     13  C   UNL     1       0.858   2.950  19.337  0.00  0.00    +0.000 C 
ATOM     14  N   UNL     1       0.718   3.965  20.228  0.00  0.00    +0.000 N 
ATOM     15  C   UNL     1       1.692   4.916  20.277  0.00  0.00    +0.000 C 
ATOM     16  O   UNL     1       1.700   5.868  21.041  0.00  0.00    +0.000 OA
ATOM     17  C   UNL     1       2.743   4.615  19.267  0.00  0.00    +0.000 C 
ATOM     18  C   UNL     1       3.805   5.412  19.091  0.00  0.00    +0.000 C 
ATOM     19  S   UNL     1       2.353   3.152  18.442  0.00  0.00    +0.000 S 
ATOM     20  H   UNL     1      -0.081   4.007  20.840  0.00  0.00    +0.000 HD
ENDBRANCH   1  18
TORSDOF 1
ENDMDL
MODEL 5
REMARK VINA RESULT:      -7.5      4.394      7.112
REMARK  Name = 
REMARK  1 active torsions:
REMARK  status: ('A' for Active; 'I' for Inactive)
REMARK    1  A    between atoms: C_7  and  C_8
REMARK                            x       y       z     vdW  Elec       q    Type
REMARK                         _______ _______ _______ _____ _____    ______ ____
ROOT
ATOM      1  C   UNL     1       4.840   5.375  18.032  0.00  0.00    +0.000 A 
ATOM      2  C   UNL     1       6.137   5.108  18.524  0.00  0.00    +0.000 A 
ATOM      3  C   UNL     1       7.185   4.804  17.647  0.00  0.00    +0.000 A 
ATOM      4  C   UNL     1       6.905   4.772  16.298  0.00  0.00    +0.000 A 
ATOM      5  C   UNL     1       5.639   5.019  15.818  0.00  0.00    +0.000 A 
ATOM      6  C   UNL     1       4.586   5.320  16.656  0.00  0.00    +0.000 A 
ATOM      7  O   UNL     1       5.570   4.933  14.462  0.00  0.00    +0.000 OA
ATOM      8  C   UNL     1       6.940   4.631  14.162  0.00  0.00    +0.000 C 
ATOM      9  F   UNL     1       6.984   3.472  13.461  0.00  0.00    +0.000 F 
ATOM     10  F   UNL     1       7.429   5.612  13.362  0.00  0.00    +0.000 F 
ATOM     11  O   UNL     1       7.796   4.506  15.306  0.00  0.00    +0.000 OA
ENDROOT
BRANCH   1  18
ATOM     12  O   UNL     1       2.011   2.007  21.887  0.00  0.00    +0.000 OA
ATOM     13  C   UNL     1       2.276   3.041  21.297  0.00  0.00    +0.000 C 
ATOM     14  N   UNL     1       1.666   4.240  21.482  0.00  0.00    +0.000 N 
ATOM     15  C   UNL     1       2.086   5.297  20.734  0.00  0.00    +0.000 C 
ATOM     16  O   UNL     1       1.638   6.430  20.813  0.00  0.00    +0.000 OA
ATOM     17  C   UNL     1       3.173   4.865  19.815  0.00  0.00    +0.000 C 
ATOM     18  C   UNL     1       3.747   5.710  18.949  0.00  0.00    +0.000 C 
ATOM     19  S   UNL     1       3.521   3.196  20.072  0.00  0.00    +0.000 S 
ATOM     20  H   UNL     1       0.929   4.343  22.161  0.00  0.00    +0.000 HD
ENDBRANCH   1  18
TORSDOF 1
ENDMDL
MODEL 6
REMARK VINA RESULT:      -7.3      3.058      4.209
REMARK  Name = 
REMARK  1 active torsions:
REMARK  status: ('A' for Active; 'I' for Inactive)
REMARK    1  A    between atoms: C_7  and  C_8
REMARK                            x       y       z     vdW  Elec       q    Type
REMARK                         _______ _______ _______ _____ _____    ______ ____
ROOT
ATOM      1  C   UNL     1       6.098   5.512  16.787  0.00  0.00    +0.000 A 
ATOM      2  C   UNL     1       6.592   4.916  17.969  0.00  0.00    +0.000 A 
ATOM      3  C   UNL     1       5.786   4.814  19.109  0.00  0.00    +0.000 A 
ATOM      4  C   UNL     1       4.504   5.315  19.036  0.00  0.00    +0.000 A 
ATOM      5  C   UNL     1       4.025   5.908  17.890  0.00  0.00    +0.000 A 
ATOM      6  C   UNL     1       4.795   6.025  16.752  0.00  0.00    +0.000 A 
ATOM      7  O   UNL     1       2.742   6.342  18.025  0.00  0.00    +0.000 OA
ATOM      8  C   UNL     1       2.479   5.926  19.372  0.00  0.00    +0.000 C 
ATOM      9  F   UNL     1       2.106   7.011  20.093  0.00  0.00    +0.000 F 
ATOM     10  F   UNL     1       1.432   5.064  19.356  0.00  0.00    +0.000 F 
ATOM     11  O   UNL     1       3.583   5.294  20.036  0.00  0.00    +0.000 OA
ENDROOT
BRANCH   1  18
ATOM     12  O   UNL     1       5.713   2.638  11.709  0.00  0.00    +0.000 OA
ATOM     13  C   UNL     1       6.177   3.442  12.499  0.00  0.00    +0.000 C 
ATOM     14  N   UNL     1       7.249   4.246  12.278  0.00  0.00    +0.000 N 
ATOM     15  C   UNL     1       7.637   5.088  13.275  0.00  0.00    +0.000 C 
ATOM     16  O   UNL     1       8.570   5.873  13.201  0.00  0.00    +0.000 OA
ATOM     17  C   UNL     1       6.754   4.911  14.458  0.00  0.00    +0.000 C 
ATOM     18  C   UNL     1       6.937   5.604  15.589  0.00  0.00    +0.000 C 
ATOM     19  S   UNL     1       5.543   3.734  14.108  0.00  0.00    +0.000 S 
ATOM     20  H   UNL     1       7.737   4.223  11.396  0.00  0.00    +0.000 HD
ENDBRANCH   1  18
TORSDOF 1
ENDMDL
MODEL 7
REMARK VINA RESULT:      -7.3      3.895      6.474
REMARK  Name = 
REMARK  1 active torsions:
REMARK  status: ('A' for Active; 'I' for Inactive)
REMARK    1  A    between atoms: C_7  and  C_8
REMARK                            x       y       z     vdW  Elec       q    Type
REMARK                         _______ _______ _______ _____ _____    ______ ____
ROOT
ATOM      1  C   UNL     1       4.140   3.973  17.746  0.00  0.00    +0.000 A 
ATOM      2  C   UNL     1       4.853   3.809  16.537  0.00  0.00    +0.000 A 
ATOM      3  C   UNL     1       6.168   4.270  16.414  0.00  0.00    +0.000 A 
ATOM      4  C   UNL     1       6.737   4.889  17.506  0.00  0.00    +0.000 A 
ATOM      5  C   UNL     1       6.041   5.062  18.681  0.00  0.00    +0.000 A 
ATOM      6  C   UNL     1       4.743   4.620  18.833  0.00  0.00    +0.000 A 
ATOM      7  O   UNL     1       6.775   5.698  19.633  0.00  0.00    +0.000 OA
ATOM      8  C   UNL     1       8.008   5.873  18.921  0.00  0.00    +0.000 C 
ATOM      9  F   UNL     1       8.312   7.193  18.903  0.00  0.00    +0.000 F 
ATOM     10  F   UNL     1       8.990   5.235  19.604  0.00  0.00    +0.000 F 
ATOM     11  O   UNL     1       8.000   5.388  17.571  0.00  0.00    +0.000 OA
ENDROOT
BRANCH   1  18
ATOM     12  O   UNL     1       1.115   2.556  22.546  0.00  0.00    +0.000 OA
ATOM     13  C   UNL     1       1.291   2.720  21.351  0.00  0.00    +0.000 C 
ATOM     14  N   UNL     1       0.379   2.485  20.373  0.00  0.00    +0.000 N 
ATOM     15  C   UNL     1       0.744   2.721  19.083  0.00  0.00    +0.000 C 
ATOM     16  O   UNL     1       0.018   2.569  18.113  0.00  0.00    +0.000 OA
ATOM     17  C   UNL     1       2.153   3.195  19.036  0.00  0.00    +0.000 C 
ATOM     18  C   UNL     1       2.769   3.475  17.880  0.00  0.00    +0.000 C 
ATOM     19  S   UNL     1       2.782   3.308  20.638  0.00  0.00    +0.000 S 
ATOM     20  H   UNL     1      -0.545   2.153  20.600  0.00  0.00    +0.000 HD
ENDBRANCH   1  18
TORSDOF 1
ENDMDL
MODEL 8
REMARK VINA RESULT:      -7.3      1.820      2.932
REMARK  Name = 
REMARK  1 active torsions:
REMARK  status: ('A' for Active; 'I' for Inactive)
REMARK    1  A    between atoms: C_7  and  C_8
REMARK                            x       y       z     vdW  Elec       q    Type
REMARK                         _______ _______ _______ _____ _____    ______ ____
ROOT
ATOM      1  C   UNL     1       4.805   4.325  18.343  0.00  0.00    +0.000 A 
ATOM      2  C   UNL     1       5.155   3.382  19.335  0.00  0.00    +0.000 A 
ATOM      3  C   UNL     1       4.174   2.601  19.956  0.00  0.00    +0.000 A 
ATOM      4  C   UNL     1       2.864   2.787  19.571  0.00  0.00    +0.000 A 
ATOM      5  C   UNL     1       2.519   3.715  18.614  0.00  0.00    +0.000 A 
ATOM      6  C   UNL     1       3.462   4.500  17.985  0.00  0.00    +0.000 A 
ATOM      7  O   UNL     1       1.179   3.749  18.381  0.00  0.00    +0.000 OA
ATOM      8  C   UNL     1       0.744   2.720  19.282  0.00  0.00    +0.000 C 
ATOM      9  F   UNL     1      -0.172   3.249  20.130  0.00  0.00    +0.000 F 
ATOM     10  F   UNL     1       0.124   1.754  18.560  0.00  0.00    +0.000 F 
ATOM     11  O   UNL     1       1.787   2.114  20.057  0.00  0.00    +0.000 OA
ENDROOT
BRANCH   1  18
ATOM     12  O   UNL     1       6.865   4.022  12.878  0.00  0.00    +0.000 OA
ATOM     13  C   UNL     1       6.773   4.470  14.009  0.00  0.00    +0.000 C 
ATOM     14  N   UNL     1       7.488   5.508  14.513  0.00  0.00    +0.000 N 
ATOM     15  C   UNL     1       7.259   5.878  15.804  0.00  0.00    +0.000 C 
ATOM     16  O   UNL     1       7.818   6.803  16.373  0.00  0.00    +0.000 OA
ATOM     17  C   UNL     1       6.226   4.995  16.407  0.00  0.00    +0.000 C 
ATOM     18  C   UNL     1       5.834   5.131  17.680  0.00  0.00    +0.000 C 
ATOM     19  S   UNL     1       5.675   3.859  15.233  0.00  0.00    +0.000 S 
ATOM     20  H   UNL     1       8.163   5.993  13.945  0.00  0.00    +0.000 HD
ENDBRANCH   1  18
TORSDOF 1
ENDMDL
MODEL 9
REMARK VINA RESULT:      -7.3      4.126      4.565
REMARK  Name = 
REMARK  1 active torsions:
REMARK  status: ('A' for Active; 'I' for Inactive)
REMARK    1  A    between atoms: C_7  and  C_8
REMARK                            x       y       z     vdW  Elec       q    Type
REMARK                         _______ _______ _______ _____ _____    ______ ____
ROOT
ATOM      1  C   UNL     1       3.398   6.825  17.963  0.00  0.00    +0.000 A 
ATOM      2  C   UNL     1       3.126   5.922  19.016  0.00  0.00    +0.000 A 
ATOM      3  C   UNL     1       2.291   6.292  20.076  0.00  0.00    +0.000 A 
ATOM      4  C   UNL     1       1.752   7.560  20.058  0.00  0.00    +0.000 A 
ATOM      5  C   UNL     1       2.025   8.445  19.041  0.00  0.00    +0.000 A 
ATOM      6  C   UNL     1       2.844   8.112  17.982  0.00  0.00    +0.000 A 
ATOM      7  O   UNL     1       1.402   9.643  19.210  0.00  0.00    +0.000 OA
ATOM      8  C   UNL     1       0.695   9.384  20.431  0.00  0.00    +0.000 C 
ATOM      9  F   UNL     1       1.057  10.317  21.345  0.00  0.00    +0.000 F 
ATOM     10  F   UNL     1      -0.633   9.533  20.197  0.00  0.00    +0.000 F 
ATOM     11  O   UNL     1       0.916   8.083  20.994  0.00  0.00    +0.000 OA
ENDROOT
BRANCH   1  18
ATOM     12  O   UNL     1       8.565   4.087  17.986  0.00  0.00    +0.000 OA
ATOM     13  C   UNL     1       7.589   4.614  17.481  0.00  0.00    +0.000 C 
ATOM     14  N   UNL     1       7.373   4.781  16.151  0.00  0.00    +0.000 N 
ATOM     15  C   UNL     1       6.224   5.396  15.759  0.00  0.00    +0.000 C 
ATOM     16  O   UNL     1       5.899   5.592  14.597  0.00  0.00    +0.000 OA
ATOM     17  C   UNL     1       5.426   5.785  16.952  0.00  0.00    +0.000 C 
ATOM     18  C   UNL     1       4.258   6.432  16.844  0.00  0.00    +0.000 C 
ATOM     19  S   UNL     1       6.237   5.273  18.385  0.00  0.00    +0.000 S 
ATOM     20  H   UNL     1       8.043   4.450  15.476  0.00  0.00    +0.000 HD
ENDBRANCH   1  18
TORSDOF 1
ENDMDL
