MODEL 1
REMARK VINA RESULT:      -6.8      0.000      0.000
REMARK  Name = 
REMARK  10 active torsions:
REMARK  status: ('A' for Active; 'I' for Inactive)
REMARK    1  A    between atoms: C_1  and  C_2
REMARK    2  A    between atoms: C_3  and  C_4
REMARK    3  A    between atoms: C_4  and  O_5
REMARK    4  A    between atoms: O_5  and  C_6
REMARK    5  A    between atoms: C_8  and  N_9
REMARK    6  A    between atoms: N_9  and  C_10
REMARK    7  A    between atoms: C_10  and  O_12
REMARK    8  A    between atoms: O_12  and  C_13
REMARK    9  A    between atoms: C_13  and  C_14
REMARK   10  A    between atoms: C_13  and  C_15
REMARK                            x       y       z     vdW  Elec       q    Type
REMARK                         _______ _______ _______ _____ _____    ______ ____
ROOT
ATOM      1  C   UNL     1       6.540   5.786  16.661  0.00  0.00    +0.000 A 
ATOM      2  C   UNL     1       5.887   4.678  17.234  0.00  0.00    +0.000 A 
ATOM      3  C   UNL     1       6.031   4.371  18.595  0.00  0.00    +0.000 A 
ATOM      4  C   UNL     1       6.800   5.213  19.395  0.00  0.00    +0.000 A 
ATOM      5  C   UNL     1       7.400   6.346  18.856  0.00  0.00    +0.000 A 
ATOM      6  C   UNL     1       7.260   6.651  17.502  0.00  0.00    +0.000 A 
ATOM      7 CL   UNL     1       7.940   8.168  17.020  0.00  0.00    +0.000 Cl
ENDROOT
BRANCH   3   8
ATOM      8  N   UNL     1       5.313   3.282  19.140  0.00  0.00    +0.000 N 
ATOM      9  H   UNL     1       5.845   2.618  19.689  0.00  0.00    +0.000 HD
BRANCH   8  10
ATOM     10  C   UNL     1       3.966   3.025  19.031  0.00  0.00    +0.000 C 
ATOM     11  S   UNL     1       3.165   2.148  17.862  0.00  0.00    +0.000 S 
BRANCH  10  12
ATOM     12  O   UNL     1       3.157   3.690  19.896  0.00  0.00    +0.000 OA
BRANCH  12  13
ATOM     13  C   UNL     1       1.929   3.093  20.372  0.00  0.00    +0.000 C 
ATOM     14  C   UNL     1       2.163   2.663  21.811  0.00  0.00    +0.000 C 
ATOM     15  C   UNL     1       0.820   4.137  20.281  0.00  0.00    +0.000 C 
ENDBRANCH  12  13
ENDBRANCH  10  12
ENDBRANCH   8  10
ENDBRANCH   3   8
BRANCH   1  16
ATOM     16  O   UNL     1       6.350   5.896  15.301  0.00  0.00    +0.000 OA
BRANCH  16  17
ATOM     17  C   UNL     1       7.058   4.961  14.486  0.00  0.00    +0.000 C 
BRANCH  17  20
ATOM     18  C   UNL     1       5.231   2.858  11.752  0.00  0.00    +0.000 C 
ATOM     19  C   UNL     1       6.240   3.659  12.507  0.00  0.00    +0.000 C 
ATOM     20  C   UNL     1       6.088   4.053  13.782  0.00  0.00    +0.000 C 
ENDBRANCH  17  20
ENDBRANCH  16  17
ENDBRANCH   1  16
TORSDOF 7
ENDMDL
MODEL 2
REMARK VINA RESULT:      -6.8      0.911      1.110
REMARK  Name = 
REMARK  10 active torsions:
REMARK  status: ('A' for Active; 'I' for Inactive)
REMARK    1  A    between atoms: C_1  and  C_2
REMARK    2  A    between atoms: C_3  and  C_4
REMARK    3  A    between atoms: C_4  and  O_5
REMARK    4  A    between atoms: O_5  and  C_6
REMARK    5  A    between atoms: C_8  and  N_9
REMARK    6  A    between atoms: N_9  and  C_10
REMARK    7  A    between atoms: C_10  and  O_12
REMARK    8  A    between atoms: O_12  and  C_13
REMARK    9  A    between atoms: C_13  and  C_14
REMARK   10  A    between atoms: C_13  and  C_15
REMARK                            x       y       z     vdW  Elec       q    Type
REMARK                         _______ _______ _______ _____ _____    ______ ____
ROOT
ATOM      1  C   UNL     1       6.684   5.777  16.706  0.00  0.00    +0.000 A 
ATOM      2  C   UNL     1       6.020   4.630  17.183  0.00  0.00    +0.000 A 
ATOM      3  C   UNL     1       6.059   4.278  18.541  0.00  0.00    +0.000 A 
ATOM      4  C   UNL     1       6.731   5.112  19.431  0.00  0.00    +0.000 A 
ATOM      5  C   UNL     1       7.338   6.280  18.984  0.00  0.00    +0.000 A 
ATOM      6  C   UNL     1       7.303   6.630  17.634  0.00  0.00    +0.000 A 
ATOM      7 CL   UNL     1       7.974   8.182  17.264  0.00  0.00    +0.000 Cl
ENDROOT
BRANCH   3   8
ATOM      8  N   UNL     1       5.332   3.150  18.985  0.00  0.00    +0.000 N 
ATOM      9  H   UNL     1       5.874   2.334  19.240  0.00  0.00    +0.000 HD
BRANCH   8  10
ATOM     10  C   UNL     1       3.969   3.033  19.133  0.00  0.00    +0.000 C 
ATOM     11  S   UNL     1       2.920   2.011  18.338  0.00  0.00    +0.000 S 
BRANCH  10  12
ATOM     12  O   UNL     1       3.369   3.967  19.914  0.00  0.00    +0.000 OA
BRANCH  12  13
ATOM     13  C   UNL     1       2.241   4.729  19.426  0.00  0.00    +0.000 C 
ATOM     14  C   UNL     1       1.545   5.331  20.636  0.00  0.00    +0.000 C 
ATOM     15  C   UNL     1       2.763   5.817  18.493  0.00  0.00    +0.000 C 
ENDBRANCH  12  13
ENDBRANCH  10  12
ENDBRANCH   8  10
ENDBRANCH   3   8
BRANCH   1  16
ATOM     16  O   UNL     1       6.607   5.931  15.340  0.00  0.00    +0.000 OA
BRANCH  16  17
ATOM     17  C   UNL     1       7.038   4.820  14.552  0.00  0.00    +0.000 C 
BRANCH  17  20
ATOM     18  C   UNL     1       4.931   3.073  11.770  0.00  0.00    +0.000 C 
ATOM     19  C   UNL     1       6.050   3.516  12.653  0.00  0.00    +0.000 C 
ATOM     20  C   UNL     1       5.889   4.282  13.745  0.00  0.00    +0.000 C 
ENDBRANCH  17  20
ENDBRANCH  16  17
ENDBRANCH   1  16
TORSDOF 7
ENDMDL
MODEL 3
REMARK VINA RESULT:      -6.8      2.622      4.579
REMARK  Name = 
REMARK  10 active torsions:
REMARK  status: ('A' for Active; 'I' for Inactive)
REMARK    1  A    between atoms: C_1  and  C_2
REMARK    2  A    between atoms: C_3  and  C_4
REMARK    3  A    between atoms: C_4  and  O_5
REMARK    4  A    between atoms: O_5  and  C_6
REMARK    5  A    between atoms: C_8  and  N_9
REMARK    6  A    between atoms: N_9  and  C_10
REMARK    7  A    between atoms: C_10  and  O_12
REMARK    8  A    between atoms: O_12  and  C_13
REMARK    9  A    between atoms: C_13  and  C_14
REMARK   10  A    between atoms: C_13  and  C_15
REMARK                            x       y       z     vdW  Elec       q    Type
REMARK                         _______ _______ _______ _____ _____    ______ ____
ROOT
ATOM      1  C   UNL     1       6.191   6.171  16.702  0.00  0.00    +0.000 A 
ATOM      2  C   UNL     1       5.444   6.117  17.894  0.00  0.00    +0.000 A 
ATOM      3  C   UNL     1       4.489   5.113  18.111  0.00  0.00    +0.000 A 
ATOM      4  C   UNL     1       4.317   4.129  17.140  0.00  0.00    +0.000 A 
ATOM      5  C   UNL     1       5.092   4.134  15.985  0.00  0.00    +0.000 A 
ATOM      6  C   UNL     1       6.040   5.133  15.767  0.00  0.00    +0.000 A 
ATOM      7 CL   UNL     1       7.021   4.915  14.358  0.00  0.00    +0.000 Cl
ENDROOT
BRANCH   3   8
ATOM      8  N   UNL     1       3.802   5.065  19.345  0.00  0.00    +0.000 N 
ATOM      9  H   UNL     1       4.326   4.728  20.143  0.00  0.00    +0.000 HD
BRANCH   8  10
ATOM     10  C   UNL     1       2.503   5.444  19.600  0.00  0.00    +0.000 C 
ATOM     11  S   UNL     1       1.952   6.822  20.359  0.00  0.00    +0.000 S 
BRANCH  10  12
ATOM     12  O   UNL     1       1.546   4.517  19.339  0.00  0.00    +0.000 OA
BRANCH  12  13
ATOM     13  C   UNL     1       1.733   3.133  19.712  0.00  0.00    +0.000 C 
ATOM     14  C   UNL     1       1.262   2.984  21.150  0.00  0.00    +0.000 C 
ATOM     15  C   UNL     1       0.905   2.265  18.769  0.00  0.00    +0.000 C 
ENDBRANCH  12  13
ENDBRANCH  10  12
ENDBRANCH   8  10
ENDBRANCH   3   8
BRANCH   1  16
ATOM     16  O   UNL     1       7.027   7.262  16.623  0.00  0.00    +0.000 OA
BRANCH  16  17
ATOM     17  C   UNL     1       7.739   7.601  17.814  0.00  0.00    +0.000 C 
BRANCH  17  20
ATOM     18  C   UNL     1       9.235  11.080  18.758  0.00  0.00    +0.000 C 
ATOM     19  C   UNL     1       8.957   9.616  18.673  0.00  0.00    +0.000 C 
ATOM     20  C   UNL     1       8.097   9.061  17.803  0.00  0.00    +0.000 C 
ENDBRANCH  17  20
ENDBRANCH  16  17
ENDBRANCH   1  16
TORSDOF 7
ENDMDL
MODEL 4
REMARK VINA RESULT:      -6.7      2.029      4.287
REMARK  Name = 
REMARK  10 active torsions:
REMARK  status: ('A' for Active; 'I' for Inactive)
REMARK    1  A    between atoms: C_1  and  C_2
REMARK    2  A    between atoms: C_3  and  C_4
REMARK    3  A    between atoms: C_4  and  O_5
REMARK    4  A    between atoms: O_5  and  C_6
REMARK    5  A    between atoms: C_8  and  N_9
REMARK    6  A    between atoms: N_9  and  C_10
REMARK    7  A    between atoms: C_10  and  O_12
REMARK    8  A    between atoms: O_12  and  C_13
REMARK    9  A    between atoms: C_13  and  C_14
REMARK   10  A    between atoms: C_13  and  C_15
REMARK                            x       y       z     vdW  Elec       q    Type
REMARK                         _______ _______ _______ _____ _____    ______ ____
ROOT
ATOM      1  C   UNL     1       7.020   5.633  16.087  0.00  0.00    +0.000 A 
ATOM      2  C   UNL     1       6.320   5.075  17.174  0.00  0.00    +0.000 A 
ATOM      3  C   UNL     1       5.464   3.977  17.002  0.00  0.00    +0.000 A 
ATOM      4  C   UNL     1       5.349   3.407  15.736  0.00  0.00    +0.000 A 
ATOM      5  C   UNL     1       6.082   3.909  14.666  0.00  0.00    +0.000 A 
ATOM      6  C   UNL     1       6.932   5.003  14.835  0.00  0.00    +0.000 A 
ATOM      7 CL   UNL     1       7.882   5.411  13.447  0.00  0.00    +0.000 Cl
ENDROOT
BRANCH   3   8
ATOM      8  N   UNL     1       4.824   3.414  18.130  0.00  0.00    +0.000 N 
ATOM      9  H   UNL     1       5.388   2.814  18.718  0.00  0.00    +0.000 HD
BRANCH   8  10
ATOM     10  C   UNL     1       3.524   3.602  18.539  0.00  0.00    +0.000 C 
ATOM     11  S   UNL     1       2.123   3.472  17.645  0.00  0.00    +0.000 S 
BRANCH  10  12
ATOM     12  O   UNL     1       3.355   4.104  19.789  0.00  0.00    +0.000 OA
BRANCH  12  13
ATOM     13  C   UNL     1       2.050   4.125  20.410  0.00  0.00    +0.000 C 
ATOM     14  C   UNL     1       2.146   3.313  21.692  0.00  0.00    +0.000 C 
ATOM     15  C   UNL     1       1.680   5.576  20.703  0.00  0.00    +0.000 C 
ENDBRANCH  12  13
ENDBRANCH  10  12
ENDBRANCH   8  10
ENDBRANCH   3   8
BRANCH   1  16
ATOM     16  O   UNL     1       7.754   6.751  16.419  0.00  0.00    +0.000 OA
BRANCH  16  17
ATOM     17  C   UNL     1       7.444   7.362  17.672  0.00  0.00    +0.000 C 
BRANCH  17  20
ATOM     18  C   UNL     1       9.202  10.695  18.692  0.00  0.00    +0.000 C 
ATOM     19  C   UNL     1       8.803   9.260  18.586  0.00  0.00    +0.000 C 
ATOM     20  C   UNL     1       7.926   8.786  17.684  0.00  0.00    +0.000 C 
ENDBRANCH  17  20
ENDBRANCH  16  17
ENDBRANCH   1  16
TORSDOF 7
ENDMDL
MODEL 5
REMARK VINA RESULT:      -6.5      2.181      4.366
REMARK  Name = 
REMARK  10 active torsions:
REMARK  status: ('A' for Active; 'I' for Inactive)
REMARK    1  A    between atoms: C_1  and  C_2
REMARK    2  A    between atoms: C_3  and  C_4
REMARK    3  A    between atoms: C_4  and  O_5
REMARK    4  A    between atoms: O_5  and  C_6
REMARK    5  A    between atoms: C_8  and  N_9
REMARK    6  A    between atoms: N_9  and  C_10
REMARK    7  A    between atoms: C_10  and  O_12
REMARK    8  A    between atoms: O_12  and  C_13
REMARK    9  A    between atoms: C_13  and  C_14
REMARK   10  A    between atoms: C_13  and  C_15
REMARK                            x       y       z     vdW  Elec       q    Type
REMARK                         _______ _______ _______ _____ _____    ______ ____
ROOT
ATOM      1  C   UNL     1       6.763   5.848  16.667  0.00  0.00    +0.000 A 
ATOM      2  C   UNL     1       6.144   5.591  17.906  0.00  0.00    +0.000 A 
ATOM      3  C   UNL     1       5.137   4.622  18.029  0.00  0.00    +0.000 A 
ATOM      4  C   UNL     1       4.783   3.875  16.909  0.00  0.00    +0.000 A 
ATOM      5  C   UNL     1       5.429   4.075  15.694  0.00  0.00    +0.000 A 
ATOM      6  C   UNL     1       6.430   5.039  15.568  0.00  0.00    +0.000 A 
ATOM      7 CL   UNL     1       7.235   5.062  14.037  0.00  0.00    +0.000 Cl
ENDROOT
BRANCH   3   8
ATOM      8  N   UNL     1       4.582   4.358  19.302  0.00  0.00    +0.000 N 
ATOM      9  H   UNL     1       4.597   5.119  19.970  0.00  0.00    +0.000 HD
BRANCH   8  10
ATOM     10  C   UNL     1       4.000   3.190  19.740  0.00  0.00    +0.000 C 
ATOM     11  S   UNL     1       4.721   1.717  20.036  0.00  0.00    +0.000 S 
BRANCH  10  12
ATOM     12  O   UNL     1       2.644   3.181  19.797  0.00  0.00    +0.000 OA
BRANCH  12  13
ATOM     13  C   UNL     1       1.945   3.750  20.928  0.00  0.00    +0.000 C 
ATOM     14  C   UNL     1       0.802   4.588  20.379  0.00  0.00    +0.000 C 
ATOM     15  C   UNL     1       1.424   2.608  21.795  0.00  0.00    +0.000 C 
ENDBRANCH  12  13
ENDBRANCH  10  12
ENDBRANCH   8  10
ENDBRANCH   3   8
BRANCH   1  16
ATOM     16  O   UNL     1       7.675   6.879  16.709  0.00  0.00    +0.000 OA
BRANCH  16  17
ATOM     17  C   UNL     1       7.817   7.547  17.964  0.00  0.00    +0.000 C 
BRANCH  17  20
ATOM     18  C   UNL     1       9.136  11.186  18.463  0.00  0.00    +0.000 C 
ATOM     19  C   UNL     1       8.891   9.720  18.601  0.00  0.00    +0.000 C 
ATOM     20  C   UNL     1       8.154   8.995  17.743  0.00  0.00    +0.000 C 
ENDBRANCH  17  20
ENDBRANCH  16  17
ENDBRANCH   1  16
TORSDOF 7
ENDMDL
MODEL 6
REMARK VINA RESULT:      -6.5      1.210      1.287
REMARK  Name = 
REMARK  10 active torsions:
REMARK  status: ('A' for Active; 'I' for Inactive)
REMARK    1  A    between atoms: C_1  and  C_2
REMARK    2  A    between atoms: C_3  and  C_4
REMARK    3  A    between atoms: C_4  and  O_5
REMARK    4  A    between atoms: O_5  and  C_6
REMARK    5  A    between atoms: C_8  and  N_9
REMARK    6  A    between atoms: N_9  and  C_10
REMARK    7  A    between atoms: C_10  and  O_12
REMARK    8  A    between atoms: O_12  and  C_13
REMARK    9  A    between atoms: C_13  and  C_14
REMARK   10  A    between atoms: C_13  and  C_15
REMARK                            x       y       z     vdW  Elec       q    Type
REMARK                         _______ _______ _______ _____ _____    ______ ____
ROOT
ATOM      1  C   UNL     1       5.791   5.704  16.667  0.00  0.00    +0.000 A 
ATOM      2  C   UNL     1       4.595   4.976  16.819  0.00  0.00    +0.000 A 
ATOM      3  C   UNL     1       4.137   4.584  18.086  0.00  0.00    +0.000 A 
ATOM      4  C   UNL     1       4.864   4.969  19.211  0.00  0.00    +0.000 A 
ATOM      5  C   UNL     1       6.013   5.740  19.080  0.00  0.00    +0.000 A 
ATOM      6  C   UNL     1       6.471   6.128  17.820  0.00  0.00    +0.000 A 
ATOM      7 CL   UNL     1       7.825   7.206  17.835  0.00  0.00    +0.000 Cl
ENDROOT
BRANCH   3   8
ATOM      8  N   UNL     1       2.904   3.903  18.197  0.00  0.00    +0.000 N 
ATOM      9  H   UNL     1       2.090   4.375  17.822  0.00  0.00    +0.000 HD
BRANCH   8  10
ATOM     10  C   UNL     1       2.677   2.658  18.737  0.00  0.00    +0.000 C 
ATOM     11  S   UNL     1       3.585   1.271  18.570  0.00  0.00    +0.000 S 
BRANCH  10  12
ATOM     12  O   UNL     1       1.486   2.485  19.365  0.00  0.00    +0.000 OA
BRANCH  12  13
ATOM     13  C   UNL     1       1.250   3.045  20.676  0.00  0.00    +0.000 C 
ATOM     14  C   UNL     1       2.481   2.757  21.520  0.00  0.00    +0.000 C 
ATOM     15  C   UNL     1       1.024   4.546  20.525  0.00  0.00    +0.000 C 
ENDBRANCH  12  13
ENDBRANCH  10  12
ENDBRANCH   8  10
ENDBRANCH   3   8
BRANCH   1  16
ATOM     16  O   UNL     1       6.131   5.939  15.353  0.00  0.00    +0.000 OA
BRANCH  16  17
ATOM     17  C   UNL     1       6.778   4.867  14.665  0.00  0.00    +0.000 C 
BRANCH  17  20
ATOM     18  C   UNL     1       5.147   2.910  11.709  0.00  0.00    +0.000 C 
ATOM     19  C   UNL     1       6.128   3.531  12.647  0.00  0.00    +0.000 C 
ATOM     20  C   UNL     1       5.790   4.141  13.795  0.00  0.00    +0.000 C 
ENDBRANCH  17  20
ENDBRANCH  16  17
ENDBRANCH   1  16
TORSDOF 7
ENDMDL
MODEL 7
REMARK VINA RESULT:      -6.5      3.680      6.304
REMARK  Name = 
REMARK  10 active torsions:
REMARK  status: ('A' for Active; 'I' for Inactive)
REMARK    1  A    between atoms: C_1  and  C_2
REMARK    2  A    between atoms: C_3  and  C_4
REMARK    3  A    between atoms: C_4  and  O_5
REMARK    4  A    between atoms: O_5  and  C_6
REMARK    5  A    between atoms: C_8  and  N_9
REMARK    6  A    between atoms: N_9  and  C_10
REMARK    7  A    between atoms: C_10  and  O_12
REMARK    8  A    between atoms: O_12  and  C_13
REMARK    9  A    between atoms: C_13  and  C_14
REMARK   10  A    between atoms: C_13  and  C_15
REMARK                            x       y       z     vdW  Elec       q    Type
REMARK                         _______ _______ _______ _____ _____    ______ ____
ROOT
ATOM      1  C   UNL     1       2.913   5.422  18.923  0.00  0.00    +0.000 A 
ATOM      2  C   UNL     1       4.080   5.236  18.157  0.00  0.00    +0.000 A 
ATOM      3  C   UNL     1       4.827   4.051  18.244  0.00  0.00    +0.000 A 
ATOM      4  C   UNL     1       4.370   3.029  19.073  0.00  0.00    +0.000 A 
ATOM      5  C   UNL     1       3.186   3.175  19.788  0.00  0.00    +0.000 A 
ATOM      6  C   UNL     1       2.443   4.353  19.704  0.00  0.00    +0.000 A 
ATOM      7 CL   UNL     1       0.925   4.320  20.534  0.00  0.00    +0.000 Cl
ENDROOT
BRANCH   3   8
ATOM      8  N   UNL     1       5.960   3.884  17.416  0.00  0.00    +0.000 N 
ATOM      9  H   UNL     1       6.465   3.012  17.510  0.00  0.00    +0.000 HD
BRANCH   8  10
ATOM     10  C   UNL     1       6.450   4.762  16.476  0.00  0.00    +0.000 C 
ATOM     11  S   UNL     1       6.107   4.838  14.847  0.00  0.00    +0.000 S 
BRANCH  10  12
ATOM     12  O   UNL     1       7.456   5.577  16.884  0.00  0.00    +0.000 OA
BRANCH  12  13
ATOM     13  C   UNL     1       7.258   6.514  17.967  0.00  0.00    +0.000 C 
ATOM     14  C   UNL     1       8.031   5.990  19.166  0.00  0.00    +0.000 C 
ATOM     15  C   UNL     1       7.783   7.877  17.526  0.00  0.00    +0.000 C 
ENDBRANCH  12  13
ENDBRANCH  10  12
ENDBRANCH   8  10
ENDBRANCH   3   8
BRANCH   1  16
ATOM     16  O   UNL     1       2.347   6.669  18.773  0.00  0.00    +0.000 OA
BRANCH  16  17
ATOM     17  C   UNL     1       2.971   7.536  17.825  0.00  0.00    +0.000 C 
BRANCH  17  20
ATOM     18  C   UNL     1       0.530  10.480  18.608  0.00  0.00    +0.000 C 
ATOM     19  C   UNL     1       1.279   9.189  18.654  0.00  0.00    +0.000 C 
ATOM     20  C   UNL     1       2.309   8.886  17.847  0.00  0.00    +0.000 C 
ENDBRANCH  17  20
ENDBRANCH  16  17
ENDBRANCH   1  16
TORSDOF 7
ENDMDL
MODEL 8
REMARK VINA RESULT:      -6.5      3.811      6.472
REMARK  Name = 
REMARK  10 active torsions:
REMARK  status: ('A' for Active; 'I' for Inactive)
REMARK    1  A    between atoms: C_1  and  C_2
REMARK    2  A    between atoms: C_3  and  C_4
REMARK    3  A    between atoms: C_4  and  O_5
REMARK    4  A    between atoms: O_5  and  C_6
REMARK    5  A    between atoms: C_8  and  N_9
REMARK    6  A    between atoms: N_9  and  C_10
REMARK    7  A    between atoms: C_10  and  O_12
REMARK    8  A    between atoms: O_12  and  C_13
REMARK    9  A    between atoms: C_13  and  C_14
REMARK   10  A    between atoms: C_13  and  C_15
REMARK                            x       y       z     vdW  Elec       q    Type
REMARK                         _______ _______ _______ _____ _____    ______ ____
ROOT
ATOM      1  C   UNL     1       3.192   5.506  19.420  0.00  0.00    +0.000 A 
ATOM      2  C   UNL     1       4.532   5.427  18.992  0.00  0.00    +0.000 A 
ATOM      3  C   UNL     1       5.262   4.235  19.103  0.00  0.00    +0.000 A 
ATOM      4  C   UNL     1       4.627   3.102  19.604  0.00  0.00    +0.000 A 
ATOM      5  C   UNL     1       3.286   3.148  19.972  0.00  0.00    +0.000 A 
ATOM      6  C   UNL     1       2.558   4.334  19.865  0.00  0.00    +0.000 A 
ATOM      7 CL   UNL     1       0.871   4.190  20.222  0.00  0.00    +0.000 Cl
ENDROOT
BRANCH   3   8
ATOM      8  N   UNL     1       6.586   4.186  18.610  0.00  0.00    +0.000 N 
ATOM      9  H   UNL     1       7.161   3.417  18.931  0.00  0.00    +0.000 HD
BRANCH   8  10
ATOM     10  C   UNL     1       7.186   5.051  17.723  0.00  0.00    +0.000 C 
ATOM     11  S   UNL     1       7.594   6.652  17.947  0.00  0.00    +0.000 S 
BRANCH  10  12
ATOM     12  O   UNL     1       7.332   4.600  16.452  0.00  0.00    +0.000 OA
BRANCH  12  13
ATOM     13  C   UNL     1       6.484   5.089  15.388  0.00  0.00    +0.000 C 
ATOM     14  C   UNL     1       7.242   4.906  14.083  0.00  0.00    +0.000 C 
ATOM     15  C   UNL     1       5.191   4.279  15.393  0.00  0.00    +0.000 C 
ENDBRANCH  12  13
ENDBRANCH  10  12
ENDBRANCH   8  10
ENDBRANCH   3   8
BRANCH   1  16
ATOM     16  O   UNL     1       2.650   6.767  19.309  0.00  0.00    +0.000 OA
BRANCH  16  17
ATOM     17  C   UNL     1       2.512   7.282  17.984  0.00  0.00    +0.000 C 
BRANCH  17  20
ATOM     18  C   UNL     1       0.918  10.734  18.866  0.00  0.00    +0.000 C 
ATOM     19  C   UNL     1       1.323   9.297  18.883  0.00  0.00    +0.000 C 
ATOM     20  C   UNL     1       2.209   8.754  18.031  0.00  0.00    +0.000 C 
ENDBRANCH  17  20
ENDBRANCH  16  17
ENDBRANCH   1  16
TORSDOF 7
ENDMDL
MODEL 9
REMARK VINA RESULT:      -6.4      3.047      6.816
REMARK  Name = 
REMARK  10 active torsions:
REMARK  status: ('A' for Active; 'I' for Inactive)
REMARK    1  A    between atoms: C_1  and  C_2
REMARK    2  A    between atoms: C_3  and  C_4
REMARK    3  A    between atoms: C_4  and  O_5
REMARK    4  A    between atoms: O_5  and  C_6
REMARK    5  A    between atoms: C_8  and  N_9
REMARK    6  A    between atoms: N_9  and  C_10
REMARK    7  A    between atoms: C_10  and  O_12
REMARK    8  A    between atoms: O_12  and  C_13
REMARK    9  A    between atoms: C_13  and  C_14
REMARK   10  A    between atoms: C_13  and  C_15
REMARK                            x       y       z     vdW  Elec       q    Type
REMARK                         _______ _______ _______ _____ _____    ______ ____
ROOT
ATOM      1  C   UNL     1       4.080   4.153  17.538  0.00  0.00    +0.000 A 
ATOM      2  C   UNL     1       5.040   3.774  16.579  0.00  0.00    +0.000 A 
ATOM      3  C   UNL     1       5.678   4.728  15.772  0.00  0.00    +0.000 A 
ATOM      4  C   UNL     1       5.382   6.075  15.963  0.00  0.00    +0.000 A 
ATOM      5  C   UNL     1       4.482   6.468  16.948  0.00  0.00    +0.000 A 
ATOM      6  C   UNL     1       3.845   5.521  17.750  0.00  0.00    +0.000 A 
ATOM      7 CL   UNL     1       2.871   6.177  19.022  0.00  0.00    +0.000 Cl
ENDROOT
BRANCH   3   8
ATOM      8  N   UNL     1       6.675   4.310  14.862  0.00  0.00    +0.000 N 
ATOM      9  H   UNL     1       7.568   4.045  15.258  0.00  0.00    +0.000 HD
BRANCH   8  10
ATOM     10  C   UNL     1       6.571   4.197  13.494  0.00  0.00    +0.000 C 
ATOM     11  S   UNL     1       7.472   4.958  12.316  0.00  0.00    +0.000 S 
BRANCH  10  12
ATOM     12  O   UNL     1       5.505   3.496  13.030  0.00  0.00    +0.000 OA
BRANCH  12  13
ATOM     13  C   UNL     1       5.401   3.142  11.632  0.00  0.00    +0.000 C 
ATOM     14  C   UNL     1       5.877   1.705  11.492  0.00  0.00    +0.000 C 
ATOM     15  C   UNL     1       3.943   3.283  11.207  0.00  0.00    +0.000 C 
ENDBRANCH  12  13
ENDBRANCH  10  12
ENDBRANCH   8  10
ENDBRANCH   3   8
BRANCH   1  16
ATOM     16  O   UNL     1       3.499   3.087  18.188  0.00  0.00    +0.000 OA
BRANCH  16  17
ATOM     17  C   UNL     1       2.106   2.883  17.950  0.00  0.00    +0.000 C 
BRANCH  17  20
ATOM     18  C   UNL     1       1.263   2.642  21.753  0.00  0.00    +0.000 C 
ATOM     19  C   UNL     1       1.901   2.978  20.446  0.00  0.00    +0.000 C 
ATOM     20  C   UNL     1       1.390   2.643  19.250  0.00  0.00    +0.000 C 
ENDBRANCH  17  20
ENDBRANCH  16  17
ENDBRANCH   1  16
TORSDOF 7
ENDMDL
