MODEL 1
REMARK VINA RESULT:      -6.9      0.000      0.000
REMARK  Name = 
REMARK  3 active torsions:
REMARK  status: ('A' for Active; 'I' for Inactive)
REMARK    1  A    between atoms: C_1  and  N_2
REMARK    2  A    between atoms: S_3  and  C_5
REMARK    3  A    between atoms: S_3  and  C_11
REMARK                            x       y       z     vdW  Elec       q    Type
REMARK                         _______ _______ _______ _____ _____    ______ ____
ROOT
ATOM      1  C   UNL     1       7.740   7.535  17.674  0.00  0.00    +0.000 C 
ATOM      2  N   UNL     1       7.048   6.925  16.553  0.00  0.00    +0.000 NA
ATOM      3  S   UNL     1       6.870   5.389  16.536  0.00  0.00    +0.000 S 
ATOM      4  O   UNL     1       7.782   4.463  17.178  0.00  0.00    +0.000 OA
ENDROOT
BRANCH   3   5
ATOM      5  C   UNL     1       5.251   5.101  17.241  0.00  0.00    +0.000 A 
ATOM      6  C   UNL     1       4.302   6.130  17.242  0.00  0.00    +0.000 A 
ATOM      7  C   UNL     1       3.030   5.892  17.769  0.00  0.00    +0.000 A 
ATOM      8  C   UNL     1       2.711   4.636  18.287  0.00  0.00    +0.000 A 
ATOM      9  C   UNL     1       3.667   3.617  18.298  0.00  0.00    +0.000 A 
ATOM     10  C   UNL     1       4.941   3.848  17.779  0.00  0.00    +0.000 A 
ENDBRANCH   3   5
BRANCH   3  11
ATOM     11  C   UNL     1       6.794   4.878  14.825  0.00  0.00    +0.000 A 
ATOM     12  C   UNL     1       5.826   3.965  14.400  0.00  0.00    +0.000 A 
ATOM     13  C   UNL     1       5.814   3.539  13.071  0.00  0.00    +0.000 A 
ATOM     14  C   UNL     1       6.757   4.038  12.170  0.00  0.00    +0.000 A 
ATOM     15  C   UNL     1       7.695   4.984  12.588  0.00  0.00    +0.000 A 
ATOM     16  C   UNL     1       7.716   5.411  13.918  0.00  0.00    +0.000 A 
ENDBRANCH   3  11
TORSDOF 2
ENDMDL
MODEL 2
REMARK VINA RESULT:      -6.9      0.086      1.215
REMARK  Name = 
REMARK  3 active torsions:
REMARK  status: ('A' for Active; 'I' for Inactive)
REMARK    1  A    between atoms: C_1  and  N_2
REMARK    2  A    between atoms: S_3  and  C_5
REMARK    3  A    between atoms: S_3  and  C_11
REMARK                            x       y       z     vdW  Elec       q    Type
REMARK                         _______ _______ _______ _____ _____    ______ ____
ROOT
ATOM      1  C   UNL     1       7.760   7.487  17.683  0.00  0.00    +0.000 C 
ATOM      2  N   UNL     1       7.080   6.902  16.542  0.00  0.00    +0.000 NA
ATOM      3  S   UNL     1       6.861   5.372  16.509  0.00  0.00    +0.000 S 
ATOM      4  O   UNL     1       7.733   4.418  17.167  0.00  0.00    +0.000 OA
ENDROOT
BRANCH   3   5
ATOM      5  C   UNL     1       5.219   5.123  17.173  0.00  0.00    +0.000 A 
ATOM      6  C   UNL     1       4.866   3.877  17.702  0.00  0.00    +0.000 A 
ATOM      7  C   UNL     1       3.591   3.696  18.244  0.00  0.00    +0.000 A 
ATOM      8  C   UNL     1       2.679   4.753  18.257  0.00  0.00    +0.000 A 
ATOM      9  C   UNL     1       3.031   5.991  17.714  0.00  0.00    +0.000 A 
ATOM     10  C   UNL     1       4.300   6.178  17.166  0.00  0.00    +0.000 A 
ENDBRANCH   3   5
BRANCH   3  11
ATOM     11  C   UNL     1       6.814   4.874  14.793  0.00  0.00    +0.000 A 
ATOM     12  C   UNL     1       5.895   3.915  14.359  0.00  0.00    +0.000 A 
ATOM     13  C   UNL     1       5.907   3.502  13.025  0.00  0.00    +0.000 A 
ATOM     14  C   UNL     1       6.822   4.059  12.131  0.00  0.00    +0.000 A 
ATOM     15  C   UNL     1       7.709   5.049  12.559  0.00  0.00    +0.000 A 
ATOM     16  C   UNL     1       7.706   5.463  13.892  0.00  0.00    +0.000 A 
ENDBRANCH   3  11
TORSDOF 2
ENDMDL
MODEL 3
REMARK VINA RESULT:      -6.9      0.288      1.243
REMARK  Name = 
REMARK  3 active torsions:
REMARK  status: ('A' for Active; 'I' for Inactive)
REMARK    1  A    between atoms: C_1  and  N_2
REMARK    2  A    between atoms: S_3  and  C_5
REMARK    3  A    between atoms: S_3  and  C_11
REMARK                            x       y       z     vdW  Elec       q    Type
REMARK                         _______ _______ _______ _____ _____    ______ ____
ROOT
ATOM      1  C   UNL     1       7.739   7.438  17.714  0.00  0.00    +0.000 C 
ATOM      2  N   UNL     1       7.108   6.874  16.535  0.00  0.00    +0.000 NA
ATOM      3  S   UNL     1       6.876   5.346  16.474  0.00  0.00    +0.000 S 
ATOM      4  O   UNL     1       7.706   4.376  17.160  0.00  0.00    +0.000 OA
ENDROOT
BRANCH   3   5
ATOM      5  C   UNL     1       5.202   5.107  17.057  0.00  0.00    +0.000 A 
ATOM      6  C   UNL     1       4.391   6.218  17.314  0.00  0.00    +0.000 A 
ATOM      7  C   UNL     1       3.076   6.027  17.743  0.00  0.00    +0.000 A 
ATOM      8  C   UNL     1       2.576   4.733  17.911  0.00  0.00    +0.000 A 
ATOM      9  C   UNL     1       3.394   3.627  17.668  0.00  0.00    +0.000 A 
ATOM     10  C   UNL     1       4.710   3.811  17.245  0.00  0.00    +0.000 A 
ENDBRANCH   3   5
BRANCH   3  11
ATOM     11  C   UNL     1       6.904   4.869  14.752  0.00  0.00    +0.000 A 
ATOM     12  C   UNL     1       7.778   5.494  13.858  0.00  0.00    +0.000 A 
ATOM     13  C   UNL     1       7.750   5.144  12.507  0.00  0.00    +0.000 A 
ATOM     14  C   UNL     1       6.865   4.162  12.059  0.00  0.00    +0.000 A 
ATOM     15  C   UNL     1       6.026   3.507  12.964  0.00  0.00    +0.000 A 
ATOM     16  C   UNL     1       6.044   3.856  14.315  0.00  0.00    +0.000 A 
ENDBRANCH   3  11
TORSDOF 2
ENDMDL
MODEL 4
REMARK VINA RESULT:      -6.8      0.077      1.716
REMARK  Name = 
REMARK  3 active torsions:
REMARK  status: ('A' for Active; 'I' for Inactive)
REMARK    1  A    between atoms: C_1  and  N_2
REMARK    2  A    between atoms: S_3  and  C_5
REMARK    3  A    between atoms: S_3  and  C_11
REMARK                            x       y       z     vdW  Elec       q    Type
REMARK                         _______ _______ _______ _____ _____    ______ ____
ROOT
ATOM      1  C   UNL     1       7.782   7.531  17.695  0.00  0.00    +0.000 C 
ATOM      2  N   UNL     1       7.111   6.920  16.562  0.00  0.00    +0.000 NA
ATOM      3  S   UNL     1       6.933   5.384  16.542  0.00  0.00    +0.000 S 
ATOM      4  O   UNL     1       7.834   4.458  17.201  0.00  0.00    +0.000 OA
ENDROOT
BRANCH   3   5
ATOM      5  C   UNL     1       5.302   5.097  17.217  0.00  0.00    +0.000 A 
ATOM      6  C   UNL     1       4.998   3.859  17.796  0.00  0.00    +0.000 A 
ATOM      7  C   UNL     1       3.732   3.649  18.346  0.00  0.00    +0.000 A 
ATOM      8  C   UNL     1       2.779   4.669  18.320  0.00  0.00    +0.000 A 
ATOM      9  C   UNL     1       3.081   5.898  17.728  0.00  0.00    +0.000 A 
ATOM     10  C   UNL     1       4.342   6.114  17.171  0.00  0.00    +0.000 A 
ENDBRANCH   3   5
BRANCH   3  11
ATOM     11  C   UNL     1       6.889   4.873  14.830  0.00  0.00    +0.000 A 
ATOM     12  C   UNL     1       7.780   5.422  13.904  0.00  0.00    +0.000 A 
ATOM     13  C   UNL     1       7.697   5.049  12.561  0.00  0.00    +0.000 A 
ATOM     14  C   UNL     1       6.739   4.119  12.154  0.00  0.00    +0.000 A 
ATOM     15  C   UNL     1       5.880   3.539  13.090  0.00  0.00    +0.000 A 
ATOM     16  C   UNL     1       5.953   3.912  14.434  0.00  0.00    +0.000 A 
ENDBRANCH   3  11
TORSDOF 2
ENDMDL
MODEL 5
REMARK VINA RESULT:      -6.6      2.365      5.656
REMARK  Name = 
REMARK  3 active torsions:
REMARK  status: ('A' for Active; 'I' for Inactive)
REMARK    1  A    between atoms: C_1  and  N_2
REMARK    2  A    between atoms: S_3  and  C_5
REMARK    3  A    between atoms: S_3  and  C_11
REMARK                            x       y       z     vdW  Elec       q    Type
REMARK                         _______ _______ _______ _____ _____    ______ ____
ROOT
ATOM      1  C   UNL     1       3.599   1.578  18.258  0.00  0.00    +0.000 C 
ATOM      2  N   UNL     1       3.338   2.976  17.971  0.00  0.00    +0.000 NA
ATOM      3  S   UNL     1       4.396   4.029  18.374  0.00  0.00    +0.000 S 
ATOM      4  O   UNL     1       5.313   3.867  19.485  0.00  0.00    +0.000 OA
ENDROOT
BRANCH   3   5
ATOM      5  C   UNL     1       5.389   4.275  16.907  0.00  0.00    +0.000 A 
ATOM      6  C   UNL     1       4.826   4.064  15.644  0.00  0.00    +0.000 A 
ATOM      7  C   UNL     1       5.597   4.283  14.500  0.00  0.00    +0.000 A 
ATOM      8  C   UNL     1       6.920   4.713  14.621  0.00  0.00    +0.000 A 
ATOM      9  C   UNL     1       7.483   4.909  15.884  0.00  0.00    +0.000 A 
ATOM     10  C   UNL     1       6.721   4.686  17.031  0.00  0.00    +0.000 A 
ENDBRANCH   3   5
BRANCH   3  11
ATOM     11  C   UNL     1       3.533   5.563  18.686  0.00  0.00    +0.000 A 
ATOM     12  C   UNL     1       2.763   5.721  19.842  0.00  0.00    +0.000 A 
ATOM     13  C   UNL     1       2.055   6.907  20.043  0.00  0.00    +0.000 A 
ATOM     14  C   UNL     1       2.131   7.933  19.100  0.00  0.00    +0.000 A 
ATOM     15  C   UNL     1       2.937   7.789  17.969  0.00  0.00    +0.000 A 
ATOM     16  C   UNL     1       3.644   6.604  17.758  0.00  0.00    +0.000 A 
ENDBRANCH   3  11
TORSDOF 2
ENDMDL
MODEL 6
REMARK VINA RESULT:      -6.6      1.768      3.990
REMARK  Name = 
REMARK  3 active torsions:
REMARK  status: ('A' for Active; 'I' for Inactive)
REMARK    1  A    between atoms: C_1  and  N_2
REMARK    2  A    between atoms: S_3  and  C_5
REMARK    3  A    between atoms: S_3  and  C_11
REMARK                            x       y       z     vdW  Elec       q    Type
REMARK                         _______ _______ _______ _____ _____    ______ ____
ROOT
ATOM      1  C   UNL     1       6.024   3.991  13.963  0.00  0.00    +0.000 C 
ATOM      2  N   UNL     1       6.371   4.341  15.328  0.00  0.00    +0.000 NA
ATOM      3  S   UNL     1       5.667   5.549  15.989  0.00  0.00    +0.000 S 
ATOM      4  O   UNL     1       5.157   6.688  15.251  0.00  0.00    +0.000 OA
ENDROOT
BRANCH   3   5
ATOM      5  C   UNL     1       4.289   4.849  16.888  0.00  0.00    +0.000 A 
ATOM      6  C   UNL     1       3.381   5.695  17.536  0.00  0.00    +0.000 A 
ATOM      7  C   UNL     1       2.291   5.145  18.214  0.00  0.00    +0.000 A 
ATOM      8  C   UNL     1       2.110   3.761  18.242  0.00  0.00    +0.000 A 
ATOM      9  C   UNL     1       3.026   2.920  17.606  0.00  0.00    +0.000 A 
ATOM     10  C   UNL     1       4.121   3.461  16.932  0.00  0.00    +0.000 A 
ENDBRANCH   3   5
BRANCH   3  11
ATOM     11  C   UNL     1       6.793   6.228  17.200  0.00  0.00    +0.000 A 
ATOM     12  C   UNL     1       7.220   5.453  18.282  0.00  0.00    +0.000 A 
ATOM     13  C   UNL     1       8.059   6.016  19.245  0.00  0.00    +0.000 A 
ATOM     14  C   UNL     1       8.480   7.341  19.115  0.00  0.00    +0.000 A 
ATOM     15  C   UNL     1       8.087   8.097  18.009  0.00  0.00    +0.000 A 
ATOM     16  C   UNL     1       7.243   7.542  17.044  0.00  0.00    +0.000 A 
ENDBRANCH   3  11
TORSDOF 2
ENDMDL
MODEL 7
REMARK VINA RESULT:      -6.6      2.395      5.701
REMARK  Name = 
REMARK  3 active torsions:
REMARK  status: ('A' for Active; 'I' for Inactive)
REMARK    1  A    between atoms: C_1  and  N_2
REMARK    2  A    between atoms: S_3  and  C_5
REMARK    3  A    between atoms: S_3  and  C_11
REMARK                            x       y       z     vdW  Elec       q    Type
REMARK                         _______ _______ _______ _____ _____    ______ ____
ROOT
ATOM      1  C   UNL     1       3.436   1.657  18.169  0.00  0.00    +0.000 C 
ATOM      2  N   UNL     1       3.223   3.069  17.906  0.00  0.00    +0.000 NA
ATOM      3  S   UNL     1       4.294   4.083  18.371  0.00  0.00    +0.000 S 
ATOM      4  O   UNL     1       5.167   3.870  19.509  0.00  0.00    +0.000 OA
ENDROOT
BRANCH   3   5
ATOM      5  C   UNL     1       5.345   4.334  16.946  0.00  0.00    +0.000 A 
ATOM      6  C   UNL     1       6.679   4.715  17.126  0.00  0.00    +0.000 A 
ATOM      7  C   UNL     1       7.504   4.883  16.011  0.00  0.00    +0.000 A 
ATOM      8  C   UNL     1       6.998   4.670  14.728  0.00  0.00    +0.000 A 
ATOM      9  C   UNL     1       5.661   4.304  14.552  0.00  0.00    +0.000 A 
ATOM     10  C   UNL     1       4.830   4.139  15.659  0.00  0.00    +0.000 A 
ENDBRANCH   3   5
BRANCH   3  11
ATOM     11  C   UNL     1       3.462   5.632  18.688  0.00  0.00    +0.000 A 
ATOM     12  C   UNL     1       2.751   5.825  19.875  0.00  0.00    +0.000 A 
ATOM     13  C   UNL     1       2.065   7.023  20.083  0.00  0.00    +0.000 A 
ATOM     14  C   UNL     1       2.106   8.027  19.115  0.00  0.00    +0.000 A 
ATOM     15  C   UNL     1       2.855   7.848  17.949  0.00  0.00    +0.000 A 
ATOM     16  C   UNL     1       3.539   6.651  17.732  0.00  0.00    +0.000 A 
ENDBRANCH   3  11
TORSDOF 2
ENDMDL
MODEL 8
REMARK VINA RESULT:      -6.6      1.783      4.275
REMARK  Name = 
REMARK  3 active torsions:
REMARK  status: ('A' for Active; 'I' for Inactive)
REMARK    1  A    between atoms: C_1  and  N_2
REMARK    2  A    between atoms: S_3  and  C_5
REMARK    3  A    between atoms: S_3  and  C_11
REMARK                            x       y       z     vdW  Elec       q    Type
REMARK                         _______ _______ _______ _____ _____    ______ ____
ROOT
ATOM      1  C   UNL     1       6.037   3.990  13.973  0.00  0.00    +0.000 C 
ATOM      2  N   UNL     1       6.342   4.323  15.352  0.00  0.00    +0.000 NA
ATOM      3  S   UNL     1       5.630   5.534  16.000  0.00  0.00    +0.000 S 
ATOM      4  O   UNL     1       5.158   6.686  15.257  0.00  0.00    +0.000 OA
ENDROOT
BRANCH   3   5
ATOM      5  C   UNL     1       4.215   4.842  16.847  0.00  0.00    +0.000 A 
ATOM      6  C   UNL     1       4.031   3.456  16.872  0.00  0.00    +0.000 A 
ATOM      7  C   UNL     1       2.939   2.918  17.558  0.00  0.00    +0.000 A 
ATOM      8  C   UNL     1       2.041   3.762  18.214  0.00  0.00    +0.000 A 
ATOM      9  C   UNL     1       2.221   5.147  18.175  0.00  0.00    +0.000 A 
ATOM     10  C   UNL     1       3.305   5.691  17.487  0.00  0.00    +0.000 A 
ENDBRANCH   3   5
BRANCH   3  11
ATOM     11  C   UNL     1       6.723   6.189  17.254  0.00  0.00    +0.000 A 
ATOM     12  C   UNL     1       7.249   7.478  17.133  0.00  0.00    +0.000 A 
ATOM     13  C   UNL     1       8.141   7.953  18.096  0.00  0.00    +0.000 A 
ATOM     14  C   UNL     1       8.489   7.148  19.182  0.00  0.00    +0.000 A 
ATOM     15  C   UNL     1       7.926   5.878  19.323  0.00  0.00    +0.000 A 
ATOM     16  C   UNL     1       7.038   5.394  18.361  0.00  0.00    +0.000 A 
ENDBRANCH   3  11
TORSDOF 2
ENDMDL
MODEL 9
REMARK VINA RESULT:      -6.6      2.474      3.556
REMARK  Name = 
REMARK  3 active torsions:
REMARK  status: ('A' for Active; 'I' for Inactive)
REMARK    1  A    between atoms: C_1  and  N_2
REMARK    2  A    between atoms: S_3  and  C_5
REMARK    3  A    between atoms: S_3  and  C_11
REMARK                            x       y       z     vdW  Elec       q    Type
REMARK                         _______ _______ _______ _____ _____    ______ ____
ROOT
ATOM      1  C   UNL     1       2.344   7.832  18.749  0.00  0.00    +0.000 C 
ATOM      2  N   UNL     1       3.001   6.894  17.857  0.00  0.00    +0.000 NA
ATOM      3  S   UNL     1       3.887   5.783  18.466  0.00  0.00    +0.000 S 
ATOM      4  O   UNL     1       4.590   5.912  19.727  0.00  0.00    +0.000 OA
ENDROOT
BRANCH   3   5
ATOM      5  C   UNL     1       2.815   4.359  18.608  0.00  0.00    +0.000 A 
ATOM      6  C   UNL     1       1.785   4.357  19.554  0.00  0.00    +0.000 A 
ATOM      7  C   UNL     1       0.933   3.254  19.643  0.00  0.00    +0.000 A 
ATOM      8  C   UNL     1       1.110   2.162  18.790  0.00  0.00    +0.000 A 
ATOM      9  C   UNL     1       2.150   2.162  17.857  0.00  0.00    +0.000 A 
ATOM     10  C   UNL     1       3.008   3.257  17.766  0.00  0.00    +0.000 A 
ENDBRANCH   3   5
BRANCH   3  11
ATOM     11  C   UNL     1       5.141   5.377  17.259  0.00  0.00    +0.000 A 
ATOM     12  C   UNL     1       4.931   5.641  15.902  0.00  0.00    +0.000 A 
ATOM     13  C   UNL     1       5.900   5.270  14.968  0.00  0.00    +0.000 A 
ATOM     14  C   UNL     1       7.079   4.656  15.393  0.00  0.00    +0.000 A 
ATOM     15  C   UNL     1       7.305   4.435  16.754  0.00  0.00    +0.000 A 
ATOM     16  C   UNL     1       6.338   4.797  17.693  0.00  0.00    +0.000 A 
ENDBRANCH   3  11
TORSDOF 2
ENDMDL
