MODEL 1
REMARK VINA RESULT:      -8.1      0.000      0.000
REMARK  Name = 
REMARK  10 active torsions:
REMARK  status: ('A' for Active; 'I' for Inactive)
REMARK    1  A    between atoms: C_1  and  C_2
REMARK    2  A    between atoms: C_2  and  O_3
REMARK    3  A    between atoms: O_3  and  C_4
REMARK    4  A    between atoms: C_4  and  C_6
REMARK    5  A    between atoms: C_8  and  C_9
REMARK    6  A    between atoms: N_11  and  C_12
REMARK    7  A    between atoms: C_21  and  C_22
REMARK    8  A    between atoms: C_22  and  O_24
REMARK    9  A    between atoms: N_26  and  C_27
REMARK   10  A    between atoms: C_31  and  N_32
REMARK                            x       y       z     vdW  Elec       q    Type
REMARK                         _______ _______ _______ _____ _____    ______ ____
ROOT
ATOM      1  C   UNL     1       1.565   8.835  19.564  0.00  0.00    +0.000 A 
ATOM      2  C   UNL     1       1.856   7.517  19.959  0.00  0.00    +0.000 A 
ATOM      3  C   UNL     1       2.678   6.666  19.216  0.00  0.00    +0.000 A 
ATOM      4  C   UNL     1       3.253   7.179  18.044  0.00  0.00    +0.000 A 
ATOM      5  C   UNL     1       2.962   8.474  17.601  0.00  0.00    +0.000 A 
ATOM      6  C   UNL     1       2.110   9.280  18.354  0.00  0.00    +0.000 A 
ATOM      7  F   UNL     1       1.861  10.524  17.915  0.00  0.00    +0.000 F 
ATOM      8  C   UNL     1       4.207   6.333  17.287  0.00  0.00    +0.000 A 
ATOM      9  O   UNL     1       4.716   6.720  16.236  0.00  0.00    +0.000 OA
ATOM     10  C   UNL     1       4.575   5.015  17.851  0.00  0.00    +0.000 A 
ATOM     11  C   UNL     1       3.924   4.614  18.952  0.00  0.00    +0.000 A 
ATOM     12  N   UNL     1       2.940   5.326  19.613  0.00  0.00    +0.000 N 
ENDROOT
BRANCH   1  15
ATOM     13  C   UNL     1      -0.988  10.863  21.145  0.00  0.00    +0.000 C 
ATOM     14  C   UNL     1       0.042  10.787  20.005  0.00  0.00    +0.000 C 
ATOM     15  N   UNL     1       0.739   9.570  20.381  0.00  0.00    +0.000 N 
ATOM     16  C   UNL     1       1.027   9.628  21.816  0.00  0.00    +0.000 C 
ATOM     17  C   UNL     1      -0.170  10.425  22.394  0.00  0.00    +0.000 C 
BRANCH  13  20
ATOM     18  C   UNL     1      -2.986  12.475  20.657  0.00  0.00    +0.000 C 
ATOM     19  C   UNL     1      -1.753  13.146  20.116  0.00  0.00    +0.000 C 
ATOM     20  C   UNL     1      -1.628  12.211  21.294  0.00  0.00    +0.000 C 
BRANCH  18  21
ATOM     21  C   UNL     1      -4.004  13.220  21.442  0.00  0.00    +0.000 C 
ATOM     22  O   UNL     1      -4.136  14.433  21.367  0.00  0.00    +0.000 OA
BRANCH  21  23
ATOM     23  O   UNL     1      -4.640  12.392  22.308  0.00  0.00    +0.000 OA
BRANCH  23  25
ATOM     24  C   UNL     1      -4.313  12.485  24.666  0.00  0.00    +0.000 C 
ATOM     25  C   UNL     1      -5.125  13.022  23.500  0.00  0.00    +0.000 C 
ENDBRANCH  23  25
ENDBRANCH  21  23
ENDBRANCH  18  21
ENDBRANCH  13  20
BRANCH  17  26
ATOM     26  N   UNL     1      -0.974   9.617  23.325  0.00  0.00    +0.000 NA
ATOM     27  H   UNL     1      -1.935   9.572  22.974  0.00  0.00    +0.000 HD
ATOM     28  H   UNL     1      -1.023  10.090  24.224  0.00  0.00    +0.000 HD
ENDBRANCH  17  26
ENDBRANCH   1  15
BRANCH  12  29
ATOM     29  C   UNL     1       2.364   4.750  20.845  0.00  0.00    +0.000 C 
ATOM     30  C   UNL     1       1.149   3.852  20.823  0.00  0.00    +0.000 C 
ATOM     31  C   UNL     1       2.486   3.279  21.170  0.00  0.00    +0.000 C 
ENDBRANCH  12  29
BRANCH  10  32
ATOM     32  C   UNL     1       5.613   4.137  17.273  0.00  0.00    +0.000 C 
ATOM     33  O   UNL     1       5.506   3.604  16.177  0.00  0.00    +0.000 OA
BRANCH  32  34
ATOM     34  O   UNL     1       6.694   3.954  18.060  0.00  0.00    +0.000 OA
ATOM     35  H   UNL     1       6.844   3.015  18.330  0.00  0.00    +0.000 HD
ENDBRANCH  32  34
ENDBRANCH  10  32
TORSDOF 9
ENDMDL
MODEL 2
REMARK VINA RESULT:      -7.9      1.196      1.379
REMARK  Name = 
REMARK  10 active torsions:
REMARK  status: ('A' for Active; 'I' for Inactive)
REMARK    1  A    between atoms: C_1  and  C_2
REMARK    2  A    between atoms: C_2  and  O_3
REMARK    3  A    between atoms: O_3  and  C_4
REMARK    4  A    between atoms: C_4  and  C_6
REMARK    5  A    between atoms: C_8  and  C_9
REMARK    6  A    between atoms: N_11  and  C_12
REMARK    7  A    between atoms: C_21  and  C_22
REMARK    8  A    between atoms: C_22  and  O_24
REMARK    9  A    between atoms: N_26  and  C_27
REMARK   10  A    between atoms: C_31  and  N_32
REMARK                            x       y       z     vdW  Elec       q    Type
REMARK                         _______ _______ _______ _____ _____    ______ ____
ROOT
ATOM      1  C   UNL     1       2.061   8.305  19.308  0.00  0.00    +0.000 A 
ATOM      2  C   UNL     1       2.496   6.997  19.586  0.00  0.00    +0.000 A 
ATOM      3  C   UNL     1       3.323   6.272  18.724  0.00  0.00    +0.000 A 
ATOM      4  C   UNL     1       3.753   6.908  17.550  0.00  0.00    +0.000 A 
ATOM      5  C   UNL     1       3.316   8.196  17.223  0.00  0.00    +0.000 A 
ATOM      6  C   UNL     1       2.464   8.873  18.094  0.00  0.00    +0.000 A 
ATOM      7  F   UNL     1       2.074  10.114  17.764  0.00  0.00    +0.000 F 
ATOM      8  C   UNL     1       4.710   6.202  16.665  0.00  0.00    +0.000 A 
ATOM      9  O   UNL     1       5.095   6.699  15.608  0.00  0.00    +0.000 OA
ATOM     10  C   UNL     1       5.235   4.890  17.105  0.00  0.00    +0.000 A 
ATOM     11  C   UNL     1       4.714   4.363  18.222  0.00  0.00    +0.000 A 
ATOM     12  N   UNL     1       3.731   4.939  19.005  0.00  0.00    +0.000 N 
ENDROOT
BRANCH   1  15
ATOM     13  C   UNL     1      -0.327  10.253  21.213  0.00  0.00    +0.000 C 
ATOM     14  C   UNL     1       0.865  10.309  20.242  0.00  0.00    +0.000 C 
ATOM     15  N   UNL     1       1.246   8.908  20.236  0.00  0.00    +0.000 N 
ATOM     16  C   UNL     1       1.268   8.429  21.620  0.00  0.00    +0.000 C 
ATOM     17  C   UNL     1       0.150   9.255  22.307  0.00  0.00    +0.000 C 
BRANCH  13  20
ATOM     18  C   UNL     1      -2.203  11.929  21.920  0.00  0.00    +0.000 C 
ATOM     19  C   UNL     1      -1.376  12.628  20.876  0.00  0.00    +0.000 C 
ATOM     20  C   UNL     1      -0.727  11.591  21.759  0.00  0.00    +0.000 C 
BRANCH  18  21
ATOM     21  C   UNL     1      -2.641  12.616  23.163  0.00  0.00    +0.000 C 
ATOM     22  O   UNL     1      -2.147  13.666  23.545  0.00  0.00    +0.000 OA
BRANCH  21  23
ATOM     23  O   UNL     1      -3.543  11.856  23.836  0.00  0.00    +0.000 OA
BRANCH  23  25
ATOM     24  C   UNL     1      -5.717  12.813  24.011  0.00  0.00    +0.000 C 
ATOM     25  C   UNL     1      -4.397  12.584  24.727  0.00  0.00    +0.000 C 
ENDBRANCH  23  25
ENDBRANCH  21  23
ENDBRANCH  18  21
ENDBRANCH  13  20
BRANCH  17  26
ATOM     26  N   UNL     1      -0.946   8.403  22.793  0.00  0.00    +0.000 NA
ATOM     27  H   UNL     1      -1.732   9.002  23.065  0.00  0.00    +0.000 HD
ATOM     28  H   UNL     1      -0.650   7.924  23.641  0.00  0.00    +0.000 HD
ENDBRANCH  17  26
ENDBRANCH   1  15
BRANCH  12  29
ATOM     29  C   UNL     1       3.311   4.237  20.234  0.00  0.00    +0.000 C 
ATOM     30  C   UNL     1       2.035   3.429  20.304  0.00  0.00    +0.000 C 
ATOM     31  C   UNL     1       3.357   2.731  20.347  0.00  0.00    +0.000 C 
ENDBRANCH  12  29
BRANCH  10  32
ATOM     32  C   UNL     1       6.293   4.148  16.388  0.00  0.00    +0.000 C 
ATOM     33  O   UNL     1       7.465   4.494  16.379  0.00  0.00    +0.000 OA
BRANCH  32  34
ATOM     34  O   UNL     1       5.860   3.055  15.726  0.00  0.00    +0.000 OA
ATOM     35  H   UNL     1       6.123   2.198  16.143  0.00  0.00    +0.000 HD
ENDBRANCH  32  34
ENDBRANCH  10  32
TORSDOF 9
ENDMDL
MODEL 3
REMARK VINA RESULT:      -7.7      0.716      1.054
REMARK  Name = 
REMARK  10 active torsions:
REMARK  status: ('A' for Active; 'I' for Inactive)
REMARK    1  A    between atoms: C_1  and  C_2
REMARK    2  A    between atoms: C_2  and  O_3
REMARK    3  A    between atoms: O_3  and  C_4
REMARK    4  A    between atoms: C_4  and  C_6
REMARK    5  A    between atoms: C_8  and  C_9
REMARK    6  A    between atoms: N_11  and  C_12
REMARK    7  A    between atoms: C_21  and  C_22
REMARK    8  A    between atoms: C_22  and  O_24
REMARK    9  A    between atoms: N_26  and  C_27
REMARK   10  A    between atoms: C_31  and  N_32
REMARK                            x       y       z     vdW  Elec       q    Type
REMARK                         _______ _______ _______ _____ _____    ______ ____
ROOT
ATOM      1  C   UNL     1       1.638   8.716  19.572  0.00  0.00    +0.000 A 
ATOM      2  C   UNL     1       1.956   7.396  19.937  0.00  0.00    +0.000 A 
ATOM      3  C   UNL     1       2.775   6.570  19.163  0.00  0.00    +0.000 A 
ATOM      4  C   UNL     1       3.320   7.112  17.990  0.00  0.00    +0.000 A 
ATOM      5  C   UNL     1       3.001   8.410  17.576  0.00  0.00    +0.000 A 
ATOM      6  C   UNL     1       2.152   9.190  18.360  0.00  0.00    +0.000 A 
ATOM      7  F   UNL     1       1.877  10.438  17.947  0.00  0.00    +0.000 F 
ATOM      8  C   UNL     1       4.272   6.295  17.200  0.00  0.00    +0.000 A 
ATOM      9  O   UNL     1       4.754   6.707  16.146  0.00  0.00    +0.000 OA
ATOM     10  C   UNL     1       4.669   4.972  17.733  0.00  0.00    +0.000 A 
ATOM     11  C   UNL     1       4.046   4.542  18.839  0.00  0.00    +0.000 A 
ATOM     12  N   UNL     1       3.065   5.228  19.531  0.00  0.00    +0.000 N 
ENDROOT
BRANCH   1  15
ATOM     13  C   UNL     1      -0.900  10.699  21.232  0.00  0.00    +0.000 C 
ATOM     14  C   UNL     1       0.131  10.661  20.090  0.00  0.00    +0.000 C 
ATOM     15  N   UNL     1       0.817   9.424  20.417  0.00  0.00    +0.000 N 
ATOM     16  C   UNL     1       1.104   9.421  21.853  0.00  0.00    +0.000 C 
ATOM     17  C   UNL     1      -0.087  10.204  22.463  0.00  0.00    +0.000 C 
BRANCH  13  20
ATOM     18  C   UNL     1      -2.940  12.303  20.924  0.00  0.00    +0.000 C 
ATOM     19  C   UNL     1      -1.764  12.976  20.271  0.00  0.00    +0.000 C 
ATOM     20  C   UNL     1      -1.529  12.045  21.435  0.00  0.00    +0.000 C 
BRANCH  18  21
ATOM     21  C   UNL     1      -3.885  13.047  21.797  0.00  0.00    +0.000 C 
ATOM     22  O   UNL     1      -4.648  12.488  22.570  0.00  0.00    +0.000 OA
BRANCH  21  23
ATOM     23  O   UNL     1      -3.853  14.374  21.512  0.00  0.00    +0.000 OA
BRANCH  23  25
ATOM     24  C   UNL     1      -4.694  16.027  23.007  0.00  0.00    +0.000 C 
ATOM     25  C   UNL     1      -3.474  15.216  22.608  0.00  0.00    +0.000 C 
ENDBRANCH  23  25
ENDBRANCH  21  23
ENDBRANCH  18  21
ENDBRANCH  13  20
BRANCH  17  26
ATOM     26  N   UNL     1      -0.898   9.366  23.359  0.00  0.00    +0.000 NA
ATOM     27  H   UNL     1      -1.269   9.953  24.112  0.00  0.00    +0.000 HD
ATOM     28  H   UNL     1      -0.300   8.676  23.808  0.00  0.00    +0.000 HD
ENDBRANCH  17  26
ENDBRANCH   1  15
BRANCH  12  29
ATOM     29  C   UNL     1       2.522   4.621  20.764  0.00  0.00    +0.000 C 
ATOM     30  C   UNL     1       1.224   3.847  20.776  0.00  0.00    +0.000 C 
ATOM     31  C   UNL     1       2.518   3.126  20.982  0.00  0.00    +0.000 C 
ENDBRANCH  12  29
BRANCH  10  32
ATOM     32  C   UNL     1       5.709   4.120  17.119  0.00  0.00    +0.000 C 
ATOM     33  O   UNL     1       5.558   3.542  16.052  0.00  0.00    +0.000 OA
BRANCH  32  34
ATOM     34  O   UNL     1       6.845   4.015  17.840  0.00  0.00    +0.000 OA
ATOM     35  H   UNL     1       7.389   4.840  17.860  0.00  0.00    +0.000 HD
ENDBRANCH  32  34
ENDBRANCH  10  32
TORSDOF 9
ENDMDL
MODEL 4
REMARK VINA RESULT:      -7.7      2.676     10.178
REMARK  Name = 
REMARK  10 active torsions:
REMARK  status: ('A' for Active; 'I' for Inactive)
REMARK    1  A    between atoms: C_1  and  C_2
REMARK    2  A    between atoms: C_2  and  O_3
REMARK    3  A    between atoms: O_3  and  C_4
REMARK    4  A    between atoms: C_4  and  C_6
REMARK    5  A    between atoms: C_8  and  C_9
REMARK    6  A    between atoms: N_11  and  C_12
REMARK    7  A    between atoms: C_21  and  C_22
REMARK    8  A    between atoms: C_22  and  O_24
REMARK    9  A    between atoms: N_26  and  C_27
REMARK   10  A    between atoms: C_31  and  N_32
REMARK                            x       y       z     vdW  Elec       q    Type
REMARK                         _______ _______ _______ _____ _____    ______ ____
ROOT
ATOM      1  C   UNL     1       2.138   7.352  19.609  0.00  0.00    +0.000 A 
ATOM      2  C   UNL     1       1.811   8.685  19.305  0.00  0.00    +0.000 A 
ATOM      3  C   UNL     1       0.992   9.471  20.120  0.00  0.00    +0.000 A 
ATOM      4  C   UNL     1       0.511   8.894  21.305  0.00  0.00    +0.000 A 
ATOM      5  C   UNL     1       0.788   7.560  21.626  0.00  0.00    +0.000 A 
ATOM      6  C   UNL     1       1.582   6.800  20.768  0.00  0.00    +0.000 A 
ATOM      7  F   UNL     1       1.846   5.529  21.109  0.00  0.00    +0.000 F 
ATOM      8  C   UNL     1      -0.278   9.733  22.239  0.00  0.00    +0.000 A 
ATOM      9  O   UNL     1      -0.752   9.270  23.276  0.00  0.00    +0.000 OA
ATOM     10  C   UNL     1      -0.451  11.167  21.917  0.00  0.00    +0.000 A 
ATOM     11  C   UNL     1       0.013  11.592  20.733  0.00  0.00    +0.000 A 
ATOM     12  N   UNL     1       0.646  10.808  19.786  0.00  0.00    +0.000 N 
ENDROOT
BRANCH   1  15
ATOM     13  C   UNL     1       4.783   5.988  17.541  0.00  0.00    +0.000 C 
ATOM     14  C   UNL     1       4.058   7.270  17.988  0.00  0.00    +0.000 C 
ATOM     15  N   UNL     1       2.951   6.685  18.723  0.00  0.00    +0.000 N 
ATOM     16  C   UNL     1       2.386   5.598  17.921  0.00  0.00    +0.000 C 
ATOM     17  C   UNL     1       3.615   5.032  17.162  0.00  0.00    +0.000 C 
BRANCH  13  20
ATOM     18  C   UNL     1       6.717   5.083  16.035  0.00  0.00    +0.000 C 
ATOM     19  C   UNL     1       7.241   6.324  16.705  0.00  0.00    +0.000 C 
ATOM     20  C   UNL     1       5.763   6.203  16.426  0.00  0.00    +0.000 C 
BRANCH  18  21
ATOM     21  C   UNL     1       6.942   4.817  14.591  0.00  0.00    +0.000 C 
ATOM     22  O   UNL     1       7.774   5.422  13.931  0.00  0.00    +0.000 OA
BRANCH  21  23
ATOM     23  O   UNL     1       6.030   3.929  14.120  0.00  0.00    +0.000 OA
BRANCH  23  25
ATOM     24  C   UNL     1       4.875   3.382  12.110  0.00  0.00    +0.000 C 
ATOM     25  C   UNL     1       6.239   3.511  12.766  0.00  0.00    +0.000 C 
ENDBRANCH  23  25
ENDBRANCH  21  23
ENDBRANCH  18  21
ENDBRANCH  13  20
BRANCH  17  26
ATOM     26  N   UNL     1       3.899   3.638  17.534  0.00  0.00    +0.000 NA
ATOM     27  H   UNL     1       4.397   3.187  16.761  0.00  0.00    +0.000 HD
ATOM     28  H   UNL     1       3.023   3.132  17.639  0.00  0.00    +0.000 HD
ENDBRANCH  17  26
ENDBRANCH   1  15
BRANCH  12  29
ATOM     29  C   UNL     1       1.139  11.458  18.554  0.00  0.00    +0.000 C 
ATOM     30  C   UNL     1       0.984  12.941  18.308  0.00  0.00    +0.000 C 
ATOM     31  C   UNL     1       2.343  12.371  18.562  0.00  0.00    +0.000 C 
ENDBRANCH  12  29
BRANCH  10  32
ATOM     32  C   UNL     1      -1.094  12.139  22.825  0.00  0.00    +0.000 C 
ATOM     33  O   UNL     1      -0.523  13.129  23.260  0.00  0.00    +0.000 OA
BRANCH  32  34
ATOM     34  O   UNL     1      -2.368  11.841  23.154  0.00  0.00    +0.000 OA
ATOM     35  H   UNL     1      -2.936  11.588  22.385  0.00  0.00    +0.000 HD
ENDBRANCH  32  34
ENDBRANCH  10  32
TORSDOF 9
ENDMDL
MODEL 5
REMARK VINA RESULT:      -7.7      1.368      1.865
REMARK  Name = 
REMARK  10 active torsions:
REMARK  status: ('A' for Active; 'I' for Inactive)
REMARK    1  A    between atoms: C_1  and  C_2
REMARK    2  A    between atoms: C_2  and  O_3
REMARK    3  A    between atoms: O_3  and  C_4
REMARK    4  A    between atoms: C_4  and  C_6
REMARK    5  A    between atoms: C_8  and  C_9
REMARK    6  A    between atoms: N_11  and  C_12
REMARK    7  A    between atoms: C_21  and  C_22
REMARK    8  A    between atoms: C_22  and  O_24
REMARK    9  A    between atoms: N_26  and  C_27
REMARK   10  A    between atoms: C_31  and  N_32
REMARK                            x       y       z     vdW  Elec       q    Type
REMARK                         _______ _______ _______ _____ _____    ______ ____
ROOT
ATOM      1  C   UNL     1       1.387   9.206  18.973  0.00  0.00    +0.000 A 
ATOM      2  C   UNL     1       1.560   7.920  19.515  0.00  0.00    +0.000 A 
ATOM      3  C   UNL     1       2.516   7.019  19.041  0.00  0.00    +0.000 A 
ATOM      4  C   UNL     1       3.352   7.447  18.000  0.00  0.00    +0.000 A 
ATOM      5  C   UNL     1       3.190   8.707  17.412  0.00  0.00    +0.000 A 
ATOM      6  C   UNL     1       2.201   9.564  17.892  0.00  0.00    +0.000 A 
ATOM      7  F   UNL     1       2.078  10.773  17.322  0.00  0.00    +0.000 F 
ATOM      8  C   UNL     1       4.441   6.551  17.542  0.00  0.00    +0.000 A 
ATOM      9  O   UNL     1       5.182   6.862  16.611  0.00  0.00    +0.000 OA
ATOM     10  C   UNL     1       4.650   5.277  18.266  0.00  0.00    +0.000 A 
ATOM     11  C   UNL     1       3.758   4.954  19.214  0.00  0.00    +0.000 A 
ATOM     12  N   UNL     1       2.661   5.711  19.580  0.00  0.00    +0.000 N 
ENDROOT
BRANCH   1  15
ATOM     13  C   UNL     1      -0.728  11.405  20.928  0.00  0.00    +0.000 C 
ATOM     14  C   UNL     1       0.129  10.127  20.945  0.00  0.00    +0.000 C 
ATOM     15  N   UNL     1       0.408   9.996  19.526  0.00  0.00    +0.000 N 
ATOM     16  C   UNL     1      -0.841  10.201  18.789  0.00  0.00    +0.000 C 
ATOM     17  C   UNL     1      -1.614  11.224  19.661  0.00  0.00    +0.000 C 
BRANCH  13  20
ATOM     18  C   UNL     1      -2.366  12.878  22.332  0.00  0.00    +0.000 C 
ATOM     19  C   UNL     1      -1.131  12.695  23.170  0.00  0.00    +0.000 C 
ATOM     20  C   UNL     1      -1.519  11.622  22.183  0.00  0.00    +0.000 C 
BRANCH  18  21
ATOM     21  C   UNL     1      -3.730  12.748  22.908  0.00  0.00    +0.000 C 
ATOM     22  O   UNL     1      -4.693  12.384  22.248  0.00  0.00    +0.000 OA
BRANCH  21  23
ATOM     23  O   UNL     1      -3.754  13.202  24.187  0.00  0.00    +0.000 OA
BRANCH  23  25
ATOM     24  C   UNL     1      -3.068  15.248  25.194  0.00  0.00    +0.000 C 
ATOM     25  C   UNL     1      -4.123  14.579  24.331  0.00  0.00    +0.000 C 
ENDBRANCH  23  25
ENDBRANCH  21  23
ENDBRANCH  18  21
ENDBRANCH  13  20
BRANCH  17  26
ATOM     26  N   UNL     1      -1.834  12.495  18.955  0.00  0.00    +0.000 NA
ATOM     27  H   UNL     1      -1.194  13.198  19.337  0.00  0.00    +0.000 HD
ATOM     28  H   UNL     1      -2.774  12.832  19.155  0.00  0.00    +0.000 HD
ENDBRANCH  17  26
ENDBRANCH   1  15
BRANCH  12  29
ATOM     29  C   UNL     1       1.810   5.223  20.685  0.00  0.00    +0.000 C 
ATOM     30  C   UNL     1       0.827   4.090  20.505  0.00  0.00    +0.000 C 
ATOM     31  C   UNL     1       2.048   3.885  21.344  0.00  0.00    +0.000 C 
ENDBRANCH  12  29
BRANCH  10  32
ATOM     32  C   UNL     1       5.779   4.360  18.003  0.00  0.00    +0.000 C 
ATOM     33  O   UNL     1       6.758   4.277  18.731  0.00  0.00    +0.000 OA
BRANCH  32  34
ATOM     34  O   UNL     1       5.654   3.625  16.879  0.00  0.00    +0.000 OA
ATOM     35  H   UNL     1       5.605   4.160  16.049  0.00  0.00    +0.000 HD
ENDBRANCH  32  34
ENDBRANCH  10  32
TORSDOF 9
ENDMDL
MODEL 6
REMARK VINA RESULT:      -7.7      1.259      1.928
REMARK  Name = 
REMARK  10 active torsions:
REMARK  status: ('A' for Active; 'I' for Inactive)
REMARK    1  A    between atoms: C_1  and  C_2
REMARK    2  A    between atoms: C_2  and  O_3
REMARK    3  A    between atoms: O_3  and  C_4
REMARK    4  A    between atoms: C_4  and  C_6
REMARK    5  A    between atoms: C_8  and  C_9
REMARK    6  A    between atoms: N_11  and  C_12
REMARK    7  A    between atoms: C_21  and  C_22
REMARK    8  A    between atoms: C_22  and  O_24
REMARK    9  A    between atoms: N_26  and  C_27
REMARK   10  A    between atoms: C_31  and  N_32
REMARK                            x       y       z     vdW  Elec       q    Type
REMARK                         _______ _______ _______ _____ _____    ______ ____
ROOT
ATOM      1  C   UNL     1       1.377   9.247  19.031  0.00  0.00    +0.000 A 
ATOM      2  C   UNL     1       1.560   7.960  19.566  0.00  0.00    +0.000 A 
ATOM      3  C   UNL     1       2.504   7.058  19.070  0.00  0.00    +0.000 A 
ATOM      4  C   UNL     1       3.318   7.488  18.011  0.00  0.00    +0.000 A 
ATOM      5  C   UNL     1       3.144   8.749  17.429  0.00  0.00    +0.000 A 
ATOM      6  C   UNL     1       2.167   9.606  17.933  0.00  0.00    +0.000 A 
ATOM      7  F   UNL     1       2.034  10.817  17.368  0.00  0.00    +0.000 F 
ATOM      8  C   UNL     1       4.395   6.591  17.528  0.00  0.00    +0.000 A 
ATOM      9  O   UNL     1       5.116   6.902  16.581  0.00  0.00    +0.000 OA
ATOM     10  C   UNL     1       4.618   5.315  18.244  0.00  0.00    +0.000 A 
ATOM     11  C   UNL     1       3.747   4.992  19.211  0.00  0.00    +0.000 A 
ATOM     12  N   UNL     1       2.659   5.749  19.603  0.00  0.00    +0.000 N 
ENDROOT
BRANCH   1  15
ATOM     13  C   UNL     1      -0.687  11.455  21.029  0.00  0.00    +0.000 C 
ATOM     14  C   UNL     1       0.177  10.182  21.032  0.00  0.00    +0.000 C 
ATOM     15  N   UNL     1       0.411  10.037  19.606  0.00  0.00    +0.000 N 
ATOM     16  C   UNL     1      -0.862  10.227  18.908  0.00  0.00    +0.000 C 
ATOM     17  C   UNL     1      -1.612  11.255  19.794  0.00  0.00    +0.000 C 
BRANCH  13  20
ATOM     18  C   UNL     1      -2.445  12.820  22.398  0.00  0.00    +0.000 C 
ATOM     19  C   UNL     1      -1.157  12.884  23.172  0.00  0.00    +0.000 C 
ATOM     20  C   UNL     1      -1.439  11.680  22.307  0.00  0.00    +0.000 C 
BRANCH  18  21
ATOM     21  C   UNL     1      -3.748  12.563  23.065  0.00  0.00    +0.000 C 
ATOM     22  O   UNL     1      -3.867  12.504  24.280  0.00  0.00    +0.000 OA
BRANCH  21  23
ATOM     23  O   UNL     1      -4.709  12.288  22.146  0.00  0.00    +0.000 OA
BRANCH  23  25
ATOM     24  C   UNL     1      -5.764  14.359  21.625  0.00  0.00    +0.000 C 
ATOM     25  C   UNL     1      -4.846  13.266  21.108  0.00  0.00    +0.000 C 
ENDBRANCH  23  25
ENDBRANCH  21  23
ENDBRANCH  18  21
ENDBRANCH  13  20
BRANCH  17  26
ATOM     26  N   UNL     1      -1.863  12.518  19.082  0.00  0.00    +0.000 NA
ATOM     27  H   UNL     1      -2.749  12.911  19.414  0.00  0.00    +0.000 HD
ATOM     28  H   UNL     1      -1.993  12.326  18.091  0.00  0.00    +0.000 HD
ENDBRANCH  17  26
ENDBRANCH   1  15
BRANCH  12  29
ATOM     29  C   UNL     1       1.832   5.261  20.725  0.00  0.00    +0.000 C 
ATOM     30  C   UNL     1       0.879   4.097  20.577  0.00  0.00    +0.000 C 
ATOM     31  C   UNL     1       2.113   3.943  21.408  0.00  0.00    +0.000 C 
ENDBRANCH  12  29
BRANCH  10  32
ATOM     32  C   UNL     1       5.740   4.397  17.955  0.00  0.00    +0.000 C 
ATOM     33  O   UNL     1       6.721   4.290  18.677  0.00  0.00    +0.000 OA
BRANCH  32  34
ATOM     34  O   UNL     1       5.605   3.691  16.814  0.00  0.00    +0.000 OA
ATOM     35  H   UNL     1       6.140   2.859  16.787  0.00  0.00    +0.000 HD
ENDBRANCH  32  34
ENDBRANCH  10  32
TORSDOF 9
ENDMDL
MODEL 7
REMARK VINA RESULT:      -7.6      1.199      1.411
REMARK  Name = 
REMARK  10 active torsions:
REMARK  status: ('A' for Active; 'I' for Inactive)
REMARK    1  A    between atoms: C_1  and  C_2
REMARK    2  A    between atoms: C_2  and  O_3
REMARK    3  A    between atoms: O_3  and  C_4
REMARK    4  A    between atoms: C_4  and  C_6
REMARK    5  A    between atoms: C_8  and  C_9
REMARK    6  A    between atoms: N_11  and  C_12
REMARK    7  A    between atoms: C_21  and  C_22
REMARK    8  A    between atoms: C_22  and  O_24
REMARK    9  A    between atoms: N_26  and  C_27
REMARK   10  A    between atoms: C_31  and  N_32
REMARK                            x       y       z     vdW  Elec       q    Type
REMARK                         _______ _______ _______ _____ _____    ______ ____
ROOT
ATOM      1  C   UNL     1       2.024   8.341  19.265  0.00  0.00    +0.000 A 
ATOM      2  C   UNL     1       2.456   7.036  19.562  0.00  0.00    +0.000 A 
ATOM      3  C   UNL     1       3.309   6.311  18.726  0.00  0.00    +0.000 A 
ATOM      4  C   UNL     1       3.769   6.943  17.561  0.00  0.00    +0.000 A 
ATOM      5  C   UNL     1       3.336   8.228  17.216  0.00  0.00    +0.000 A 
ATOM      6  C   UNL     1       2.457   8.904  18.060  0.00  0.00    +0.000 A 
ATOM      7  F   UNL     1       2.071  10.143  17.713  0.00  0.00    +0.000 F 
ATOM      8  C   UNL     1       4.753   6.237  16.706  0.00  0.00    +0.000 A 
ATOM      9  O   UNL     1       5.164   6.730  15.657  0.00  0.00    +0.000 OA
ATOM     10  C   UNL     1       5.270   4.929  17.167  0.00  0.00    +0.000 A 
ATOM     11  C   UNL     1       4.721   4.405  18.271  0.00  0.00    +0.000 A 
ATOM     12  N   UNL     1       3.715   4.981  19.024  0.00  0.00    +0.000 N 
ENDROOT
BRANCH   1  15
ATOM     13  C   UNL     1      -0.485  10.221  21.083  0.00  0.00    +0.000 C 
ATOM     14  C   UNL     1       0.670  10.301  20.070  0.00  0.00    +0.000 C 
ATOM     15  N   UNL     1       1.181   8.945  20.167  0.00  0.00    +0.000 N 
ATOM     16  C   UNL     1       1.285   8.592  21.585  0.00  0.00    +0.000 C 
ATOM     17  C   UNL     1       0.114   9.369  22.240  0.00  0.00    +0.000 C 
BRANCH  13  20
ATOM     18  C   UNL     1      -1.998  12.309  20.667  0.00  0.00    +0.000 C 
ATOM     19  C   UNL     1      -0.592  12.822  20.810  0.00  0.00    +0.000 C 
ATOM     20  C   UNL     1      -0.993  11.558  21.530  0.00  0.00    +0.000 C 
BRANCH  18  21
ATOM     21  C   UNL     1      -3.147  12.975  21.334  0.00  0.00    +0.000 C 
ATOM     22  O   UNL     1      -4.290  12.547  21.262  0.00  0.00    +0.000 OA
BRANCH  21  23
ATOM     23  O   UNL     1      -2.758  14.147  21.898  0.00  0.00    +0.000 OA
BRANCH  23  25
ATOM     24  C   UNL     1      -1.624  14.509  23.961  0.00  0.00    +0.000 C 
ATOM     25  C   UNL     1      -2.970  14.234  23.312  0.00  0.00    +0.000 C 
ENDBRANCH  23  25
ENDBRANCH  21  23
ENDBRANCH  18  21
ENDBRANCH  13  20
BRANCH  17  26
ATOM     26  N   UNL     1      -0.884   8.465  22.833  0.00  0.00    +0.000 NA
ATOM     27  H   UNL     1      -0.540   7.503  22.760  0.00  0.00    +0.000 HD
ATOM     28  H   UNL     1      -1.740   8.502  22.284  0.00  0.00    +0.000 HD
ENDBRANCH  17  26
ENDBRANCH   1  15
BRANCH  12  29
ATOM     29  C   UNL     1       3.264   4.282  20.245  0.00  0.00    +0.000 C 
ATOM     30  C   UNL     1       1.990   3.471  20.285  0.00  0.00    +0.000 C 
ATOM     31  C   UNL     1       3.313   2.777  20.366  0.00  0.00    +0.000 C 
ENDBRANCH  12  29
BRANCH  10  32
ATOM     32  C   UNL     1       6.351   4.188  16.483  0.00  0.00    +0.000 C 
ATOM     33  O   UNL     1       7.530   4.504  16.555  0.00  0.00    +0.000 OA
BRANCH  32  34
ATOM     34  O   UNL     1       5.931   3.133  15.753  0.00  0.00    +0.000 OA
ATOM     35  H   UNL     1       5.758   3.342  14.803  0.00  0.00    +0.000 HD
ENDBRANCH  32  34
ENDBRANCH  10  32
TORSDOF 9
ENDMDL
MODEL 8
REMARK VINA RESULT:      -7.6      0.734      1.377
REMARK  Name = 
REMARK  10 active torsions:
REMARK  status: ('A' for Active; 'I' for Inactive)
REMARK    1  A    between atoms: C_1  and  C_2
REMARK    2  A    between atoms: C_2  and  O_3
REMARK    3  A    between atoms: O_3  and  C_4
REMARK    4  A    between atoms: C_4  and  C_6
REMARK    5  A    between atoms: C_8  and  C_9
REMARK    6  A    between atoms: N_11  and  C_12
REMARK    7  A    between atoms: C_21  and  C_22
REMARK    8  A    between atoms: C_22  and  O_24
REMARK    9  A    between atoms: N_26  and  C_27
REMARK   10  A    between atoms: C_31  and  N_32
REMARK                            x       y       z     vdW  Elec       q    Type
REMARK                         _______ _______ _______ _____ _____    ______ ____
ROOT
ATOM      1  C   UNL     1       1.591   8.804  19.533  0.00  0.00    +0.000 A 
ATOM      2  C   UNL     1       1.892   7.487  19.924  0.00  0.00    +0.000 A 
ATOM      3  C   UNL     1       2.722   6.645  19.180  0.00  0.00    +0.000 A 
ATOM      4  C   UNL     1       3.296   7.166  18.012  0.00  0.00    +0.000 A 
ATOM      5  C   UNL     1       2.995   8.460  17.572  0.00  0.00    +0.000 A 
ATOM      6  C   UNL     1       2.135   9.257  18.326  0.00  0.00    +0.000 A 
ATOM      7  F   UNL     1       1.878  10.500  17.890  0.00  0.00    +0.000 F 
ATOM      8  C   UNL     1       4.259   6.331  17.254  0.00  0.00    +0.000 A 
ATOM      9  O   UNL     1       4.767   6.724  16.206  0.00  0.00    +0.000 OA
ATOM     10  C   UNL     1       4.636   5.013  17.815  0.00  0.00    +0.000 A 
ATOM     11  C   UNL     1       3.985   4.604  18.913  0.00  0.00    +0.000 A 
ATOM     12  N   UNL     1       2.994   5.305  19.573  0.00  0.00    +0.000 N 
ENDROOT
BRANCH   1  15
ATOM     13  C   UNL     1      -0.993  10.788  21.118  0.00  0.00    +0.000 C 
ATOM     14  C   UNL     1       0.023  10.721  19.965  0.00  0.00    +0.000 C 
ATOM     15  N   UNL     1       0.757   9.529  20.350  0.00  0.00    +0.000 N 
ATOM     16  C   UNL     1       1.063   9.616  21.780  0.00  0.00    +0.000 C 
ATOM     17  C   UNL     1      -0.147  10.391  22.363  0.00  0.00    +0.000 C 
BRANCH  13  20
ATOM     18  C   UNL     1      -3.071  12.317  20.702  0.00  0.00    +0.000 C 
ATOM     19  C   UNL     1      -1.899  13.001  20.053  0.00  0.00    +0.000 C 
ATOM     20  C   UNL     1      -1.666  12.121  21.256  0.00  0.00    +0.000 C 
BRANCH  18  21
ATOM     21  C   UNL     1      -4.059  13.063  21.523  0.00  0.00    +0.000 C 
ATOM     22  O   UNL     1      -4.719  12.533  22.404  0.00  0.00    +0.000 OA
BRANCH  21  23
ATOM     23  O   UNL     1      -4.193  14.335  21.069  0.00  0.00    +0.000 OA
BRANCH  23  25
ATOM     24  C   UNL     1      -6.072  14.108  19.622  0.00  0.00    +0.000 C 
ATOM     25  C   UNL     1      -5.546  14.769  20.884  0.00  0.00    +0.000 C 
ENDBRANCH  23  25
ENDBRANCH  21  23
ENDBRANCH  18  21
ENDBRANCH  13  20
BRANCH  17  26
ATOM     26  N   UNL     1      -0.917   9.577  23.316  0.00  0.00    +0.000 NA
ATOM     27  H   UNL     1      -0.575   8.612  23.275  0.00  0.00    +0.000 HD
ATOM     28  H   UNL     1      -1.890   9.543  23.021  0.00  0.00    +0.000 HD
ENDBRANCH  17  26
ENDBRANCH   1  15
BRANCH  12  29
ATOM     29  C   UNL     1       2.420   4.721  20.802  0.00  0.00    +0.000 C 
ATOM     30  C   UNL     1       1.187   3.847  20.778  0.00  0.00    +0.000 C 
ATOM     31  C   UNL     1       2.516   3.243  21.102  0.00  0.00    +0.000 C 
ENDBRANCH  12  29
BRANCH  10  32
ATOM     32  C   UNL     1       5.683   4.146  17.236  0.00  0.00    +0.000 C 
ATOM     33  O   UNL     1       6.872   4.426  17.256  0.00  0.00    +0.000 OA
BRANCH  32  34
ATOM     34  O   UNL     1       5.219   3.014  16.666  0.00  0.00    +0.000 OA
ATOM     35  H   UNL     1       5.547   2.183  17.089  0.00  0.00    +0.000 HD
ENDBRANCH  32  34
ENDBRANCH  10  32
TORSDOF 9
ENDMDL
MODEL 9
REMARK VINA RESULT:      -7.5      0.870      1.027
REMARK  Name = 
REMARK  10 active torsions:
REMARK  status: ('A' for Active; 'I' for Inactive)
REMARK    1  A    between atoms: C_1  and  C_2
REMARK    2  A    between atoms: C_2  and  O_3
REMARK    3  A    between atoms: O_3  and  C_4
REMARK    4  A    between atoms: C_4  and  C_6
REMARK    5  A    between atoms: C_8  and  C_9
REMARK    6  A    between atoms: N_11  and  C_12
REMARK    7  A    between atoms: C_21  and  C_22
REMARK    8  A    between atoms: C_22  and  O_24
REMARK    9  A    between atoms: N_26  and  C_27
REMARK   10  A    between atoms: C_31  and  N_32
REMARK                            x       y       z     vdW  Elec       q    Type
REMARK                         _______ _______ _______ _____ _____    ______ ____
ROOT
ATOM      1  C   UNL     1       1.548   8.896  19.521  0.00  0.00    +0.000 A 
ATOM      2  C   UNL     1       1.817   7.578  19.930  0.00  0.00    +0.000 A 
ATOM      3  C   UNL     1       2.642   6.712  19.208  0.00  0.00    +0.000 A 
ATOM      4  C   UNL     1       3.245   7.210  18.043  0.00  0.00    +0.000 A 
ATOM      5  C   UNL     1       2.976   8.505  17.586  0.00  0.00    +0.000 A 
ATOM      6  C   UNL     1       2.120   9.326  18.318  0.00  0.00    +0.000 A 
ATOM      7  F   UNL     1       1.894  10.570  17.866  0.00  0.00    +0.000 F 
ATOM      8  C   UNL     1       4.203   6.349  17.309  0.00  0.00    +0.000 A 
ATOM      9  O   UNL     1       4.735   6.722  16.266  0.00  0.00    +0.000 OA
ATOM     10  C   UNL     1       4.546   5.031  17.889  0.00  0.00    +0.000 A 
ATOM     11  C   UNL     1       3.870   4.645  18.981  0.00  0.00    +0.000 A 
ATOM     12  N   UNL     1       2.882   5.372  19.618  0.00  0.00    +0.000 N 
ENDROOT
BRANCH   1  15
ATOM     13  C   UNL     1      -1.031  10.932  21.049  0.00  0.00    +0.000 C 
ATOM     14  C   UNL     1      -0.012  10.831  19.900  0.00  0.00    +0.000 C 
ATOM     15  N   UNL     1       0.716   9.645  20.317  0.00  0.00    +0.000 N 
ATOM     16  C   UNL     1       1.019   9.768  21.745  0.00  0.00    +0.000 C 
ATOM     17  C   UNL     1      -0.189  10.562  22.305  0.00  0.00    +0.000 C 
BRANCH  13  20
ATOM     18  C   UNL     1      -3.205  12.347  21.357  0.00  0.00    +0.000 C 
ATOM     19  C   UNL     1      -2.597  12.775  20.050  0.00  0.00    +0.000 C 
ATOM     20  C   UNL     1      -1.698  12.270  21.151  0.00  0.00    +0.000 C 
BRANCH  18  21
ATOM     21  C   UNL     1      -3.737  13.332  22.335  0.00  0.00    +0.000 C 
ATOM     22  O   UNL     1      -4.341  14.339  21.994  0.00  0.00    +0.000 OA
BRANCH  21  23
ATOM     23  O   UNL     1      -3.347  13.013  23.595  0.00  0.00    +0.000 OA
BRANCH  23  25
ATOM     24  C   UNL     1      -1.570  14.494  24.160  0.00  0.00    +0.000 C 
ATOM     25  C   UNL     1      -3.021  14.133  24.427  0.00  0.00    +0.000 C 
ENDBRANCH  23  25
ENDBRANCH  21  23
ENDBRANCH  18  21
ENDBRANCH  13  20
BRANCH  17  26
ATOM     26  N   UNL     1      -0.964   9.776  23.277  0.00  0.00    +0.000 NA
ATOM     27  H   UNL     1      -1.479   9.047  22.774  0.00  0.00    +0.000 HD
ATOM     28  H   UNL     1      -1.668  10.372  23.707  0.00  0.00    +0.000 HD
ENDBRANCH  17  26
ENDBRANCH   1  15
BRANCH  12  29
ATOM     29  C   UNL     1       2.278   4.811  20.844  0.00  0.00    +0.000 C 
ATOM     30  C   UNL     1       1.095   3.871  20.801  0.00  0.00    +0.000 C 
ATOM     31  C   UNL     1       2.436   3.355  21.216  0.00  0.00    +0.000 C 
ENDBRANCH  12  29
BRANCH  10  32
ATOM     32  C   UNL     1       5.584   4.137  17.336  0.00  0.00    +0.000 C 
ATOM     33  O   UNL     1       6.779   4.391  17.379  0.00  0.00    +0.000 OA
BRANCH  32  34
ATOM     34  O   UNL     1       5.108   3.013  16.761  0.00  0.00    +0.000 OA
ATOM     35  H   UNL     1       4.191   3.099  16.403  0.00  0.00    +0.000 HD
ENDBRANCH  32  34
ENDBRANCH  10  32
TORSDOF 9
ENDMDL
