MODEL 1
REMARK VINA RESULT:      -8.0      0.000      0.000
REMARK  Name = 
REMARK  5 active torsions:
REMARK  status: ('A' for Active; 'I' for Inactive)
REMARK    1  A    between atoms: C_2  and  C_3
REMARK    2  A    between atoms: C_2  and  C_16
REMARK    3  A    between atoms: C_4  and  N_5
REMARK    4  A    between atoms: N_5  and  C_6
REMARK    5  A    between atoms: C_10  and  C_11
REMARK                            x       y       z     vdW  Elec       q    Type
REMARK                         _______ _______ _______ _____ _____    ______ ____
ROOT
ATOM      1  N   UNL     1       3.845   6.652  17.565  0.00  0.00    +0.000 N 
ATOM      2  H   UNL     1       3.507   7.576  17.319  0.00  0.00    +0.000 HD
ENDROOT
BRANCH   1   3
ATOM      3  C   UNL     1       3.015   5.918  18.433  0.00  0.00    +0.000 A 
ATOM      4  C   UNL     1       2.552   6.535  19.604  0.00  0.00    +0.000 A 
ATOM      5  C   UNL     1       1.731   5.854  20.508  0.00  0.00    +0.000 A 
ATOM      6  C   UNL     1       1.358   4.537  20.257  0.00  0.00    +0.000 A 
ATOM      7  C   UNL     1       1.796   3.894  19.094  0.00  0.00    +0.000 A 
ATOM      8  C   UNL     1       2.612   4.598  18.188  0.00  0.00    +0.000 A 
BRANCH   7   9
ATOM      9  C   UNL     1       1.420   2.463  18.801  0.00  0.00    +0.000 C 
ATOM     10  F   UNL     1       0.081   2.274  18.637  0.00  0.00    +0.000 F 
ATOM     11  F   UNL     1       2.004   1.989  17.665  0.00  0.00    +0.000 F 
ATOM     12  F   UNL     1       1.795   1.612  19.797  0.00  0.00    +0.000 F 
ENDBRANCH   7   9
ENDBRANCH   1   3
BRANCH   1  14
ATOM     13  C   UNL     1       5.392   5.042  16.609  0.00  0.00    +0.000 C 
ATOM     14  C   UNL     1       5.037   6.274  17.000  0.00  0.00    +0.000 C 
BRANCH  13  16
ATOM     15  O   UNL     1       7.723   4.713  16.833  0.00  0.00    +0.000 OA
ATOM     16  C   UNL     1       6.765   4.810  16.065  0.00  0.00    +0.000 C 
BRANCH  16  17
ATOM     17  C   UNL     1       6.911   4.681  14.630  0.00  0.00    +0.000 A 
ATOM     18  C   UNL     1       6.258   3.844  13.742  0.00  0.00    +0.000 A 
ATOM     19  C   UNL     1       6.782   4.123  12.457  0.00  0.00    +0.000 A 
ATOM     20  C   UNL     1       7.725   5.106  12.637  0.00  0.00    +0.000 A 
ATOM     21  O   UNL     1       7.809   5.456  13.947  0.00  0.00    +0.000 OA
ENDBRANCH  16  17
ENDBRANCH  13  16
ENDBRANCH   1  14
TORSDOF 5
ENDMDL
MODEL 2
REMARK VINA RESULT:      -7.9      0.907      1.325
REMARK  Name = 
REMARK  5 active torsions:
REMARK  status: ('A' for Active; 'I' for Inactive)
REMARK    1  A    between atoms: C_2  and  C_3
REMARK    2  A    between atoms: C_2  and  C_16
REMARK    3  A    between atoms: C_4  and  N_5
REMARK    4  A    between atoms: N_5  and  C_6
REMARK    5  A    between atoms: C_10  and  C_11
REMARK                            x       y       z     vdW  Elec       q    Type
REMARK                         _______ _______ _______ _____ _____    ______ ____
ROOT
ATOM      1  N   UNL     1       4.329   6.250  18.643  0.00  0.00    +0.000 N 
ATOM      2  H   UNL     1       4.374   7.237  18.869  0.00  0.00    +0.000 HD
ENDROOT
BRANCH   1   3
ATOM      3  C   UNL     1       3.205   5.568  19.145  0.00  0.00    +0.000 A 
ATOM      4  C   UNL     1       2.408   6.201  20.110  0.00  0.00    +0.000 A 
ATOM      5  C   UNL     1       1.283   5.572  20.650  0.00  0.00    +0.000 A 
ATOM      6  C   UNL     1       0.934   4.290  20.236  0.00  0.00    +0.000 A 
ATOM      7  C   UNL     1       1.703   3.631  19.270  0.00  0.00    +0.000 A 
ATOM      8  C   UNL     1       2.825   4.285  18.726  0.00  0.00    +0.000 A 
BRANCH   7   9
ATOM      9  C   UNL     1       1.358   2.237  18.810  0.00  0.00    +0.000 C 
ATOM     10  F   UNL     1       1.990   1.870  17.660  0.00  0.00    +0.000 F 
ATOM     11  F   UNL     1       1.679   1.287  19.731  0.00  0.00    +0.000 F 
ATOM     12  F   UNL     1       0.026   2.084  18.565  0.00  0.00    +0.000 F 
ENDBRANCH   7   9
ENDBRANCH   1   3
BRANCH   1  14
ATOM     13  C   UNL     1       6.272   4.847  18.244  0.00  0.00    +0.000 C 
ATOM     14  C   UNL     1       5.356   5.756  17.879  0.00  0.00    +0.000 C 
BRANCH  13  16
ATOM     15  O   UNL     1       8.475   4.171  17.712  0.00  0.00    +0.000 OA
ATOM     16  C   UNL     1       7.359   4.473  17.288  0.00  0.00    +0.000 C 
BRANCH  16  17
ATOM     17  C   UNL     1       7.040   4.458  15.876  0.00  0.00    +0.000 A 
ATOM     18  C   UNL     1       6.108   3.705  15.183  0.00  0.00    +0.000 A 
ATOM     19  C   UNL     1       6.211   4.079  13.821  0.00  0.00    +0.000 A 
ATOM     20  C   UNL     1       7.202   5.029  13.763  0.00  0.00    +0.000 A 
ATOM     21  O   UNL     1       7.708   5.271  15.000  0.00  0.00    +0.000 OA
ENDBRANCH  16  17
ENDBRANCH  13  16
ENDBRANCH   1  14
TORSDOF 5
ENDMDL
MODEL 3
REMARK VINA RESULT:      -7.8      0.615      1.081
REMARK  Name = 
REMARK  5 active torsions:
REMARK  status: ('A' for Active; 'I' for Inactive)
REMARK    1  A    between atoms: C_2  and  C_3
REMARK    2  A    between atoms: C_2  and  C_16
REMARK    3  A    between atoms: C_4  and  N_5
REMARK    4  A    between atoms: N_5  and  C_6
REMARK    5  A    between atoms: C_10  and  C_11
REMARK                            x       y       z     vdW  Elec       q    Type
REMARK                         _______ _______ _______ _____ _____    ______ ____
ROOT
ATOM      1  N   UNL     1       4.212   6.442  17.933  0.00  0.00    +0.000 N 
ATOM      2  H   UNL     1       4.064   7.444  17.896  0.00  0.00    +0.000 HD
ENDROOT
BRANCH   1   3
ATOM      3  C   UNL     1       3.255   5.717  18.668  0.00  0.00    +0.000 A 
ATOM      4  C   UNL     1       2.706   6.301  19.819  0.00  0.00    +0.000 A 
ATOM      5  C   UNL     1       1.758   5.628  20.594  0.00  0.00    +0.000 A 
ATOM      6  C   UNL     1       1.340   4.351  20.232  0.00  0.00    +0.000 A 
ATOM      7  C   UNL     1       1.862   3.741  19.086  0.00  0.00    +0.000 A 
ATOM      8  C   UNL     1       2.807   4.438  18.310  0.00  0.00    +0.000 A 
BRANCH   7   9
ATOM      9  C   UNL     1       1.440   2.352  18.675  0.00  0.00    +0.000 C 
ATOM     10  F   UNL     1       2.142   1.860  17.616  0.00  0.00    +0.000 F 
ATOM     11  F   UNL     1       1.588   1.441  19.676  0.00  0.00    +0.000 F 
ATOM     12  F   UNL     1       0.129   2.295  18.308  0.00  0.00    +0.000 F 
ENDBRANCH   7   9
ENDBRANCH   1   3
BRANCH   1  14
ATOM     13  C   UNL     1       5.403   5.754  15.931  0.00  0.00    +0.000 C 
ATOM     14  C   UNL     1       5.304   5.966  17.251  0.00  0.00    +0.000 C 
BRANCH  13  16
ATOM     15  O   UNL     1       7.697   5.187  16.040  0.00  0.00    +0.000 OA
ATOM     16  C   UNL     1       6.662   5.172  15.372  0.00  0.00    +0.000 C 
BRANCH  16  17
ATOM     17  C   UNL     1       6.605   4.579  14.052  0.00  0.00    +0.000 A 
ATOM     18  C   UNL     1       5.718   3.652  13.531  0.00  0.00    +0.000 A 
ATOM     19  C   UNL     1       6.116   3.412  12.195  0.00  0.00    +0.000 A 
ATOM     20  C   UNL     1       7.222   4.199  11.981  0.00  0.00    +0.000 A 
ATOM     21  O   UNL     1       7.525   4.914  13.096  0.00  0.00    +0.000 OA
ENDBRANCH  16  17
ENDBRANCH  13  16
ENDBRANCH   1  14
TORSDOF 5
ENDMDL
MODEL 4
REMARK VINA RESULT:      -7.7      0.855      1.040
REMARK  Name = 
REMARK  5 active torsions:
REMARK  status: ('A' for Active; 'I' for Inactive)
REMARK    1  A    between atoms: C_2  and  C_3
REMARK    2  A    between atoms: C_2  and  C_16
REMARK    3  A    between atoms: C_4  and  N_5
REMARK    4  A    between atoms: N_5  and  C_6
REMARK    5  A    between atoms: C_10  and  C_11
REMARK                            x       y       z     vdW  Elec       q    Type
REMARK                         _______ _______ _______ _____ _____    ______ ____
ROOT
ATOM      1  N   UNL     1       3.615   6.940  17.629  0.00  0.00    +0.000 N 
ATOM      2  H   UNL     1       3.221   7.869  17.526  0.00  0.00    +0.000 HD
ENDROOT
BRANCH   1   3
ATOM      3  C   UNL     1       2.892   6.068  18.464  0.00  0.00    +0.000 A 
ATOM      4  C   UNL     1       2.459   6.536  19.714  0.00  0.00    +0.000 A 
ATOM      5  C   UNL     1       1.743   5.715  20.589  0.00  0.00    +0.000 A 
ATOM      6  C   UNL     1       1.447   4.403  20.230  0.00  0.00    +0.000 A 
ATOM      7  C   UNL     1       1.858   3.905  18.989  0.00  0.00    +0.000 A 
ATOM      8  C   UNL     1       2.566   4.750  18.114  0.00  0.00    +0.000 A 
BRANCH   7   9
ATOM      9  C   UNL     1       1.564   2.484  18.577  0.00  0.00    +0.000 C 
ATOM     10  F   UNL     1       0.235   2.224  18.427  0.00  0.00    +0.000 F 
ATOM     11  F   UNL     1       2.145   2.151  17.392  0.00  0.00    +0.000 F 
ATOM     12  F   UNL     1       2.019   1.576  19.485  0.00  0.00    +0.000 F 
ENDBRANCH   7   9
ENDBRANCH   1   3
BRANCH   1  14
ATOM     13  C   UNL     1       5.054   5.602  16.202  0.00  0.00    +0.000 C 
ATOM     14  C   UNL     1       4.768   6.691  16.930  0.00  0.00    +0.000 C 
BRANCH  13  16
ATOM     15  O   UNL     1       7.394   5.933  16.116  0.00  0.00    +0.000 OA
ATOM     16  C   UNL     1       6.396   5.482  15.554  0.00  0.00    +0.000 C 
BRANCH  16  17
ATOM     17  C   UNL     1       6.472   4.803  14.277  0.00  0.00    +0.000 A 
ATOM     18  C   UNL     1       7.429   4.885  13.281  0.00  0.00    +0.000 A 
ATOM     19  C   UNL     1       7.016   4.015  12.244  0.00  0.00    +0.000 A 
ATOM     20  C   UNL     1       5.831   3.460  12.664  0.00  0.00    +0.000 A 
ATOM     21  O   UNL     1       5.494   3.924  13.895  0.00  0.00    +0.000 OA
ENDBRANCH  16  17
ENDBRANCH  13  16
ENDBRANCH   1  14
TORSDOF 5
ENDMDL
MODEL 5
REMARK VINA RESULT:      -7.6      1.606      2.015
REMARK  Name = 
REMARK  5 active torsions:
REMARK  status: ('A' for Active; 'I' for Inactive)
REMARK    1  A    between atoms: C_2  and  C_3
REMARK    2  A    between atoms: C_2  and  C_16
REMARK    3  A    between atoms: C_4  and  N_5
REMARK    4  A    between atoms: N_5  and  C_6
REMARK    5  A    between atoms: C_10  and  C_11
REMARK                            x       y       z     vdW  Elec       q    Type
REMARK                         _______ _______ _______ _____ _____    ______ ____
ROOT
ATOM      1  N   UNL     1       4.386   6.021  18.423  0.00  0.00    +0.000 N 
ATOM      2  H   UNL     1       4.298   6.974  18.758  0.00  0.00    +0.000 HD
ENDROOT
BRANCH   1   3
ATOM      3  C   UNL     1       3.329   5.158  18.772  0.00  0.00    +0.000 A 
ATOM      4  C   UNL     1       2.336   4.890  17.818  0.00  0.00    +0.000 A 
ATOM      5  C   UNL     1       1.259   4.049  18.108  0.00  0.00    +0.000 A 
ATOM      6  C   UNL     1       1.153   3.458  19.364  0.00  0.00    +0.000 A 
ATOM      7  C   UNL     1       2.130   3.699  20.337  0.00  0.00    +0.000 A 
ATOM      8  C   UNL     1       3.215   4.539  20.023  0.00  0.00    +0.000 A 
BRANCH   7   9
ATOM      9  C   UNL     1       2.035   3.084  21.711  0.00  0.00    +0.000 C 
ATOM     10  F   UNL     1       0.779   2.673  22.039  0.00  0.00    +0.000 F 
ATOM     11  F   UNL     1       2.834   1.991  21.853  0.00  0.00    +0.000 F 
ATOM     12  F   UNL     1       2.409   3.950  22.694  0.00  0.00    +0.000 F 
ENDBRANCH   7   9
ENDBRANCH   1   3
BRANCH   1  14
ATOM     13  C   UNL     1       5.771   4.611  17.010  0.00  0.00    +0.000 C 
ATOM     14  C   UNL     1       5.504   5.743  17.678  0.00  0.00    +0.000 C 
BRANCH  13  16
ATOM     15  O   UNL     1       8.111   4.280  16.940  0.00  0.00    +0.000 OA
ATOM     16  C   UNL     1       7.078   4.468  16.298  0.00  0.00    +0.000 C 
BRANCH  16  17
ATOM     17  C   UNL     1       7.069   4.532  14.851  0.00  0.00    +0.000 A 
ATOM     18  C   UNL     1       6.222   3.927  13.939  0.00  0.00    +0.000 A 
ATOM     19  C   UNL     1       6.659   4.321  12.652  0.00  0.00    +0.000 A 
ATOM     20  C   UNL     1       7.747   5.135  12.853  0.00  0.00    +0.000 A 
ATOM     21  O   UNL     1       8.002   5.276  14.180  0.00  0.00    +0.000 OA
ENDBRANCH  16  17
ENDBRANCH  13  16
ENDBRANCH   1  14
TORSDOF 5
ENDMDL
MODEL 6
REMARK VINA RESULT:      -7.6      1.697      2.121
REMARK  Name = 
REMARK  5 active torsions:
REMARK  status: ('A' for Active; 'I' for Inactive)
REMARK    1  A    between atoms: C_2  and  C_3
REMARK    2  A    between atoms: C_2  and  C_16
REMARK    3  A    between atoms: C_4  and  N_5
REMARK    4  A    between atoms: N_5  and  C_6
REMARK    5  A    between atoms: C_10  and  C_11
REMARK                            x       y       z     vdW  Elec       q    Type
REMARK                         _______ _______ _______ _____ _____    ______ ____
ROOT
ATOM      1  N   UNL     1       6.160   4.014  18.300  0.00  0.00    +0.000 N 
ATOM      2  H   UNL     1       6.798   3.565  18.948  0.00  0.00    +0.000 HD
ENDROOT
BRANCH   1   3
ATOM      3  C   UNL     1       4.878   4.291  18.810  0.00  0.00    +0.000 A 
ATOM      4  C   UNL     1       4.520   5.627  19.044  0.00  0.00    +0.000 A 
ATOM      5  C   UNL     1       3.265   5.964  19.557  0.00  0.00    +0.000 A 
ATOM      6  C   UNL     1       2.340   4.966  19.849  0.00  0.00    +0.000 A 
ATOM      7  C   UNL     1       2.661   3.624  19.622  0.00  0.00    +0.000 A 
ATOM      8  C   UNL     1       3.925   3.303  19.093  0.00  0.00    +0.000 A 
BRANCH   7   9
ATOM      9  C   UNL     1       1.685   2.519  19.942  0.00  0.00    +0.000 C 
ATOM     10  F   UNL     1       0.395   2.823  19.625  0.00  0.00    +0.000 F 
ATOM     11  F   UNL     1       1.968   1.362  19.283  0.00  0.00    +0.000 F 
ATOM     12  F   UNL     1       1.676   2.201  21.267  0.00  0.00    +0.000 F 
ENDBRANCH   7   9
ENDBRANCH   1   3
BRANCH   1  14
ATOM     13  C   UNL     1       5.961   4.433  15.916  0.00  0.00    +0.000 C 
ATOM     14  C   UNL     1       6.659   4.286  17.051  0.00  0.00    +0.000 C 
BRANCH  13  16
ATOM     15  O   UNL     1       7.674   5.409  14.609  0.00  0.00    +0.000 OA
ATOM     16  C   UNL     1       6.689   4.671  14.631  0.00  0.00    +0.000 C 
BRANCH  16  17
ATOM     17  C   UNL     1       6.210   3.988  13.447  0.00  0.00    +0.000 A 
ATOM     18  C   UNL     1       6.915   3.350  12.441  0.00  0.00    +0.000 A 
ATOM     19  C   UNL     1       5.959   2.856  11.522  0.00  0.00    +0.000 A 
ATOM     20  C   UNL     1       4.731   3.224  12.017  0.00  0.00    +0.000 A 
ATOM     21  O   UNL     1       4.869   3.905  13.184  0.00  0.00    +0.000 OA
ENDBRANCH  16  17
ENDBRANCH  13  16
ENDBRANCH   1  14
TORSDOF 5
ENDMDL
MODEL 7
REMARK VINA RESULT:      -7.6      2.341      3.536
REMARK  Name = 
REMARK  5 active torsions:
REMARK  status: ('A' for Active; 'I' for Inactive)
REMARK    1  A    between atoms: C_2  and  C_3
REMARK    2  A    between atoms: C_2  and  C_16
REMARK    3  A    between atoms: C_4  and  N_5
REMARK    4  A    between atoms: N_5  and  C_6
REMARK    5  A    between atoms: C_10  and  C_11
REMARK                            x       y       z     vdW  Elec       q    Type
REMARK                         _______ _______ _______ _____ _____    ______ ____
ROOT
ATOM      1  N   UNL     1       2.902   6.209  17.951  0.00  0.00    +0.000 N 
ATOM      2  H   UNL     1       2.302   7.027  17.957  0.00  0.00    +0.000 HD
ENDROOT
BRANCH   1   3
ATOM      3  C   UNL     1       2.327   5.036  18.475  0.00  0.00    +0.000 A 
ATOM      4  C   UNL     1       1.529   4.244  17.636  0.00  0.00    +0.000 A 
ATOM      5  C   UNL     1       0.926   3.073  18.101  0.00  0.00    +0.000 A 
ATOM      6  C   UNL     1       1.107   2.670  19.421  0.00  0.00    +0.000 A 
ATOM      7  C   UNL     1       1.902   3.434  20.284  0.00  0.00    +0.000 A 
ATOM      8  C   UNL     1       2.513   4.604  19.795  0.00  0.00    +0.000 A 
BRANCH   7   9
ATOM      9  C   UNL     1       2.106   3.032  21.723  0.00  0.00    +0.000 C 
ATOM     10  F   UNL     1       2.438   4.072  22.537  0.00  0.00    +0.000 F 
ATOM     11  F   UNL     1       0.995   2.468  22.273  0.00  0.00    +0.000 F 
ATOM     12  F   UNL     1       3.102   2.114  21.870  0.00  0.00    +0.000 F 
ENDBRANCH   7   9
ENDBRANCH   1   3
BRANCH   1  14
ATOM     13  C   UNL     1       4.822   5.533  16.626  0.00  0.00    +0.000 C 
ATOM     14  C   UNL     1       4.155   6.382  17.421  0.00  0.00    +0.000 C 
BRANCH  13  16
ATOM     15  O   UNL     1       6.611   5.527  15.080  0.00  0.00    +0.000 OA
ATOM     16  C   UNL     1       6.213   5.870  16.193  0.00  0.00    +0.000 C 
BRANCH  16  17
ATOM     17  C   UNL     1       7.043   6.624  17.110  0.00  0.00    +0.000 A 
ATOM     18  C   UNL     1       7.648   6.230  18.291  0.00  0.00    +0.000 A 
ATOM     19  C   UNL     1       8.339   7.359  18.792  0.00  0.00    +0.000 A 
ATOM     20  C   UNL     1       8.111   8.374  17.893  0.00  0.00    +0.000 A 
ATOM     21  O   UNL     1       7.332   7.940  16.868  0.00  0.00    +0.000 OA
ENDBRANCH  16  17
ENDBRANCH  13  16
ENDBRANCH   1  14
TORSDOF 5
ENDMDL
MODEL 8
REMARK VINA RESULT:      -7.6      2.536      3.557
REMARK  Name = 
REMARK  5 active torsions:
REMARK  status: ('A' for Active; 'I' for Inactive)
REMARK    1  A    between atoms: C_2  and  C_3
REMARK    2  A    between atoms: C_2  and  C_16
REMARK    3  A    between atoms: C_4  and  N_5
REMARK    4  A    between atoms: N_5  and  C_6
REMARK    5  A    between atoms: C_10  and  C_11
REMARK                            x       y       z     vdW  Elec       q    Type
REMARK                         _______ _______ _______ _____ _____    ______ ____
ROOT
ATOM      1  N   UNL     1       4.455   2.888  17.214  0.00  0.00    +0.000 N 
ATOM      2  H   UNL     1       4.589   1.957  16.835  0.00  0.00    +0.000 HD
ENDROOT
BRANCH   1   3
ATOM      3  C   UNL     1       3.307   3.056  18.010  0.00  0.00    +0.000 A 
ATOM      4  C   UNL     1       2.102   3.417  17.388  0.00  0.00    +0.000 A 
ATOM      5  C   UNL     1       0.932   3.605  18.127  0.00  0.00    +0.000 A 
ATOM      6  C   UNL     1       0.943   3.438  19.509  0.00  0.00    +0.000 A 
ATOM      7  C   UNL     1       2.126   3.072  20.161  0.00  0.00    +0.000 A 
ATOM      8  C   UNL     1       3.293   2.874  19.400  0.00  0.00    +0.000 A 
BRANCH   7   9
ATOM      9  C   UNL     1       2.174   2.896  21.658  0.00  0.00    +0.000 C 
ATOM     10  F   UNL     1       2.394   4.057  22.336  0.00  0.00    +0.000 F 
ATOM     11  F   UNL     1       1.018   2.384  22.163  0.00  0.00    +0.000 F 
ATOM     12  F   UNL     1       3.163   2.046  22.051  0.00  0.00    +0.000 F 
ENDBRANCH   7   9
ENDBRANCH   1   3
BRANCH   1  14
ATOM     13  C   UNL     1       5.882   4.115  15.678  0.00  0.00    +0.000 C 
ATOM     14  C   UNL     1       5.419   3.813  16.899  0.00  0.00    +0.000 C 
BRANCH  13  16
ATOM     15  O   UNL     1       7.539   5.271  14.449  0.00  0.00    +0.000 OA
ATOM     16  C   UNL     1       6.985   5.116  15.537  0.00  0.00    +0.000 C 
BRANCH  16  17
ATOM     17  C   UNL     1       7.345   5.894  16.704  0.00  0.00    +0.000 A 
ATOM     18  C   UNL     1       7.663   5.479  17.986  0.00  0.00    +0.000 A 
ATOM     19  C   UNL     1       7.931   6.647  18.739  0.00  0.00    +0.000 A 
ATOM     20  C   UNL     1       7.756   7.703  17.876  0.00  0.00    +0.000 A 
ATOM     21  O   UNL     1       7.406   7.260  16.641  0.00  0.00    +0.000 OA
ENDBRANCH  16  17
ENDBRANCH  13  16
ENDBRANCH   1  14
TORSDOF 5
ENDMDL
MODEL 9
REMARK VINA RESULT:      -7.6      1.752      2.255
REMARK  Name = 
REMARK  5 active torsions:
REMARK  status: ('A' for Active; 'I' for Inactive)
REMARK    1  A    between atoms: C_2  and  C_3
REMARK    2  A    between atoms: C_2  and  C_16
REMARK    3  A    between atoms: C_4  and  N_5
REMARK    4  A    between atoms: N_5  and  C_6
REMARK    5  A    between atoms: C_10  and  C_11
REMARK                            x       y       z     vdW  Elec       q    Type
REMARK                         _______ _______ _______ _____ _____    ______ ____
ROOT
ATOM      1  N   UNL     1       2.926   6.408  18.088  0.00  0.00    +0.000 N 
ATOM      2  H   UNL     1       2.421   7.257  18.318  0.00  0.00    +0.000 HD
ENDROOT
BRANCH   1   3
ATOM      3  C   UNL     1       2.352   5.216  18.571  0.00  0.00    +0.000 A 
ATOM      4  C   UNL     1       1.558   4.452  17.704  0.00  0.00    +0.000 A 
ATOM      5  C   UNL     1       0.957   3.264  18.127  0.00  0.00    +0.000 A 
ATOM      6  C   UNL     1       1.137   2.817  19.433  0.00  0.00    +0.000 A 
ATOM      7  C   UNL     1       1.929   3.551  20.322  0.00  0.00    +0.000 A 
ATOM      8  C   UNL     1       2.538   4.739  19.876  0.00  0.00    +0.000 A 
BRANCH   7   9
ATOM      9  C   UNL     1       2.132   3.100  21.747  0.00  0.00    +0.000 C 
ATOM     10  F   UNL     1       1.015   2.565  22.314  0.00  0.00    +0.000 F 
ATOM     11  F   UNL     1       3.100   2.149  21.863  0.00  0.00    +0.000 F 
ATOM     12  F   UNL     1       2.510   4.120  22.567  0.00  0.00    +0.000 F 
ENDBRANCH   7   9
ENDBRANCH   1   3
BRANCH   1  14
ATOM     13  C   UNL     1       4.958   5.620  17.017  0.00  0.00    +0.000 C 
ATOM     14  C   UNL     1       4.063   6.565  17.338  0.00  0.00    +0.000 C 
BRANCH  13  16
ATOM     15  O   UNL     1       6.926   6.878  16.649  0.00  0.00    +0.000 OA
ATOM     16  C   UNL     1       6.176   5.995  16.234  0.00  0.00    +0.000 C 
BRANCH  16  17
ATOM     17  C   UNL     1       6.440   5.271  15.008  0.00  0.00    +0.000 A 
ATOM     18  C   UNL     1       5.703   4.279  14.385  0.00  0.00    +0.000 A 
ATOM     19  C   UNL     1       6.415   3.914  13.217  0.00  0.00    +0.000 A 
ATOM     20  C   UNL     1       7.543   4.698  13.200  0.00  0.00    +0.000 A 
ATOM     21  O   UNL     1       7.567   5.527  14.275  0.00  0.00    +0.000 OA
ENDBRANCH  16  17
ENDBRANCH  13  16
ENDBRANCH   1  14
TORSDOF 5
ENDMDL
