MODEL 1
REMARK VINA RESULT:      -7.5      0.000      0.000
REMARK  Name = 
REMARK  4 active torsions:
REMARK  status: ('A' for Active; 'I' for Inactive)
REMARK    1  A    between atoms: C_1  and  C_2
REMARK    2  A    between atoms: C_4  and  C_5
REMARK    3  A    between atoms: C_6  and  C_7
REMARK    4  A    between atoms: C_7  and  N_8
REMARK                            x       y       z     vdW  Elec       q    Type
REMARK                         _______ _______ _______ _____ _____    ______ ____
ROOT
ATOM      1  N   UNL     1       3.425   6.217  19.173  0.00  0.00    +0.000 N 
ATOM      2  C   UNL     1       2.429   6.532  20.063  0.00  0.00    +0.000 C 
ATOM      3  O   UNL     1       2.088   5.766  20.961  0.00  0.00    +0.000 OA
ATOM      4  N   UNL     1       1.827   7.764  19.872  0.00  0.00    +0.000 N 
ATOM      5  C   UNL     1       2.174   8.721  18.810  0.00  0.00    +0.000 C 
ATOM      6  C   UNL     1       0.965   9.548  18.354  0.00  0.00    +0.000 C 
ATOM      7  N   UNL     1       0.314  10.171  19.507  0.00  0.00    +0.000 N 
ATOM      8  C   UNL     1       0.000  11.507  19.447  0.00  0.00    +0.000 A 
ATOM      9  C   UNL     1      -1.077  12.058  20.137  0.00  0.00    +0.000 A 
ATOM     10  C   UNL     1      -1.339  13.428  20.055  0.00  0.00    +0.000 A 
ATOM     11  C   UNL     1      -0.510  14.233  19.293  0.00  0.00    +0.000 A 
ATOM     12  C   UNL     1       0.538  13.626  18.637  0.00  0.00    +0.000 A 
ATOM     13  N   UNL     1       0.794  12.301  18.692  0.00  0.00    +0.000 NA
ATOM     14  C   UNL     1      -0.111   9.251  20.562  0.00  0.00    +0.000 C 
ATOM     15  C   UNL     1       1.059   8.337  20.990  0.00  0.00    +0.000 C 
ATOM     16  H   UNL     1       3.924   6.993  18.773  0.00  0.00    +0.000 HD
ENDROOT
BRANCH   1  17
ATOM     17  C   UNL     1       4.226   5.018  19.325  0.00  0.00    +0.000 C 
BRANCH  17  23
ATOM     18  C   UNL     1       6.781   4.141  14.169  0.00  0.00    +0.000 C 
ATOM     19  C   UNL     1       6.207   4.357  15.535  0.00  0.00    +0.000 A 
ATOM     20  C   UNL     1       6.914   4.838  16.568  0.00  0.00    +0.000 A 
ATOM     21  C   UNL     1       6.294   5.050  17.866  0.00  0.00    +0.000 A 
ATOM     22  C   UNL     1       7.165   5.638  18.941  0.00  0.00    +0.000 C 
ATOM     23  C   UNL     1       4.993   4.740  18.065  0.00  0.00    +0.000 A 
ATOM     24  C   UNL     1       4.213   4.180  16.917  0.00  0.00    +0.000 A 
ATOM     25  O   UNL     1       3.030   3.866  17.023  0.00  0.00    +0.000 OA
ATOM     26  N   UNL     1       4.882   4.043  15.722  0.00  0.00    +0.000 N 
ATOM     27  H   UNL     1       4.332   3.678  14.956  0.00  0.00    +0.000 HD
ENDBRANCH  17  23
ENDBRANCH   1  17
TORSDOF 2
ENDMDL
MODEL 2
REMARK VINA RESULT:      -7.4      1.298      1.633
REMARK  Name = 
REMARK  4 active torsions:
REMARK  status: ('A' for Active; 'I' for Inactive)
REMARK    1  A    between atoms: C_1  and  C_2
REMARK    2  A    between atoms: C_4  and  C_5
REMARK    3  A    between atoms: C_6  and  C_7
REMARK    4  A    between atoms: C_7  and  N_8
REMARK                            x       y       z     vdW  Elec       q    Type
REMARK                         _______ _______ _______ _____ _____    ______ ____
ROOT
ATOM      1  N   UNL     1       3.138   6.611  18.832  0.00  0.00    +0.000 N 
ATOM      2  C   UNL     1       2.241   6.917  19.824  0.00  0.00    +0.000 C 
ATOM      3  O   UNL     1       1.991   6.140  20.742  0.00  0.00    +0.000 OA
ATOM      4  N   UNL     1       1.629   8.154  19.713  0.00  0.00    +0.000 N 
ATOM      5  C   UNL     1       1.868   9.124  18.634  0.00  0.00    +0.000 C 
ATOM      6  C   UNL     1       0.623   9.961  18.317  0.00  0.00    +0.000 C 
ATOM      7  N   UNL     1       0.098  10.571  19.540  0.00  0.00    +0.000 N 
ATOM      8  C   UNL     1      -0.214  11.908  19.531  0.00  0.00    +0.000 A 
ATOM      9  C   UNL     1      -1.212  12.453  20.337  0.00  0.00    +0.000 A 
ATOM     10  C   UNL     1      -1.474  13.825  20.301  0.00  0.00    +0.000 A 
ATOM     11  C   UNL     1      -0.724  14.638  19.468  0.00  0.00    +0.000 A 
ATOM     12  C   UNL     1       0.248  14.037  18.698  0.00  0.00    +0.000 A 
ATOM     13  N   UNL     1       0.502  12.710  18.708  0.00  0.00    +0.000 NA
ATOM     14  C   UNL     1      -0.221   9.638  20.620  0.00  0.00    +0.000 C 
ATOM     15  C   UNL     1       0.983   8.713  20.912  0.00  0.00    +0.000 C 
ATOM     16  H   UNL     1       3.597   7.391  18.393  0.00  0.00    +0.000 HD
ENDROOT
BRANCH   1  17
ATOM     17  C   UNL     1       3.945   5.407  18.884  0.00  0.00    +0.000 C 
BRANCH  17  23
ATOM     18  C   UNL     1       6.812   4.617  13.880  0.00  0.00    +0.000 C 
ATOM     19  C   UNL     1       6.014   4.755  15.139  0.00  0.00    +0.000 A 
ATOM     20  C   UNL     1       5.254   3.774  15.646  0.00  0.00    +0.000 A 
ATOM     21  C   UNL     1       4.521   3.960  16.889  0.00  0.00    +0.000 A 
ATOM     22  C   UNL     1       3.739   2.780  17.393  0.00  0.00    +0.000 C 
ATOM     23  C   UNL     1       4.571   5.141  17.545  0.00  0.00    +0.000 A 
ATOM     24  C   UNL     1       5.399   6.243  16.963  0.00  0.00    +0.000 A 
ATOM     25  O   UNL     1       5.487   7.346  17.497  0.00  0.00    +0.000 OA
ATOM     26  N   UNL     1       6.077   5.959  15.800  0.00  0.00    +0.000 N 
ATOM     27  H   UNL     1       6.644   6.712  15.432  0.00  0.00    +0.000 HD
ENDBRANCH  17  23
ENDBRANCH   1  17
TORSDOF 2
ENDMDL
MODEL 3
REMARK VINA RESULT:      -7.1      2.210      3.284
REMARK  Name = 
REMARK  4 active torsions:
REMARK  status: ('A' for Active; 'I' for Inactive)
REMARK    1  A    between atoms: C_1  and  C_2
REMARK    2  A    between atoms: C_4  and  C_5
REMARK    3  A    between atoms: C_6  and  C_7
REMARK    4  A    between atoms: C_7  and  N_8
REMARK                            x       y       z     vdW  Elec       q    Type
REMARK                         _______ _______ _______ _____ _____    ______ ____
ROOT
ATOM      1  N   UNL     1       2.167   7.167  18.683  0.00  0.00    +0.000 N 
ATOM      2  C   UNL     1       2.049   8.477  18.294  0.00  0.00    +0.000 C 
ATOM      3  O   UNL     1       2.493   8.885  17.224  0.00  0.00    +0.000 OA
ATOM      4  N   UNL     1       1.405   9.309  19.194  0.00  0.00    +0.000 N 
ATOM      5  C   UNL     1       0.865   8.893  20.497  0.00  0.00    +0.000 C 
ATOM      6  C   UNL     1       0.927  10.015  21.540  0.00  0.00    +0.000 C 
ATOM      7  N   UNL     1       0.303  11.230  21.014  0.00  0.00    +0.000 N 
ATOM      8  C   UNL     1      -0.606  11.899  21.797  0.00  0.00    +0.000 A 
ATOM      9  C   UNL     1      -0.804  13.276  21.711  0.00  0.00    +0.000 A 
ATOM     10  C   UNL     1      -1.755  13.901  22.520  0.00  0.00    +0.000 A 
ATOM     11  C   UNL     1      -2.509  13.139  23.397  0.00  0.00    +0.000 A 
ATOM     12  C   UNL     1      -2.264  11.784  23.432  0.00  0.00    +0.000 A 
ATOM     13  N   UNL     1      -1.336  11.166  22.670  0.00  0.00    +0.000 NA
ATOM     14  C   UNL     1       0.853  11.724  19.752  0.00  0.00    +0.000 C 
ATOM     15  C   UNL     1       0.889  10.596  18.697  0.00  0.00    +0.000 C 
ATOM     16  H   UNL     1       1.458   6.823  19.307  0.00  0.00    +0.000 HD
ENDROOT
BRANCH   1  17
ATOM     17  C   UNL     1       2.706   6.157  17.791  0.00  0.00    +0.000 C 
BRANCH  17  23
ATOM     18  C   UNL     1       8.299   4.998  18.910  0.00  0.00    +0.000 C 
ATOM     19  C   UNL     1       6.889   5.364  18.566  0.00  0.00    +0.000 A 
ATOM     20  C   UNL     1       6.539   5.971  17.423  0.00  0.00    +0.000 A 
ATOM     21  C   UNL     1       5.147   6.279  17.134  0.00  0.00    +0.000 A 
ATOM     22  C   UNL     1       4.860   6.915  15.803  0.00  0.00    +0.000 C 
ATOM     23  C   UNL     1       4.178   5.983  18.030  0.00  0.00    +0.000 A 
ATOM     24  C   UNL     1       4.574   5.330  19.316  0.00  0.00    +0.000 A 
ATOM     25  O   UNL     1       3.753   5.040  20.182  0.00  0.00    +0.000 OA
ATOM     26  N   UNL     1       5.913   5.054  19.482  0.00  0.00    +0.000 N 
ATOM     27  H   UNL     1       6.157   4.598  20.352  0.00  0.00    +0.000 HD
ENDBRANCH  17  23
ENDBRANCH   1  17
TORSDOF 2
ENDMDL
MODEL 4
REMARK VINA RESULT:      -7.1      2.467      3.805
REMARK  Name = 
REMARK  4 active torsions:
REMARK  status: ('A' for Active; 'I' for Inactive)
REMARK    1  A    between atoms: C_1  and  C_2
REMARK    2  A    between atoms: C_4  and  C_5
REMARK    3  A    between atoms: C_6  and  C_7
REMARK    4  A    between atoms: C_7  and  N_8
REMARK                            x       y       z     vdW  Elec       q    Type
REMARK                         _______ _______ _______ _____ _____    ______ ____
ROOT
ATOM      1  N   UNL     1       2.306   6.662  18.698  0.00  0.00    +0.000 N 
ATOM      2  C   UNL     1       2.279   7.978  18.312  0.00  0.00    +0.000 C 
ATOM      3  O   UNL     1       2.774   8.360  17.254  0.00  0.00    +0.000 OA
ATOM      4  N   UNL     1       1.666   8.847  19.199  0.00  0.00    +0.000 N 
ATOM      5  C   UNL     1       1.069   8.462  20.486  0.00  0.00    +0.000 C 
ATOM      6  C   UNL     1       1.175   9.576  21.535  0.00  0.00    +0.000 C 
ATOM      7  N   UNL     1       0.641  10.829  20.998  0.00  0.00    +0.000 N 
ATOM      8  C   UNL     1      -0.243  11.551  21.762  0.00  0.00    +0.000 A 
ATOM      9  C   UNL     1      -0.353  12.937  21.676  0.00  0.00    +0.000 A 
ATOM     10  C   UNL     1      -1.284  13.619  22.463  0.00  0.00    +0.000 A 
ATOM     11  C   UNL     1      -2.105  12.903  23.318  0.00  0.00    +0.000 A 
ATOM     12  C   UNL     1      -1.946  11.535  23.354  0.00  0.00    +0.000 A 
ATOM     13  N   UNL     1      -1.039  10.863  22.613  0.00  0.00    +0.000 NA
ATOM     14  C   UNL     1       1.252  11.290  19.752  0.00  0.00    +0.000 C 
ATOM     15  C   UNL     1       1.244  10.164  18.694  0.00  0.00    +0.000 C 
ATOM     16  H   UNL     1       1.561   6.361  19.304  0.00  0.00    +0.000 HD
ENDROOT
BRANCH   1  17
ATOM     17  C   UNL     1       2.802   5.623  17.816  0.00  0.00    +0.000 C 
BRANCH  17  23
ATOM     18  C   UNL     1       5.089   1.348  21.038  0.00  0.00    +0.000 C 
ATOM     19  C   UNL     1       4.419   2.404  20.215  0.00  0.00    +0.000 A 
ATOM     20  C   UNL     1       3.110   2.684  20.292  0.00  0.00    +0.000 A 
ATOM     21  C   UNL     1       2.520   3.740  19.485  0.00  0.00    +0.000 A 
ATOM     22  C   UNL     1       1.054   4.002  19.684  0.00  0.00    +0.000 C 
ATOM     23  C   UNL     1       3.280   4.446  18.616  0.00  0.00    +0.000 A 
ATOM     24  C   UNL     1       4.736   4.114  18.513  0.00  0.00    +0.000 A 
ATOM     25  O   UNL     1       5.487   4.704  17.741  0.00  0.00    +0.000 OA
ATOM     26  N   UNL     1       5.203   3.118  19.341  0.00  0.00    +0.000 N 
ATOM     27  H   UNL     1       6.192   2.921  19.266  0.00  0.00    +0.000 HD
ENDBRANCH  17  23
ENDBRANCH   1  17
TORSDOF 2
ENDMDL
MODEL 5
REMARK VINA RESULT:      -7.0      3.421      9.291
REMARK  Name = 
REMARK  4 active torsions:
REMARK  status: ('A' for Active; 'I' for Inactive)
REMARK    1  A    between atoms: C_1  and  C_2
REMARK    2  A    between atoms: C_4  and  C_5
REMARK    3  A    between atoms: C_6  and  C_7
REMARK    4  A    between atoms: C_7  and  N_8
REMARK                            x       y       z     vdW  Elec       q    Type
REMARK                         _______ _______ _______ _____ _____    ______ ____
ROOT
ATOM      1  N   UNL     1      -0.316  11.197  18.202  0.00  0.00    +0.000 N 
ATOM      2  C   UNL     1       0.021  10.568  19.374  0.00  0.00    +0.000 C 
ATOM      3  O   UNL     1      -0.303  11.014  20.472  0.00  0.00    +0.000 OA
ATOM      4  N   UNL     1       0.760   9.406  19.236  0.00  0.00    +0.000 N 
ATOM      5  C   UNL     1       1.195   8.826  17.957  0.00  0.00    +0.000 C 
ATOM      6  C   UNL     1       2.532   8.085  18.078  0.00  0.00    +0.000 C 
ATOM      7  N   UNL     1       2.474   7.109  19.168  0.00  0.00    +0.000 N 
ATOM      8  C   UNL     1       2.916   5.830  18.934  0.00  0.00    +0.000 A 
ATOM      9  C   UNL     1       3.460   5.028  19.936  0.00  0.00    +0.000 A 
ATOM     10  C   UNL     1       3.876   3.727  19.646  0.00  0.00    +0.000 A 
ATOM     11  C   UNL     1       3.730   3.238  18.359  0.00  0.00    +0.000 A 
ATOM     12  C   UNL     1       3.185   4.081  17.416  0.00  0.00    +0.000 A 
ATOM     13  N   UNL     1       2.793   5.348  17.676  0.00  0.00    +0.000 NA
ATOM     14  C   UNL     1       2.111   7.651  20.477  0.00  0.00    +0.000 C 
ATOM     15  C   UNL     1       0.811   8.481  20.380  0.00  0.00    +0.000 C 
ATOM     16  H   UNL     1      -0.404  10.608  17.392  0.00  0.00    +0.000 HD
ENDROOT
BRANCH   1  17
ATOM     17  C   UNL     1      -1.192  12.353  18.186  0.00  0.00    +0.000 C 
BRANCH  17  23
ATOM     18  C   UNL     1      -6.881  11.151  18.450  0.00  0.00    +0.000 C 
ATOM     19  C   UNL     1      -5.408  11.389  18.324  0.00  0.00    +0.000 A 
ATOM     20  C   UNL     1      -4.688  11.025  17.253  0.00  0.00    +0.000 A 
ATOM     21  C   UNL     1      -3.263  11.307  17.176  0.00  0.00    +0.000 A 
ATOM     22  C   UNL     1      -2.562  10.899  15.911  0.00  0.00    +0.000 C 
ATOM     23  C   UNL     1      -2.629  11.919  18.202  0.00  0.00    +0.000 A 
ATOM     24  C   UNL     1      -3.430  12.301  19.407  0.00  0.00    +0.000 A 
ATOM     25  O   UNL     1      -2.922  12.851  20.381  0.00  0.00    +0.000 OA
ATOM     26  N   UNL     1      -4.776  12.017  19.370  0.00  0.00    +0.000 N 
ATOM     27  H   UNL     1      -5.301  12.297  20.188  0.00  0.00    +0.000 HD
ENDBRANCH  17  23
ENDBRANCH   1  17
TORSDOF 2
ENDMDL
MODEL 6
REMARK VINA RESULT:      -6.8      2.389      3.552
REMARK  Name = 
REMARK  4 active torsions:
REMARK  status: ('A' for Active; 'I' for Inactive)
REMARK    1  A    between atoms: C_1  and  C_2
REMARK    2  A    between atoms: C_4  and  C_5
REMARK    3  A    between atoms: C_6  and  C_7
REMARK    4  A    between atoms: C_7  and  N_8
REMARK                            x       y       z     vdW  Elec       q    Type
REMARK                         _______ _______ _______ _____ _____    ______ ____
ROOT
ATOM      1  N   UNL     1       2.017   7.190  18.711  0.00  0.00    +0.000 N 
ATOM      2  C   UNL     1       2.019   8.520  18.377  0.00  0.00    +0.000 C 
ATOM      3  O   UNL     1       2.541   8.935  17.345  0.00  0.00    +0.000 OA
ATOM      4  N   UNL     1       1.403   9.363  19.285  0.00  0.00    +0.000 N 
ATOM      5  C   UNL     1       0.774   8.938  20.545  0.00  0.00    +0.000 C 
ATOM      6  C   UNL     1       0.878  10.008  21.639  0.00  0.00    +0.000 C 
ATOM      7  N   UNL     1       0.375  11.290  21.143  0.00  0.00    +0.000 N 
ATOM      8  C   UNL     1      -0.512  11.996  21.917  0.00  0.00    +0.000 A 
ATOM      9  C   UNL     1      -0.598  13.387  21.885  0.00  0.00    +0.000 A 
ATOM     10  C   UNL     1      -1.532  14.053  22.681  0.00  0.00    +0.000 A 
ATOM     11  C   UNL     1      -2.381  13.318  23.491  0.00  0.00    +0.000 A 
ATOM     12  C   UNL     1      -2.246  11.947  23.476  0.00  0.00    +0.000 A 
ATOM     13  N   UNL     1      -1.336  11.289  22.725  0.00  0.00    +0.000 NA
ATOM     14  C   UNL     1       1.018  11.789  19.928  0.00  0.00    +0.000 C 
ATOM     15  C   UNL     1       1.012  10.706  18.826  0.00  0.00    +0.000 C 
ATOM     16  H   UNL     1       1.255   6.878  19.289  0.00  0.00    +0.000 HD
ENDROOT
BRANCH   1  17
ATOM     17  C   UNL     1       2.513   6.178  17.798  0.00  0.00    +0.000 C 
BRANCH  17  23
ATOM     18  C   UNL     1       4.874   1.624  20.550  0.00  0.00    +0.000 C 
ATOM     19  C   UNL     1       4.346   2.841  19.856  0.00  0.00    +0.000 A 
ATOM     20  C   UNL     1       5.129   3.747  19.253  0.00  0.00    +0.000 A 
ATOM     21  C   UNL     1       4.556   4.897  18.572  0.00  0.00    +0.000 A 
ATOM     22  C   UNL     1       5.520   5.825  17.887  0.00  0.00    +0.000 C 
ATOM     23  C   UNL     1       3.217   5.091  18.558  0.00  0.00    +0.000 A 
ATOM     24  C   UNL     1       2.347   4.091  19.254  0.00  0.00    +0.000 A 
ATOM     25  O   UNL     1       1.125   4.203  19.293  0.00  0.00    +0.000 OA
ATOM     26  N   UNL     1       2.984   3.023  19.844  0.00  0.00    +0.000 N 
ATOM     27  H   UNL     1       2.377   2.352  20.296  0.00  0.00    +0.000 HD
ENDBRANCH  17  23
ENDBRANCH   1  17
TORSDOF 2
ENDMDL
MODEL 7
REMARK VINA RESULT:      -6.8      1.876      8.805
REMARK  Name = 
REMARK  4 active torsions:
REMARK  status: ('A' for Active; 'I' for Inactive)
REMARK    1  A    between atoms: C_1  and  C_2
REMARK    2  A    between atoms: C_4  and  C_5
REMARK    3  A    between atoms: C_6  and  C_7
REMARK    4  A    between atoms: C_7  and  N_8
REMARK                            x       y       z     vdW  Elec       q    Type
REMARK                         _______ _______ _______ _____ _____    ______ ____
ROOT
ATOM      1  N   UNL     1       0.991   9.108  19.636  0.00  0.00    +0.000 N 
ATOM      2  C   UNL     1       1.566   7.951  20.094  0.00  0.00    +0.000 C 
ATOM      3  O   UNL     1       1.283   7.468  21.188  0.00  0.00    +0.000 OA
ATOM      4  N   UNL     1       2.494   7.370  19.247  0.00  0.00    +0.000 N 
ATOM      5  C   UNL     1       2.891   7.902  17.934  0.00  0.00    +0.000 C 
ATOM      6  C   UNL     1       4.351   7.578  17.592  0.00  0.00    +0.000 C 
ATOM      7  N   UNL     1       4.598   6.142  17.736  0.00  0.00    +0.000 N 
ATOM      8  C   UNL     1       5.248   5.478  16.725  0.00  0.00    +0.000 A 
ATOM      9  C   UNL     1       6.040   4.354  16.950  0.00  0.00    +0.000 A 
ATOM     10  C   UNL     1       6.664   3.707  15.881  0.00  0.00    +0.000 A 
ATOM     11  C   UNL     1       6.476   4.184  14.595  0.00  0.00    +0.000 A 
ATOM     12  C   UNL     1       5.680   5.298  14.441  0.00  0.00    +0.000 A 
ATOM     13  N   UNL     1       5.085   5.946  15.465  0.00  0.00    +0.000 NA
ATOM     14  C   UNL     1       4.282   5.578  19.048  0.00  0.00    +0.000 C 
ATOM     15  C   UNL     1       2.845   5.958  19.471  0.00  0.00    +0.000 C 
ATOM     16  H   UNL     1       0.930   9.209  18.637  0.00  0.00    +0.000 HD
ENDROOT
BRANCH   1  17
ATOM     17  C   UNL     1      -0.086   9.758  20.359  0.00  0.00    +0.000 C 
BRANCH  17  23
ATOM     18  C   UNL     1      -0.083  15.319  18.640  0.00  0.00    +0.000 C 
ATOM     19  C   UNL     1      -0.172  13.884  19.055  0.00  0.00    +0.000 A 
ATOM     20  C   UNL     1      -1.030  13.008  18.512  0.00  0.00    +0.000 A 
ATOM     21  C   UNL     1      -1.052  11.618  18.939  0.00  0.00    +0.000 A 
ATOM     22  C   UNL     1      -2.019  10.710  18.231  0.00  0.00    +0.000 C 
ATOM     23  C   UNL     1      -0.223  11.186  19.917  0.00  0.00    +0.000 A 
ATOM     24  C   UNL     1       0.715  12.172  20.539  0.00  0.00    +0.000 A 
ATOM     25  O   UNL     1       1.491  11.858  21.439  0.00  0.00    +0.000 OA
ATOM     26  N   UNL     1       0.679  13.457  20.046  0.00  0.00    +0.000 N 
ATOM     27  H   UNL     1       1.332  14.102  20.469  0.00  0.00    +0.000 HD
ENDBRANCH  17  23
ENDBRANCH   1  17
TORSDOF 2
ENDMDL
MODEL 8
REMARK VINA RESULT:      -6.8      3.173      9.223
REMARK  Name = 
REMARK  4 active torsions:
REMARK  status: ('A' for Active; 'I' for Inactive)
REMARK    1  A    between atoms: C_1  and  C_2
REMARK    2  A    between atoms: C_4  and  C_5
REMARK    3  A    between atoms: C_6  and  C_7
REMARK    4  A    between atoms: C_7  and  N_8
REMARK                            x       y       z     vdW  Elec       q    Type
REMARK                         _______ _______ _______ _____ _____    ______ ____
ROOT
ATOM      1  N   UNL     1      -0.338  11.468  18.801  0.00  0.00    +0.000 N 
ATOM      2  C   UNL     1      -0.053  10.740  19.927  0.00  0.00    +0.000 C 
ATOM      3  O   UNL     1      -0.365  11.125  21.052  0.00  0.00    +0.000 OA
ATOM      4  N   UNL     1       0.620   9.549  19.713  0.00  0.00    +0.000 N 
ATOM      5  C   UNL     1       1.037   9.037  18.399  0.00  0.00    +0.000 C 
ATOM      6  C   UNL     1       2.328   8.213  18.478  0.00  0.00    +0.000 C 
ATOM      7  N   UNL     1       2.200   7.168  19.495  0.00  0.00    +0.000 N 
ATOM      8  C   UNL     1       2.571   5.885  19.174  0.00  0.00    +0.000 A 
ATOM      9  C   UNL     1       3.056   4.983  20.120  0.00  0.00    +0.000 A 
ATOM     10  C   UNL     1       3.400   3.684  19.742  0.00  0.00    +0.000 A 
ATOM     11  C   UNL     1       3.243   3.297  18.422  0.00  0.00    +0.000 A 
ATOM     12  C   UNL     1       2.759   4.235  17.537  0.00  0.00    +0.000 A 
ATOM     13  N   UNL     1       2.437   5.501  17.884  0.00  0.00    +0.000 NA
ATOM     14  C   UNL     1       1.852   7.635  20.836  0.00  0.00    +0.000 C 
ATOM     15  C   UNL     1       0.603   8.544  20.788  0.00  0.00    +0.000 C 
ATOM     16  H   UNL     1      -0.450  10.944  17.949  0.00  0.00    +0.000 HD
ENDROOT
BRANCH   1  17
ATOM     17  C   UNL     1      -1.146  12.672  18.860  0.00  0.00    +0.000 C 
BRANCH  17  23
ATOM     18  C   UNL     1      -6.656  10.836  18.466  0.00  0.00    +0.000 C 
ATOM     19  C   UNL     1      -5.269  11.378  18.621  0.00  0.00    +0.000 A 
ATOM     20  C   UNL     1      -4.874  12.114  19.670  0.00  0.00    +0.000 A 
ATOM     21  C   UNL     1      -3.504  12.591  19.777  0.00  0.00    +0.000 A 
ATOM     22  C   UNL     1      -3.156  13.367  21.016  0.00  0.00    +0.000 C 
ATOM     23  C   UNL     1      -2.605  12.324  18.802  0.00  0.00    +0.000 A 
ATOM     24  C   UNL     1      -3.056  11.524  17.620  0.00  0.00    +0.000 A 
ATOM     25  O   UNL     1      -2.300  11.249  16.691  0.00  0.00    +0.000 OA
ATOM     26  N   UNL     1      -4.364  11.094  17.627  0.00  0.00    +0.000 N 
ATOM     27  H   UNL     1      -4.643  10.542  16.826  0.00  0.00    +0.000 HD
ENDBRANCH  17  23
ENDBRANCH   1  17
TORSDOF 2
ENDMDL
MODEL 9
REMARK VINA RESULT:      -6.8      2.324      3.422
REMARK  Name = 
REMARK  4 active torsions:
REMARK  status: ('A' for Active; 'I' for Inactive)
REMARK    1  A    between atoms: C_1  and  C_2
REMARK    2  A    between atoms: C_4  and  C_5
REMARK    3  A    between atoms: C_6  and  C_7
REMARK    4  A    between atoms: C_7  and  N_8
REMARK                            x       y       z     vdW  Elec       q    Type
REMARK                         _______ _______ _______ _____ _____    ______ ____
ROOT
ATOM      1  N   UNL     1       1.962   7.335  18.673  0.00  0.00    +0.000 N 
ATOM      2  C   UNL     1       1.894   8.658  18.319  0.00  0.00    +0.000 C 
ATOM      3  O   UNL     1       2.366   9.079  17.266  0.00  0.00    +0.000 OA
ATOM      4  N   UNL     1       1.269   9.488  19.234  0.00  0.00    +0.000 N 
ATOM      5  C   UNL     1       0.699   9.056  20.519  0.00  0.00    +0.000 C 
ATOM      6  C   UNL     1       0.788  10.147  21.593  0.00  0.00    +0.000 C 
ATOM      7  N   UNL     1       0.212  11.397  21.094  0.00  0.00    +0.000 N 
ATOM      8  C   UNL     1      -0.682  12.075  21.885  0.00  0.00    +0.000 A 
ATOM      9  C   UNL     1      -0.831  13.460  21.834  0.00  0.00    +0.000 A 
ATOM     10  C   UNL     1      -1.770  14.097  22.648  0.00  0.00    +0.000 A 
ATOM     11  C   UNL     1      -2.560  13.338  23.495  0.00  0.00    +0.000 A 
ATOM     12  C   UNL     1      -2.363  11.975  23.496  0.00  0.00    +0.000 A 
ATOM     13  N   UNL     1      -1.448  11.345  22.728  0.00  0.00    +0.000 NA
ATOM     14  C   UNL     1       0.795  11.905  19.852  0.00  0.00    +0.000 C 
ATOM     15  C   UNL     1       0.804  10.805  18.766  0.00  0.00    +0.000 C 
ATOM     16  H   UNL     1       1.234   6.999  19.280  0.00  0.00    +0.000 HD
ENDROOT
BRANCH   1  17
ATOM     17  C   UNL     1       2.476   6.331  17.761  0.00  0.00    +0.000 C 
BRANCH  17  23
ATOM     18  C   UNL     1       8.092   5.476  19.030  0.00  0.00    +0.000 C 
ATOM     19  C   UNL     1       6.629   5.617  18.749  0.00  0.00    +0.000 A 
ATOM     20  C   UNL     1       5.671   5.086  19.523  0.00  0.00    +0.000 A 
ATOM     21  C   UNL     1       4.263   5.279  19.213  0.00  0.00    +0.000 A 
ATOM     22  C   UNL     1       3.273   4.681  20.172  0.00  0.00    +0.000 C 
ATOM     23  C   UNL     1       3.892   5.979  18.116  0.00  0.00    +0.000 A 
ATOM     24  C   UNL     1       4.963   6.549  17.240  0.00  0.00    +0.000 A 
ATOM     25  O   UNL     1       4.704   7.188  16.224  0.00  0.00    +0.000 OA
ATOM     26  N   UNL     1       6.264   6.335  17.636  0.00  0.00    +0.000 N 
ATOM     27  H   UNL     1       6.971   6.742  17.038  0.00  0.00    +0.000 HD
ENDBRANCH  17  23
ENDBRANCH   1  17
TORSDOF 2
ENDMDL
