MODEL 1
REMARK VINA RESULT:      -8.0      0.000      0.000
REMARK  Name = 
REMARK  10 active torsions:
REMARK  status: ('A' for Active; 'I' for Inactive)
REMARK    1  A    between atoms: C_1  and  C_2
REMARK    2  A    between atoms: C_2  and  C_3
REMARK    3  A    between atoms: C_3  and  C_4
REMARK    4  A    between atoms: C_9  and  C_11
REMARK    5  A    between atoms: C_11  and  C_12
REMARK    6  A    between atoms: C_12  and  C_13
REMARK    7  A    between atoms: N_18  and  C_19
REMARK    8  A    between atoms: C_19  and  C_20
REMARK    9  A    between atoms: C_26  and  O_27
REMARK   10  A    between atoms: O_27  and  C_28
REMARK                            x       y       z     vdW  Elec       q    Type
REMARK                         _______ _______ _______ _____ _____    ______ ____
ROOT
ATOM      1  C   UNL     1       2.340   7.592  18.655  0.00  0.00    +0.000 C 
ATOM      2  O   UNL     1       2.620   7.841  17.474  0.00  0.00    +0.000 OA
ATOM      3  N   UNL     1       1.733   8.507  19.488  0.00  0.00    +0.000 N 
ATOM      4  C   UNL     1       1.335   9.812  18.950  0.00  0.00    +0.000 C 
ATOM      5  C   UNL     1      -0.135  10.119  19.306  0.00  0.00    +0.000 C 
ATOM      6  N   UNL     1      -0.436   9.983  20.755  0.00  0.00    +0.000 NA
ATOM      7  C   UNL     1      -0.097   8.599  21.150  0.00  0.00    +0.000 C 
ATOM      8  C   UNL     1       1.378   8.271  20.903  0.00  0.00    +0.000 C 
ENDROOT
BRANCH   1   9
ATOM      9  C   UNL     1       2.568   6.219  19.221  0.00  0.00    +0.000 C 
BRANCH   9  10
ATOM     10  C   UNL     1       4.032   5.815  19.302  0.00  0.00    +0.000 C 
BRANCH  10  16
ATOM     11  C   UNL     1       6.722   4.729  14.070  0.00  0.00    +0.000 A 
ATOM     12  N   UNL     1       7.722   5.359  14.654  0.00  0.00    +0.000 NA
ATOM     13  N   UNL     1       7.373   5.840  15.906  0.00  0.00    +0.000 NA
ATOM     14  C   UNL     1       6.143   5.510  16.236  0.00  0.00    +0.000 A 
ATOM     15  N   UNL     1       5.545   5.875  17.421  0.00  0.00    +0.000 N 
ATOM     16  C   UNL     1       4.437   5.269  17.949  0.00  0.00    +0.000 C 
ATOM     17  O   UNL     1       3.814   4.333  17.434  0.00  0.00    +0.000 OA
ATOM     18  S   UNL     1       5.295   4.677  15.013  0.00  0.00    +0.000 S 
ATOM     19  H   UNL     1       6.077   6.539  17.975  0.00  0.00    +0.000 HD
BRANCH  11  20
ATOM     20  C   UNL     1       6.749   4.109  12.709  0.00  0.00    +0.000 C 
BRANCH  20  22
ATOM     21  C   UNL     1       5.824   2.076  11.540  0.00  0.00    +0.000 C 
ATOM     22  C   UNL     1       5.513   3.246  12.461  0.00  0.00    +0.000 C 
ENDBRANCH  20  22
ENDBRANCH  11  20
ENDBRANCH  10  16
ENDBRANCH   9  10
ENDBRANCH   1   9
BRANCH   6  23
ATOM     23  C   UNL     1       0.290  11.024  21.514  0.00  0.00    +0.000 C 
BRANCH  23  24
ATOM     24  C   UNL     1      -0.550  12.068  22.220  0.00  0.00    +0.000 A 
ATOM     25  C   UNL     1      -1.769  11.600  22.783  0.00  0.00    +0.000 A 
ATOM     26  C   UNL     1      -2.630  12.441  23.482  0.00  0.00    +0.000 A 
ATOM     27  F   UNL     1      -3.780  11.961  23.960  0.00  0.00    +0.000 F 
ATOM     28  C   UNL     1      -2.296  13.763  23.690  0.00  0.00    +0.000 A 
ATOM     29  C   UNL     1      -1.080  14.231  23.191  0.00  0.00    +0.000 A 
ATOM     30  C   UNL     1      -0.208  13.412  22.447  0.00  0.00    +0.000 A 
BRANCH  30  31
ATOM     31  O   UNL     1       0.941  14.089  22.143  0.00  0.00    +0.000 OA
ATOM     32  C   UNL     1       0.951  15.501  22.053  0.00  0.00    +0.000 C 
ENDBRANCH  30  31
ENDBRANCH  23  24
ENDBRANCH   6  23
TORSDOF 8
ENDMDL
MODEL 2
REMARK VINA RESULT:      -7.6      3.244      3.969
REMARK  Name = 
REMARK  10 active torsions:
REMARK  status: ('A' for Active; 'I' for Inactive)
REMARK    1  A    between atoms: C_1  and  C_2
REMARK    2  A    between atoms: C_2  and  C_3
REMARK    3  A    between atoms: C_3  and  C_4
REMARK    4  A    between atoms: C_9  and  C_11
REMARK    5  A    between atoms: C_11  and  C_12
REMARK    6  A    between atoms: C_12  and  C_13
REMARK    7  A    between atoms: N_18  and  C_19
REMARK    8  A    between atoms: C_19  and  C_20
REMARK    9  A    between atoms: C_26  and  O_27
REMARK   10  A    between atoms: O_27  and  C_28
REMARK                            x       y       z     vdW  Elec       q    Type
REMARK                         _______ _______ _______ _____ _____    ______ ____
ROOT
ATOM      1  C   UNL     1       2.488   4.688  20.363  0.00  0.00    +0.000 C 
ATOM      2  O   UNL     1       2.256   4.403  21.546  0.00  0.00    +0.000 OA
ATOM      3  N   UNL     1       2.040   5.851  19.773  0.00  0.00    +0.000 N 
ATOM      4  C   UNL     1       1.314   6.833  20.586  0.00  0.00    +0.000 C 
ATOM      5  C   UNL     1       1.922   8.240  20.406  0.00  0.00    +0.000 C 
ATOM      6  N   UNL     1       2.047   8.656  18.985  0.00  0.00    +0.000 NA
ATOM      7  C   UNL     1       2.887   7.649  18.301  0.00  0.00    +0.000 C 
ATOM      8  C   UNL     1       2.280   6.245  18.369  0.00  0.00    +0.000 C 
ENDROOT
BRANCH   1   9
ATOM      9  C   UNL     1       3.367   3.807  19.522  0.00  0.00    +0.000 C 
BRANCH   9  10
ATOM     10  C   UNL     1       4.748   4.384  19.250  0.00  0.00    +0.000 C 
BRANCH  10  16
ATOM     11  C   UNL     1       6.909   4.578  13.675  0.00  0.00    +0.000 A 
ATOM     12  N   UNL     1       7.805   5.363  14.237  0.00  0.00    +0.000 NA
ATOM     13  N   UNL     1       7.521   5.602  15.573  0.00  0.00    +0.000 NA
ATOM     14  C   UNL     1       6.454   4.947  15.975  0.00  0.00    +0.000 A 
ATOM     15  N   UNL     1       5.948   5.021  17.254  0.00  0.00    +0.000 N 
ATOM     16  C   UNL     1       5.087   4.108  17.800  0.00  0.00    +0.000 C 
ATOM     17  O   UNL     1       4.633   3.112  17.224  0.00  0.00    +0.000 OA
ATOM     18  S   UNL     1       5.667   4.074  14.739  0.00  0.00    +0.000 S 
ATOM     19  H   UNL     1       6.381   5.728  17.838  0.00  0.00    +0.000 HD
BRANCH  11  20
ATOM     20  C   UNL     1       6.898   4.139  12.244  0.00  0.00    +0.000 C 
BRANCH  20  22
ATOM     21  C   UNL     1       6.444   1.857  11.273  0.00  0.00    +0.000 C 
ATOM     22  C   UNL     1       5.850   3.056  11.997  0.00  0.00    +0.000 C 
ENDBRANCH  20  22
ENDBRANCH  11  20
ENDBRANCH  10  16
ENDBRANCH   9  10
ENDBRANCH   1   9
BRANCH   6  23
ATOM     23  C   UNL     1       0.701   8.823  18.395  0.00  0.00    +0.000 C 
BRANCH  23  24
ATOM     24  C   UNL     1       0.114  10.219  18.412  0.00  0.00    +0.000 A 
ATOM     25  C   UNL     1       1.031  11.270  18.687  0.00  0.00    +0.000 A 
ATOM     26  C   UNL     1       0.640  12.605  18.711  0.00  0.00    +0.000 A 
ATOM     27  F   UNL     1       1.531  13.551  19.011  0.00  0.00    +0.000 F 
ATOM     28  C   UNL     1      -0.662  12.954  18.417  0.00  0.00    +0.000 A 
ATOM     29  C   UNL     1      -1.567  11.942  18.093  0.00  0.00    +0.000 A 
ATOM     30  C   UNL     1      -1.208  10.580  18.100  0.00  0.00    +0.000 A 
BRANCH  30  31
ATOM     31  O   UNL     1      -2.252   9.808  17.674  0.00  0.00    +0.000 OA
ATOM     32  C   UNL     1      -2.682   9.843  16.326  0.00  0.00    +0.000 C 
ENDBRANCH  30  31
ENDBRANCH  23  24
ENDBRANCH   6  23
TORSDOF 8
ENDMDL
MODEL 3
REMARK VINA RESULT:      -7.5      1.530      1.759
REMARK  Name = 
REMARK  10 active torsions:
REMARK  status: ('A' for Active; 'I' for Inactive)
REMARK    1  A    between atoms: C_1  and  C_2
REMARK    2  A    between atoms: C_2  and  C_3
REMARK    3  A    between atoms: C_3  and  C_4
REMARK    4  A    between atoms: C_9  and  C_11
REMARK    5  A    between atoms: C_11  and  C_12
REMARK    6  A    between atoms: C_12  and  C_13
REMARK    7  A    between atoms: N_18  and  C_19
REMARK    8  A    between atoms: C_19  and  C_20
REMARK    9  A    between atoms: C_26  and  O_27
REMARK   10  A    between atoms: O_27  and  C_28
REMARK                            x       y       z     vdW  Elec       q    Type
REMARK                         _______ _______ _______ _____ _____    ______ ____
ROOT
ATOM      1  C   UNL     1       2.444   7.162  18.698  0.00  0.00    +0.000 C 
ATOM      2  O   UNL     1       2.675   7.224  17.483  0.00  0.00    +0.000 OA
ATOM      3  N   UNL     1       1.894   8.207  19.408  0.00  0.00    +0.000 N 
ATOM      4  C   UNL     1       1.499   9.428  18.698  0.00  0.00    +0.000 C 
ATOM      5  C   UNL     1       0.053   9.823  19.064  0.00  0.00    +0.000 C 
ATOM      6  N   UNL     1      -0.186   9.913  20.528  0.00  0.00    +0.000 NA
ATOM      7  C   UNL     1       0.142   8.595  21.112  0.00  0.00    +0.000 C 
ATOM      8  C   UNL     1       1.598   8.194  20.856  0.00  0.00    +0.000 C 
ENDROOT
BRANCH   1   9
ATOM      9  C   UNL     1       2.669   5.883  19.454  0.00  0.00    +0.000 C 
BRANCH   9  10
ATOM     10  C   UNL     1       4.128   5.465  19.549  0.00  0.00    +0.000 C 
BRANCH  10  16
ATOM     11  C   UNL     1       6.676   4.561  14.212  0.00  0.00    +0.000 A 
ATOM     12  N   UNL     1       7.591   5.370  14.708  0.00  0.00    +0.000 NA
ATOM     13  N   UNL     1       7.236   5.851  15.959  0.00  0.00    +0.000 NA
ATOM     14  C   UNL     1       6.095   5.347  16.376  0.00  0.00    +0.000 A 
ATOM     15  N   UNL     1       5.510   5.671  17.580  0.00  0.00    +0.000 N 
ATOM     16  C   UNL     1       4.543   4.924  18.197  0.00  0.00    +0.000 C 
ATOM     17  O   UNL     1       4.052   3.877  17.759  0.00  0.00    +0.000 OA
ATOM     18  S   UNL     1       5.328   4.331  15.241  0.00  0.00    +0.000 S 
ATOM     19  H   UNL     1       5.957   6.437  18.073  0.00  0.00    +0.000 HD
BRANCH  11  20
ATOM     20  C   UNL     1       6.729   3.887  12.878  0.00  0.00    +0.000 C 
BRANCH  20  22
ATOM     21  C   UNL     1       5.451   2.279  11.417  0.00  0.00    +0.000 C 
ATOM     22  C   UNL     1       5.349   3.400  12.439  0.00  0.00    +0.000 C 
ENDBRANCH  20  22
ENDBRANCH  11  20
ENDBRANCH  10  16
ENDBRANCH   9  10
ENDBRANCH   1   9
BRANCH   6  23
ATOM     23  C   UNL     1       0.595  11.036  21.091  0.00  0.00    +0.000 C 
BRANCH  23  24
ATOM     24  C   UNL     1       0.207  12.431  20.647  0.00  0.00    +0.000 A 
ATOM     25  C   UNL     1      -1.156  12.785  20.845  0.00  0.00    +0.000 A 
ATOM     26  C   UNL     1      -1.650  14.041  20.508  0.00  0.00    +0.000 A 
ATOM     27  F   UNL     1      -2.945  14.311  20.679  0.00  0.00    +0.000 F 
ATOM     28  C   UNL     1      -0.805  15.009  20.006  0.00  0.00    +0.000 A 
ATOM     29  C   UNL     1       0.547  14.701  19.852  0.00  0.00    +0.000 A 
ATOM     30  C   UNL     1       1.066  13.426  20.149  0.00  0.00    +0.000 A 
BRANCH  30  31
ATOM     31  O   UNL     1       2.423  13.412  19.984  0.00  0.00    +0.000 OA
ATOM     32  C   UNL     1       3.281  13.960  20.967  0.00  0.00    +0.000 C 
ENDBRANCH  30  31
ENDBRANCH  23  24
ENDBRANCH   6  23
TORSDOF 8
ENDMDL
MODEL 4
REMARK VINA RESULT:      -7.4      1.753      2.045
REMARK  Name = 
REMARK  10 active torsions:
REMARK  status: ('A' for Active; 'I' for Inactive)
REMARK    1  A    between atoms: C_1  and  C_2
REMARK    2  A    between atoms: C_2  and  C_3
REMARK    3  A    between atoms: C_3  and  C_4
REMARK    4  A    between atoms: C_9  and  C_11
REMARK    5  A    between atoms: C_11  and  C_12
REMARK    6  A    between atoms: C_12  and  C_13
REMARK    7  A    between atoms: N_18  and  C_19
REMARK    8  A    between atoms: C_19  and  C_20
REMARK    9  A    between atoms: C_26  and  O_27
REMARK   10  A    between atoms: O_27  and  C_28
REMARK                            x       y       z     vdW  Elec       q    Type
REMARK                         _______ _______ _______ _____ _____    ______ ____
ROOT
ATOM      1  C   UNL     1       1.823   7.873  19.654  0.00  0.00    +0.000 C 
ATOM      2  O   UNL     1       1.756   7.267  20.733  0.00  0.00    +0.000 OA
ATOM      3  N   UNL     1       1.204   9.086  19.439  0.00  0.00    +0.000 N 
ATOM      4  C   UNL     1       0.488   9.731  20.544  0.00  0.00    +0.000 C 
ATOM      5  C   UNL     1       0.939  11.199  20.697  0.00  0.00    +0.000 C 
ATOM      6  N   UNL     1       0.861  11.979  19.435  0.00  0.00    +0.000 NA
ATOM      7  C   UNL     1       1.707  11.291  18.436  0.00  0.00    +0.000 C 
ATOM      8  C   UNL     1       1.245   9.854  18.177  0.00  0.00    +0.000 C 
ENDROOT
BRANCH   1   9
ATOM      9  C   UNL     1       2.678   7.350  18.535  0.00  0.00    +0.000 C 
BRANCH   9  10
ATOM     10  C   UNL     1       3.661   6.269  18.957  0.00  0.00    +0.000 C 
BRANCH  10  16
ATOM     11  C   UNL     1       6.732   4.595  14.104  0.00  0.00    +0.000 A 
ATOM     12  N   UNL     1       7.701   5.255  14.705  0.00  0.00    +0.000 NA
ATOM     13  N   UNL     1       7.268   5.868  15.870  0.00  0.00    +0.000 NA
ATOM     14  C   UNL     1       6.005   5.604  16.126  0.00  0.00    +0.000 A 
ATOM     15  N   UNL     1       5.324   6.101  17.215  0.00  0.00    +0.000 N 
ATOM     16  C   UNL     1       4.157   5.579  17.703  0.00  0.00    +0.000 C 
ATOM     17  O   UNL     1       3.547   4.613  17.231  0.00  0.00    +0.000 OA
ATOM     18  S   UNL     1       5.232   4.674  14.922  0.00  0.00    +0.000 S 
ATOM     19  H   UNL     1       5.831   6.804  17.744  0.00  0.00    +0.000 HD
BRANCH  11  20
ATOM     20  C   UNL     1       6.849   3.841  12.817  0.00  0.00    +0.000 C 
BRANCH  20  22
ATOM     21  C   UNL     1       5.583   2.115  11.486  0.00  0.00    +0.000 C 
ATOM     22  C   UNL     1       5.482   3.395  12.301  0.00  0.00    +0.000 C 
ENDBRANCH  20  22
ENDBRANCH  11  20
ENDBRANCH  10  16
ENDBRANCH   9  10
ENDBRANCH   1   9
BRANCH   6  23
ATOM     23  C   UNL     1      -0.553  12.130  19.029  0.00  0.00    +0.000 C 
BRANCH  23  24
ATOM     24  C   UNL     1      -1.427  13.007  19.902  0.00  0.00    +0.000 A 
ATOM     25  C   UNL     1      -2.521  12.352  20.532  0.00  0.00    +0.000 A 
ATOM     26  C   UNL     1      -3.393  13.025  21.382  0.00  0.00    +0.000 A 
ATOM     27  F   UNL     1      -4.426  12.374  21.920  0.00  0.00    +0.000 F 
ATOM     28  C   UNL     1      -3.190  14.357  21.677  0.00  0.00    +0.000 A 
ATOM     29  C   UNL     1      -2.092  15.006  21.111  0.00  0.00    +0.000 A 
ATOM     30  C   UNL     1      -1.215  14.360  20.217  0.00  0.00    +0.000 A 
BRANCH  30  31
ATOM     31  O   UNL     1      -0.188  15.192  19.870  0.00  0.00    +0.000 OA
ATOM     32  C   UNL     1      -0.218  15.920  18.657  0.00  0.00    +0.000 C 
ENDBRANCH  30  31
ENDBRANCH  23  24
ENDBRANCH   6  23
TORSDOF 8
ENDMDL
MODEL 5
REMARK VINA RESULT:      -7.2      4.515     11.349
REMARK  Name = 
REMARK  10 active torsions:
REMARK  status: ('A' for Active; 'I' for Inactive)
REMARK    1  A    between atoms: C_1  and  C_2
REMARK    2  A    between atoms: C_2  and  C_3
REMARK    3  A    between atoms: C_3  and  C_4
REMARK    4  A    between atoms: C_9  and  C_11
REMARK    5  A    between atoms: C_11  and  C_12
REMARK    6  A    between atoms: C_12  and  C_13
REMARK    7  A    between atoms: N_18  and  C_19
REMARK    8  A    between atoms: C_19  and  C_20
REMARK    9  A    between atoms: C_26  and  O_27
REMARK   10  A    between atoms: O_27  and  C_28
REMARK                            x       y       z     vdW  Elec       q    Type
REMARK                         _______ _______ _______ _____ _____    ______ ____
ROOT
ATOM      1  C   UNL     1       1.400   7.936  20.506  0.00  0.00    +0.000 C 
ATOM      2  O   UNL     1       0.654   7.867  21.493  0.00  0.00    +0.000 OA
ATOM      3  N   UNL     1       2.076   6.845  20.003  0.00  0.00    +0.000 N 
ATOM      4  C   UNL     1       1.861   5.527  20.609  0.00  0.00    +0.000 C 
ATOM      5  C   UNL     1       1.535   4.479  19.524  0.00  0.00    +0.000 C 
ATOM      6  N   UNL     1       2.525   4.443  18.416  0.00  0.00    +0.000 NA
ATOM      7  C   UNL     1       2.569   5.795  17.818  0.00  0.00    +0.000 C 
ATOM      8  C   UNL     1       2.979   6.865  18.833  0.00  0.00    +0.000 C 
ENDROOT
BRANCH   1   9
ATOM      9  C   UNL     1       1.533   9.220  19.737  0.00  0.00    +0.000 C 
BRANCH   9  10
ATOM     10  C   UNL     1       0.316   9.570  18.895  0.00  0.00    +0.000 C 
BRANCH  10  16
ATOM     11  C   UNL     1      -1.970  13.678  22.595  0.00  0.00    +0.000 A 
ATOM     12  N   UNL     1      -1.239  13.032  23.481  0.00  0.00    +0.000 NA
ATOM     13  N   UNL     1      -0.623  11.917  22.933  0.00  0.00    +0.000 NA
ATOM     14  C   UNL     1      -0.873  11.798  21.647  0.00  0.00    +0.000 A 
ATOM     15  N   UNL     1      -0.393  10.770  20.867  0.00  0.00    +0.000 N 
ATOM     16  C   UNL     1      -0.326  10.801  19.500  0.00  0.00    +0.000 C 
ATOM     17  O   UNL     1      -0.698  11.736  18.782  0.00  0.00    +0.000 OA
ATOM     18  S   UNL     1      -1.948  12.973  21.036  0.00  0.00    +0.000 S 
ATOM     19  H   UNL     1       0.063  10.026  21.384  0.00  0.00    +0.000 HD
BRANCH  11  20
ATOM     20  C   UNL     1      -2.784  14.906  22.854  0.00  0.00    +0.000 C 
BRANCH  20  22
ATOM     21  C   UNL     1      -4.853  15.690  24.062  0.00  0.00    +0.000 C 
ATOM     22  C   UNL     1      -3.661  14.746  24.095  0.00  0.00    +0.000 C 
ENDBRANCH  20  22
ENDBRANCH  11  20
ENDBRANCH  10  16
ENDBRANCH   9  10
ENDBRANCH   1   9
BRANCH   6  23
ATOM     23  C   UNL     1       3.827   3.965  18.927  0.00  0.00    +0.000 C 
BRANCH  23  24
ATOM     24  C   UNL     1       5.030   4.163  18.029  0.00  0.00    +0.000 A 
ATOM     25  C   UNL     1       4.829   3.860  16.654  0.00  0.00    +0.000 A 
ATOM     26  C   UNL     1       5.837   4.019  15.707  0.00  0.00    +0.000 A 
ATOM     27  F   UNL     1       5.609   3.686  14.436  0.00  0.00    +0.000 F 
ATOM     28  C   UNL     1       7.066   4.525  16.077  0.00  0.00    +0.000 A 
ATOM     29  C   UNL     1       7.268   4.878  17.412  0.00  0.00    +0.000 A 
ATOM     30  C   UNL     1       6.279   4.692  18.397  0.00  0.00    +0.000 A 
BRANCH  30  31
ATOM     31  O   UNL     1       6.703   5.186  19.599  0.00  0.00    +0.000 OA
ATOM     32  C   UNL     1       8.007   5.715  19.750  0.00  0.00    +0.000 C 
ENDBRANCH  30  31
ENDBRANCH  23  24
ENDBRANCH   6  23
TORSDOF 8
ENDMDL
MODEL 6
REMARK VINA RESULT:      -7.2      1.581      2.106
REMARK  Name = 
REMARK  10 active torsions:
REMARK  status: ('A' for Active; 'I' for Inactive)
REMARK    1  A    between atoms: C_1  and  C_2
REMARK    2  A    between atoms: C_2  and  C_3
REMARK    3  A    between atoms: C_3  and  C_4
REMARK    4  A    between atoms: C_9  and  C_11
REMARK    5  A    between atoms: C_11  and  C_12
REMARK    6  A    between atoms: C_12  and  C_13
REMARK    7  A    between atoms: N_18  and  C_19
REMARK    8  A    between atoms: C_19  and  C_20
REMARK    9  A    between atoms: C_26  and  O_27
REMARK   10  A    between atoms: O_27  and  C_28
REMARK                            x       y       z     vdW  Elec       q    Type
REMARK                         _______ _______ _______ _____ _____    ______ ____
ROOT
ATOM      1  C   UNL     1       2.342   7.460  18.860  0.00  0.00    +0.000 C 
ATOM      2  O   UNL     1       2.636   7.685  17.678  0.00  0.00    +0.000 OA
ATOM      3  N   UNL     1       1.754   8.402  19.677  0.00  0.00    +0.000 N 
ATOM      4  C   UNL     1       1.394   9.710  19.119  0.00  0.00    +0.000 C 
ATOM      5  C   UNL     1      -0.069  10.060  19.461  0.00  0.00    +0.000 C 
ATOM      6  N   UNL     1      -0.384   9.952  20.909  0.00  0.00    +0.000 NA
ATOM      7  C   UNL     1      -0.084   8.565  21.325  0.00  0.00    +0.000 C 
ATOM      8  C   UNL     1       1.383   8.194  21.092  0.00  0.00    +0.000 C 
ENDROOT
BRANCH   1   9
ATOM      9  C   UNL     1       2.529   6.089  19.446  0.00  0.00    +0.000 C 
BRANCH   9  10
ATOM     10  C   UNL     1       3.983   5.687  19.635  0.00  0.00    +0.000 C 
BRANCH  10  16
ATOM     11  C   UNL     1       6.560   4.308  14.416  0.00  0.00    +0.000 A 
ATOM     12  N   UNL     1       7.379   5.279  14.764  0.00  0.00    +0.000 NA
ATOM     13  N   UNL     1       6.985   5.895  15.942  0.00  0.00    +0.000 NA
ATOM     14  C   UNL     1       5.915   5.331  16.458  0.00  0.00    +0.000 A 
ATOM     15  N   UNL     1       5.310   5.759  17.619  0.00  0.00    +0.000 N 
ATOM     16  C   UNL     1       4.443   5.004  18.364  0.00  0.00    +0.000 C 
ATOM     17  O   UNL     1       4.074   3.856  18.095  0.00  0.00    +0.000 OA
ATOM     18  S   UNL     1       5.259   4.078  15.504  0.00  0.00    +0.000 S 
ATOM     19  H   UNL     1       5.669   6.634  17.984  0.00  0.00    +0.000 HD
BRANCH  11  20
ATOM     20  C   UNL     1       6.677   3.456  13.191  0.00  0.00    +0.000 C 
BRANCH  20  22
ATOM     21  C   UNL     1       4.589   3.279  11.789  0.00  0.00    +0.000 C 
ATOM     22  C   UNL     1       5.885   4.041  12.023  0.00  0.00    +0.000 C 
ENDBRANCH  20  22
ENDBRANCH  11  20
ENDBRANCH  10  16
ENDBRANCH   9  10
ENDBRANCH   1   9
BRANCH   6  23
ATOM     23  C   UNL     1       0.365  10.983  21.660  0.00  0.00    +0.000 C 
BRANCH  23  24
ATOM     24  C   UNL     1      -0.308  12.329  21.831  0.00  0.00    +0.000 A 
ATOM     25  C   UNL     1       0.270  13.404  21.101  0.00  0.00    +0.000 A 
ATOM     26  C   UNL     1      -0.256  14.692  21.141  0.00  0.00    +0.000 A 
ATOM     27  F   UNL     1       0.345  15.674  20.467  0.00  0.00    +0.000 F 
ATOM     28  C   UNL     1      -1.399  14.954  21.867  0.00  0.00    +0.000 A 
ATOM     29  C   UNL     1      -2.013  13.903  22.549  0.00  0.00    +0.000 A 
ATOM     30  C   UNL     1      -1.480  12.599  22.557  0.00  0.00    +0.000 A 
BRANCH  30  31
ATOM     31  O   UNL     1      -2.310  11.748  23.233  0.00  0.00    +0.000 OA
ATOM     32  C   UNL     1      -3.485  12.224  23.863  0.00  0.00    +0.000 C 
ENDBRANCH  30  31
ENDBRANCH  23  24
ENDBRANCH   6  23
TORSDOF 8
ENDMDL
MODEL 7
REMARK VINA RESULT:      -7.2      5.025     10.775
REMARK  Name = 
REMARK  10 active torsions:
REMARK  status: ('A' for Active; 'I' for Inactive)
REMARK    1  A    between atoms: C_1  and  C_2
REMARK    2  A    between atoms: C_2  and  C_3
REMARK    3  A    between atoms: C_3  and  C_4
REMARK    4  A    between atoms: C_9  and  C_11
REMARK    5  A    between atoms: C_11  and  C_12
REMARK    6  A    between atoms: C_12  and  C_13
REMARK    7  A    between atoms: N_18  and  C_19
REMARK    8  A    between atoms: C_19  and  C_20
REMARK    9  A    between atoms: C_26  and  O_27
REMARK   10  A    between atoms: O_27  and  C_28
REMARK                            x       y       z     vdW  Elec       q    Type
REMARK                         _______ _______ _______ _____ _____    ______ ____
ROOT
ATOM      1  C   UNL     1       2.107   7.665  19.211  0.00  0.00    +0.000 C 
ATOM      2  O   UNL     1       1.715   7.979  20.343  0.00  0.00    +0.000 OA
ATOM      3  N   UNL     1       2.859   6.537  18.966  0.00  0.00    +0.000 N 
ATOM      4  C   UNL     1       3.160   5.623  20.073  0.00  0.00    +0.000 C 
ATOM      5  C   UNL     1       2.809   4.170  19.687  0.00  0.00    +0.000 C 
ATOM      6  N   UNL     1       3.418   3.733  18.404  0.00  0.00    +0.000 NA
ATOM      7  C   UNL     1       2.954   4.664  17.353  0.00  0.00    +0.000 C 
ATOM      8  C   UNL     1       3.358   6.112  17.641  0.00  0.00    +0.000 C 
ENDROOT
BRANCH   1   9
ATOM      9  C   UNL     1       1.692   8.467  18.009  0.00  0.00    +0.000 C 
BRANCH   9  10
ATOM     10  C   UNL     1       1.797   9.972  18.199  0.00  0.00    +0.000 C 
BRANCH  10  16
ATOM     11  C   UNL     1      -3.993  11.475  18.290  0.00  0.00    +0.000 A 
ATOM     12  N   UNL     1      -4.063  10.565  17.340  0.00  0.00    +0.000 NA
ATOM     13  N   UNL     1      -2.814  10.064  17.006  0.00  0.00    +0.000 NA
ATOM     14  C   UNL     1      -1.861  10.580  17.751  0.00  0.00    +0.000 A 
ATOM     15  N   UNL     1      -0.528  10.262  17.616  0.00  0.00    +0.000 N 
ATOM     16  C   UNL     1       0.423  10.487  18.574  0.00  0.00    +0.000 C 
ATOM     17  O   UNL     1       0.226  11.015  19.674  0.00  0.00    +0.000 OA
ATOM     18  S   UNL     1      -2.401  11.775  18.842  0.00  0.00    +0.000 S 
ATOM     19  H   UNL     1      -0.310   9.697  16.802  0.00  0.00    +0.000 HD
BRANCH  11  20
ATOM     20  C   UNL     1      -5.146  12.232  18.869  0.00  0.00    +0.000 C 
BRANCH  20  22
ATOM     21  C   UNL     1      -7.366  12.731  17.782  0.00  0.00    +0.000 C 
ATOM     22  C   UNL     1      -6.484  11.658  18.405  0.00  0.00    +0.000 C 
ENDBRANCH  20  22
ENDBRANCH  11  20
ENDBRANCH  10  16
ENDBRANCH   9  10
ENDBRANCH   1   9
BRANCH   6  23
ATOM     23  C   UNL     1       4.889   3.668  18.547  0.00  0.00    +0.000 C 
BRANCH  23  24
ATOM     24  C   UNL     1       5.714   4.186  17.388  0.00  0.00    +0.000 A 
ATOM     25  C   UNL     1       5.484   3.552  16.136  0.00  0.00    +0.000 A 
ATOM     26  C   UNL     1       6.151   3.939  14.978  0.00  0.00    +0.000 A 
ATOM     27  F   UNL     1       5.927   3.287  13.836  0.00  0.00    +0.000 F 
ATOM     28  C   UNL     1       7.036   4.997  15.005  0.00  0.00    +0.000 A 
ATOM     29  C   UNL     1       7.237   5.668  16.212  0.00  0.00    +0.000 A 
ATOM     30  C   UNL     1       6.605   5.273  17.407  0.00  0.00    +0.000 A 
BRANCH  30  31
ATOM     31  O   UNL     1       6.913   6.138  18.420  0.00  0.00    +0.000 OA
ATOM     32  C   UNL     1       7.908   5.817  19.373  0.00  0.00    +0.000 C 
ENDBRANCH  30  31
ENDBRANCH  23  24
ENDBRANCH   6  23
TORSDOF 8
ENDMDL
MODEL 8
REMARK VINA RESULT:      -7.1      1.417      1.911
REMARK  Name = 
REMARK  10 active torsions:
REMARK  status: ('A' for Active; 'I' for Inactive)
REMARK    1  A    between atoms: C_1  and  C_2
REMARK    2  A    between atoms: C_2  and  C_3
REMARK    3  A    between atoms: C_3  and  C_4
REMARK    4  A    between atoms: C_9  and  C_11
REMARK    5  A    between atoms: C_11  and  C_12
REMARK    6  A    between atoms: C_12  and  C_13
REMARK    7  A    between atoms: N_18  and  C_19
REMARK    8  A    between atoms: C_19  and  C_20
REMARK    9  A    between atoms: C_26  and  O_27
REMARK   10  A    between atoms: O_27  and  C_28
REMARK                            x       y       z     vdW  Elec       q    Type
REMARK                         _______ _______ _______ _____ _____    ______ ____
ROOT
ATOM      1  C   UNL     1       1.835   8.109  19.968  0.00  0.00    +0.000 C 
ATOM      2  O   UNL     1       2.065   8.151  18.751  0.00  0.00    +0.000 OA
ATOM      3  N   UNL     1       1.140   9.097  20.631  0.00  0.00    +0.000 N 
ATOM      4  C   UNL     1       0.585  10.219  19.868  0.00  0.00    +0.000 C 
ATOM      5  C   UNL     1      -0.905  10.425  20.214  0.00  0.00    +0.000 C 
ATOM      6  N   UNL     1      -1.165  10.543  21.672  0.00  0.00    +0.000 NA
ATOM      7  C   UNL     1      -0.662   9.310  22.313  0.00  0.00    +0.000 C 
ATOM      8  C   UNL     1       0.837   9.104  22.078  0.00  0.00    +0.000 C 
ENDROOT
BRANCH   1   9
ATOM      9  C   UNL     1       2.229   6.907  20.779  0.00  0.00    +0.000 C 
BRANCH   9  10
ATOM     10  C   UNL     1       1.626   5.600  20.288  0.00  0.00    +0.000 C 
BRANCH  10  16
ATOM     11  C   UNL     1       6.166   4.384  16.588  0.00  0.00    +0.000 A 
ATOM     12  N   UNL     1       6.882   4.808  17.609  0.00  0.00    +0.000 NA
ATOM     13  N   UNL     1       6.085   5.269  18.646  0.00  0.00    +0.000 NA
ATOM     14  C   UNL     1       4.804   5.127  18.385  0.00  0.00    +0.000 A 
ATOM     15  N   UNL     1       3.801   5.518  19.242  0.00  0.00    +0.000 N 
ATOM     16  C   UNL     1       2.508   5.072  19.176  0.00  0.00    +0.000 C 
ATOM     17  O   UNL     1       2.061   4.281  18.338  0.00  0.00    +0.000 OA
ATOM     18  S   UNL     1       4.477   4.513  16.827  0.00  0.00    +0.000 S 
ATOM     19  H   UNL     1       4.116   6.053  20.044  0.00  0.00    +0.000 HD
BRANCH  11  20
ATOM     20  C   UNL     1       6.705   3.845  15.300  0.00  0.00    +0.000 C 
BRANCH  20  22
ATOM     21  C   UNL     1       6.121   3.631  12.857  0.00  0.00    +0.000 C 
ATOM     22  C   UNL     1       6.050   4.514  14.093  0.00  0.00    +0.000 C 
ENDBRANCH  20  22
ENDBRANCH  11  20
ENDBRANCH  10  16
ENDBRANCH   9  10
ENDBRANCH   1   9
BRANCH   6  23
ATOM     23  C   UNL     1      -0.553  11.787  22.188  0.00  0.00    +0.000 C 
BRANCH  23  24
ATOM     24  C   UNL     1      -1.451  12.718  22.975  0.00  0.00    +0.000 A 
ATOM     25  C   UNL     1      -2.664  12.148  23.450  0.00  0.00    +0.000 A 
ATOM     26  C   UNL     1      -3.576  12.876  24.209  0.00  0.00    +0.000 A 
ATOM     27  F   UNL     1      -4.717  12.306  24.599  0.00  0.00    +0.000 F 
ATOM     28  C   UNL     1      -3.300  14.180  24.565  0.00  0.00    +0.000 A 
ATOM     29  C   UNL     1      -2.092  14.743  24.154  0.00  0.00    +0.000 A 
ATOM     30  C   UNL     1      -1.169  14.042  23.353  0.00  0.00    +0.000 A 
BRANCH  30  31
ATOM     31  O   UNL     1      -0.041  14.789  23.157  0.00  0.00    +0.000 OA
ATOM     32  C   UNL     1      -0.066  16.196  23.306  0.00  0.00    +0.000 C 
ENDBRANCH  30  31
ENDBRANCH  23  24
ENDBRANCH   6  23
TORSDOF 8
ENDMDL
MODEL 9
REMARK VINA RESULT:      -7.0      4.655     10.526
REMARK  Name = 
REMARK  10 active torsions:
REMARK  status: ('A' for Active; 'I' for Inactive)
REMARK    1  A    between atoms: C_1  and  C_2
REMARK    2  A    between atoms: C_2  and  C_3
REMARK    3  A    between atoms: C_3  and  C_4
REMARK    4  A    between atoms: C_9  and  C_11
REMARK    5  A    between atoms: C_11  and  C_12
REMARK    6  A    between atoms: C_12  and  C_13
REMARK    7  A    between atoms: N_18  and  C_19
REMARK    8  A    between atoms: C_19  and  C_20
REMARK    9  A    between atoms: C_26  and  O_27
REMARK   10  A    between atoms: O_27  and  C_28
REMARK                            x       y       z     vdW  Elec       q    Type
REMARK                         _______ _______ _______ _____ _____    ______ ____
ROOT
ATOM      1  C   UNL     1       1.290   7.657  20.766  0.00  0.00    +0.000 C 
ATOM      2  O   UNL     1       0.598   7.472  21.777  0.00  0.00    +0.000 OA
ATOM      3  N   UNL     1       2.008   6.650  20.157  0.00  0.00    +0.000 N 
ATOM      4  C   UNL     1       1.907   5.283  20.677  0.00  0.00    +0.000 C 
ATOM      5  C   UNL     1       1.596   4.291  19.536  0.00  0.00    +0.000 C 
ATOM      6  N   UNL     1       2.530   4.397  18.386  0.00  0.00    +0.000 NA
ATOM      7  C   UNL     1       2.460   5.786  17.884  0.00  0.00    +0.000 C 
ATOM      8  C   UNL     1       2.850   6.809  18.953  0.00  0.00    +0.000 C 
ENDROOT
BRANCH   1   9
ATOM      9  C   UNL     1       1.303   8.996  20.085  0.00  0.00    +0.000 C 
BRANCH   9  10
ATOM     10  C   UNL     1      -0.010   9.757  20.183  0.00  0.00    +0.000 C 
BRANCH  10  16
ATOM     11  C   UNL     1       1.860  15.440  20.166  0.00  0.00    +0.000 A 
ATOM     12  N   UNL     1       2.745  14.967  21.020  0.00  0.00    +0.000 NA
ATOM     13  N   UNL     1       2.518  13.632  21.319  0.00  0.00    +0.000 NA
ATOM     14  C   UNL     1       1.504  13.141  20.641  0.00  0.00    +0.000 A 
ATOM     15  N   UNL     1       1.059  11.844  20.762  0.00  0.00    +0.000 N 
ATOM     16  C   UNL     1       0.270  11.206  19.843  0.00  0.00    +0.000 C 
ATOM     17  O   UNL     1      -0.165  11.704  18.798  0.00  0.00    +0.000 OA
ATOM     18  S   UNL     1       0.698  14.287  19.667  0.00  0.00    +0.000 S 
ATOM     19  H   UNL     1       1.487  11.320  21.518  0.00  0.00    +0.000 HD
BRANCH  11  20
ATOM     20  C   UNL     1       1.800  16.842  19.650  0.00  0.00    +0.000 C 
BRANCH  20  22
ATOM     21  C   UNL     1       2.995  16.739  17.432  0.00  0.00    +0.000 C 
ATOM     22  C   UNL     1       3.065  17.211  18.876  0.00  0.00    +0.000 C 
ENDBRANCH  20  22
ENDBRANCH  11  20
ENDBRANCH  10  16
ENDBRANCH   9  10
ENDBRANCH   1   9
BRANCH   6  23
ATOM     23  C   UNL     1       3.884   3.973  18.803  0.00  0.00    +0.000 C 
BRANCH  23  24
ATOM     24  C   UNL     1       5.002   4.160  17.799  0.00  0.00    +0.000 A 
ATOM     25  C   UNL     1       4.626   4.049  16.431  0.00  0.00    +0.000 A 
ATOM     26  C   UNL     1       5.540   4.222  15.397  0.00  0.00    +0.000 A 
ATOM     27  F   UNL     1       5.145   4.072  14.132  0.00  0.00    +0.000 F 
ATOM     28  C   UNL     1       6.850   4.557  15.675  0.00  0.00    +0.000 A 
ATOM     29  C   UNL     1       7.229   4.722  17.008  0.00  0.00    +0.000 A 
ATOM     30  C   UNL     1       6.333   4.514  18.075  0.00  0.00    +0.000 A 
BRANCH  30  31
ATOM     31  O   UNL     1       6.932   4.814  19.267  0.00  0.00    +0.000 OA
ATOM     32  C   UNL     1       7.889   5.853  19.359  0.00  0.00    +0.000 C 
ENDBRANCH  30  31
ENDBRANCH  23  24
ENDBRANCH   6  23
TORSDOF 8
ENDMDL
