MODEL 1
REMARK VINA RESULT:      -7.6      0.000      0.000
REMARK  Name = 
REMARK  3 active torsions:
REMARK  status: ('A' for Active; 'I' for Inactive)
REMARK    1  A    between atoms: C_1  and  N_2
REMARK    2  A    between atoms: C_8  and  N_9
REMARK    3  A    between atoms: C_10  and  C_12
REMARK                            x       y       z     vdW  Elec       q    Type
REMARK                         _______ _______ _______ _____ _____    ______ ____
ROOT
ATOM      1  N   UNL     1       2.314   6.911  18.924  0.00  0.00    +0.000 N 
ATOM      2  C   UNL     1       2.172   8.140  18.328  0.00  0.00    +0.000 C 
ATOM      3  O   UNL     1       2.791   8.489  17.329  0.00  0.00    +0.000 OA
ATOM      4  H   UNL     1       1.631   6.705  19.656  0.00  0.00    +0.000 HD
ENDROOT
BRANCH   2   5
ATOM      5  C   UNL     1       1.196   9.065  18.948  0.00  0.00    +0.000 A 
ATOM      6  C   UNL     1       0.392   9.927  18.157  0.00  0.00    +0.000 A 
ATOM      7  C   UNL     1      -0.573  10.831  18.699  0.00  0.00    +0.000 A 
ATOM      8  C   UNL     1      -0.831  10.968  20.075  0.00  0.00    +0.000 A 
ATOM      9  C   UNL     1      -0.026  10.117  20.821  0.00  0.00    +0.000 A 
ATOM     10  C   UNL     1      -0.045  10.010  22.182  0.00  0.00    +0.000 A 
ATOM     11  N   UNL     1       0.883   9.058  22.476  0.00  0.00    +0.000 N 
ATOM     12  N   UNL     1       1.506   8.539  21.396  0.00  0.00    +0.000 NA
ATOM     13  C   UNL     1       0.959   9.179  20.335  0.00  0.00    +0.000 A 
ATOM     14  H   UNL     1       1.149   8.714  23.394  0.00  0.00    +0.000 HD
ENDBRANCH   2   5
BRANCH   1  22
ATOM     15  C   UNL     1       2.955   1.811  18.778  0.00  0.00    +0.000 C 
ATOM     16  N   UNL     1       2.543   3.035  19.386  0.00  0.00    +0.000 NA
ATOM     17  C   UNL     1       1.473   3.819  18.822  0.00  0.00    +0.000 C 
ATOM     18  C   UNL     1       1.008   4.407  20.164  0.00  0.00    +0.000 C 
ATOM     19  C   UNL     1       2.281   4.530  21.032  0.00  0.00    +0.000 C 
ATOM     20  C   UNL     1       3.385   3.933  20.153  0.00  0.00    +0.000 C 
ATOM     21  C   UNL     1       4.035   5.071  19.331  0.00  0.00    +0.000 C 
ATOM     22  C   UNL     1       3.063   5.786  18.360  0.00  0.00    +0.000 C 
ATOM     23  C   UNL     1       2.071   4.776  17.773  0.00  0.00    +0.000 C 
ENDBRANCH   1  22
TORSDOF 2
ENDMDL
MODEL 2
REMARK VINA RESULT:      -7.4      1.445      2.014
REMARK  Name = 
REMARK  3 active torsions:
REMARK  status: ('A' for Active; 'I' for Inactive)
REMARK    1  A    between atoms: C_1  and  N_2
REMARK    2  A    between atoms: C_8  and  N_9
REMARK    3  A    between atoms: C_10  and  C_12
REMARK                            x       y       z     vdW  Elec       q    Type
REMARK                         _______ _______ _______ _____ _____    ______ ____
ROOT
ATOM      1  N   UNL     1       2.526   6.693  19.515  0.00  0.00    +0.000 N 
ATOM      2  C   UNL     1       2.188   7.944  19.059  0.00  0.00    +0.000 C 
ATOM      3  O   UNL     1       2.569   8.405  17.988  0.00  0.00    +0.000 OA
ATOM      4  H   UNL     1       2.020   6.386  20.348  0.00  0.00    +0.000 HD
ENDROOT
BRANCH   2   5
ATOM      5  C   UNL     1       1.301   8.747  19.930  0.00  0.00    +0.000 A 
ATOM      6  C   UNL     1       1.207   8.490  21.323  0.00  0.00    +0.000 A 
ATOM      7  C   UNL     1       0.377   9.239  22.214  0.00  0.00    +0.000 A 
ATOM      8  C   UNL     1      -0.437  10.312  21.809  0.00  0.00    +0.000 A 
ATOM      9  C   UNL     1      -0.326  10.535  20.442  0.00  0.00    +0.000 A 
ATOM     10  C   UNL     1      -0.985  11.510  19.749  0.00  0.00    +0.000 A 
ATOM     11  N   UNL     1      -0.568  11.371  18.460  0.00  0.00    +0.000 N 
ATOM     12  N   UNL     1       0.316  10.370  18.268  0.00  0.00    +0.000 NA
ATOM     13  C   UNL     1       0.496   9.820  19.493  0.00  0.00    +0.000 A 
ATOM     14  H   UNL     1      -0.851  11.923  17.656  0.00  0.00    +0.000 HD
ENDBRANCH   2   5
BRANCH   1  22
ATOM     15  C   UNL     1       2.856   1.713  18.275  0.00  0.00    +0.000 C 
ATOM     16  N   UNL     1       2.507   2.802  19.131  0.00  0.00    +0.000 NA
ATOM     17  C   UNL     1       1.499   3.756  18.743  0.00  0.00    +0.000 C 
ATOM     18  C   UNL     1       1.044   4.071  20.177  0.00  0.00    +0.000 C 
ATOM     19  C   UNL     1       2.304   3.922  21.059  0.00  0.00    +0.000 C 
ATOM     20  C   UNL     1       3.387   3.458  20.080  0.00  0.00    +0.000 C 
ATOM     21  C   UNL     1       4.123   4.702  19.526  0.00  0.00    +0.000 C 
ATOM     22  C   UNL     1       3.216   5.670  18.727  0.00  0.00    +0.000 C 
ATOM     23  C   UNL     1       2.176   4.876  17.929  0.00  0.00    +0.000 C 
ENDBRANCH   1  22
TORSDOF 2
ENDMDL
MODEL 3
REMARK VINA RESULT:      -7.4      3.607      5.965
REMARK  Name = 
REMARK  3 active torsions:
REMARK  status: ('A' for Active; 'I' for Inactive)
REMARK    1  A    between atoms: C_1  and  N_2
REMARK    2  A    between atoms: C_8  and  N_9
REMARK    3  A    between atoms: C_10  and  C_12
REMARK                            x       y       z     vdW  Elec       q    Type
REMARK                         _______ _______ _______ _____ _____    ______ ____
ROOT
ATOM      1  N   UNL     1       4.692   6.007  17.596  0.00  0.00    +0.000 N 
ATOM      2  C   UNL     1       3.446   6.414  18.006  0.00  0.00    +0.000 C 
ATOM      3  O   UNL     1       2.954   7.499  17.716  0.00  0.00    +0.000 OA
ATOM      4  H   UNL     1       4.911   5.027  17.787  0.00  0.00    +0.000 HD
ENDROOT
BRANCH   2   5
ATOM      5  C   UNL     1       2.678   5.457  18.833  0.00  0.00    +0.000 A 
ATOM      6  C   UNL     1       2.096   5.850  20.067  0.00  0.00    +0.000 A 
ATOM      7  C   UNL     1       1.335   4.973  20.901  0.00  0.00    +0.000 A 
ATOM      8  C   UNL     1       1.081   3.625  20.592  0.00  0.00    +0.000 A 
ATOM      9  C   UNL     1       1.667   3.270  19.384  0.00  0.00    +0.000 A 
ATOM     10  C   UNL     1       1.595   2.034  18.809  0.00  0.00    +0.000 A 
ATOM     11  N   UNL     1       2.290   2.144  17.643  0.00  0.00    +0.000 N 
ATOM     12  N   UNL     1       2.811   3.369  17.422  0.00  0.00    +0.000 NA
ATOM     13  C   UNL     1       2.439   4.107  18.495  0.00  0.00    +0.000 A 
ATOM     14  H   UNL     1       2.454   1.421  16.949  0.00  0.00    +0.000 HD
ENDBRANCH   2   5
BRANCH   1  22
ATOM     15  C   UNL     1       7.858   5.593  13.564  0.00  0.00    +0.000 C 
ATOM     16  N   UNL     1       7.218   5.114  14.747  0.00  0.00    +0.000 NA
ATOM     17  C   UNL     1       5.791   4.915  14.789  0.00  0.00    +0.000 C 
ATOM     18  C   UNL     1       5.839   3.768  15.811  0.00  0.00    +0.000 C 
ATOM     19  C   UNL     1       7.053   4.066  16.718  0.00  0.00    +0.000 C 
ATOM     20  C   UNL     1       7.669   5.330  16.109  0.00  0.00    +0.000 C 
ATOM     21  C   UNL     1       7.053   6.567  16.806  0.00  0.00    +0.000 C 
ATOM     22  C   UNL     1       5.523   6.707  16.613  0.00  0.00    +0.000 C 
ATOM     23  C   UNL     1       5.126   6.240  15.208  0.00  0.00    +0.000 C 
ENDBRANCH   1  22
TORSDOF 2
ENDMDL
MODEL 4
REMARK VINA RESULT:      -7.3      4.689      7.624
REMARK  Name = 
REMARK  3 active torsions:
REMARK  status: ('A' for Active; 'I' for Inactive)
REMARK    1  A    between atoms: C_1  and  N_2
REMARK    2  A    between atoms: C_8  and  N_9
REMARK    3  A    between atoms: C_10  and  C_12
REMARK                            x       y       z     vdW  Elec       q    Type
REMARK                         _______ _______ _______ _____ _____    ______ ____
ROOT
ATOM      1  N   UNL     1       4.880   4.741  17.261  0.00  0.00    +0.000 N 
ATOM      2  C   UNL     1       6.101   4.477  16.691  0.00  0.00    +0.000 C 
ATOM      3  O   UNL     1       7.143   4.378  17.330  0.00  0.00    +0.000 OA
ATOM      4  H   UNL     1       4.080   4.649  16.630  0.00  0.00    +0.000 HD
ENDROOT
BRANCH   2   5
ATOM      5  C   UNL     1       6.119   4.294  15.223  0.00  0.00    +0.000 A 
ATOM      6  C   UNL     1       5.130   3.518  14.564  0.00  0.00    +0.000 A 
ATOM      7  C   UNL     1       5.091   3.317  13.149  0.00  0.00    +0.000 A 
ATOM      8  C   UNL     1       6.028   3.864  12.255  0.00  0.00    +0.000 A 
ATOM      9  C   UNL     1       6.984   4.613  12.930  0.00  0.00    +0.000 A 
ATOM     10  C   UNL     1       8.022   5.277  12.341  0.00  0.00    +0.000 A 
ATOM     11  N   UNL     1       8.685   5.879  13.366  0.00  0.00    +0.000 N 
ATOM     12  N   UNL     1       8.149   5.650  14.584  0.00  0.00    +0.000 NA
ATOM     13  C   UNL     1       7.075   4.859  14.351  0.00  0.00    +0.000 A 
ATOM     14  H   UNL     1       9.517   6.459  13.310  0.00  0.00    +0.000 HD
ENDBRANCH   2   5
BRANCH   1  22
ATOM     15  C   UNL     1       1.918   3.016  21.095  0.00  0.00    +0.000 C 
ATOM     16  N   UNL     1       2.188   3.350  19.733  0.00  0.00    +0.000 NA
ATOM     17  C   UNL     1       3.182   2.631  18.977  0.00  0.00    +0.000 C 
ATOM     18  C   UNL     1       2.491   2.822  17.618  0.00  0.00    +0.000 C 
ATOM     19  C   UNL     1       1.778   4.191  17.699  0.00  0.00    +0.000 C 
ATOM     20  C   UNL     1       2.047   4.663  19.132  0.00  0.00    +0.000 C 
ATOM     21  C   UNL     1       3.336   5.519  19.139  0.00  0.00    +0.000 C 
ATOM     22  C   UNL     1       4.608   4.752  18.700  0.00  0.00    +0.000 C 
ATOM     23  C   UNL     1       4.549   3.305  19.203  0.00  0.00    +0.000 C 
ENDBRANCH   1  22
TORSDOF 2
ENDMDL
MODEL 5
REMARK VINA RESULT:      -7.1      3.845      6.096
REMARK  Name = 
REMARK  3 active torsions:
REMARK  status: ('A' for Active; 'I' for Inactive)
REMARK    1  A    between atoms: C_1  and  N_2
REMARK    2  A    between atoms: C_8  and  N_9
REMARK    3  A    between atoms: C_10  and  C_12
REMARK                            x       y       z     vdW  Elec       q    Type
REMARK                         _______ _______ _______ _____ _____    ______ ____
ROOT
ATOM      1  N   UNL     1       4.829   5.890  17.901  0.00  0.00    +0.000 N 
ATOM      2  C   UNL     1       3.505   6.035  18.237  0.00  0.00    +0.000 C 
ATOM      3  O   UNL     1       2.786   6.929  17.805  0.00  0.00    +0.000 OA
ATOM      4  H   UNL     1       5.262   5.021  18.217  0.00  0.00    +0.000 HD
ENDROOT
BRANCH   2   5
ATOM      5  C   UNL     1       2.947   5.028  19.167  0.00  0.00    +0.000 A 
ATOM      6  C   UNL     1       1.621   5.138  19.663  0.00  0.00    +0.000 A 
ATOM      7  C   UNL     1       1.026   4.191  20.553  0.00  0.00    +0.000 A 
ATOM      8  C   UNL     1       1.687   3.047  21.035  0.00  0.00    +0.000 A 
ATOM      9  C   UNL     1       2.981   2.970  20.536  0.00  0.00    +0.000 A 
ATOM     10  C   UNL     1       3.872   1.973  20.812  0.00  0.00    +0.000 A 
ATOM     11  N   UNL     1       4.992   2.293  20.106  0.00  0.00    +0.000 N 
ATOM     12  N   UNL     1       4.889   3.432  19.389  0.00  0.00    +0.000 NA
ATOM     13  C   UNL     1       3.637   3.888  19.632  0.00  0.00    +0.000 A 
ATOM     14  H   UNL     1       5.868   1.781  20.069  0.00  0.00    +0.000 HD
ENDBRANCH   2   5
BRANCH   1  22
ATOM     15  C   UNL     1       7.709   5.697  13.645  0.00  0.00    +0.000 C 
ATOM     16  N   UNL     1       7.206   5.182  14.878  0.00  0.00    +0.000 NA
ATOM     17  C   UNL     1       5.810   4.855  15.030  0.00  0.00    +0.000 C 
ATOM     18  C   UNL     1       6.040   3.735  16.056  0.00  0.00    +0.000 C 
ATOM     19  C   UNL     1       7.286   4.157  16.866  0.00  0.00    +0.000 C 
ATOM     20  C   UNL     1       7.735   5.461  16.199  0.00  0.00    +0.000 C 
ATOM     21  C   UNL     1       7.063   6.649  16.928  0.00  0.00    +0.000 C 
ATOM     22  C   UNL     1       5.517   6.646  16.851  0.00  0.00    +0.000 C 
ATOM     23  C   UNL     1       5.060   6.121  15.485  0.00  0.00    +0.000 C 
ENDBRANCH   1  22
TORSDOF 2
ENDMDL
MODEL 6
REMARK VINA RESULT:      -7.1      2.545      3.899
REMARK  Name = 
REMARK  3 active torsions:
REMARK  status: ('A' for Active; 'I' for Inactive)
REMARK    1  A    between atoms: C_1  and  N_2
REMARK    2  A    between atoms: C_8  and  N_9
REMARK    3  A    between atoms: C_10  and  C_12
REMARK                            x       y       z     vdW  Elec       q    Type
REMARK                         _______ _______ _______ _____ _____    ______ ____
ROOT
ATOM      1  N   UNL     1       3.163   6.084  18.925  0.00  0.00    +0.000 N 
ATOM      2  C   UNL     1       2.308   6.199  19.993  0.00  0.00    +0.000 C 
ATOM      3  O   UNL     1       2.046   5.278  20.758  0.00  0.00    +0.000 OA
ATOM      4  H   UNL     1       3.401   6.966  18.466  0.00  0.00    +0.000 HD
ENDROOT
BRANCH   2   5
ATOM      5  C   UNL     1       1.698   7.530  20.211  0.00  0.00    +0.000 A 
ATOM      6  C   UNL     1       1.066   7.859  21.438  0.00  0.00    +0.000 A 
ATOM      7  C   UNL     1       0.470   9.131  21.707  0.00  0.00    +0.000 A 
ATOM      8  C   UNL     1       0.444  10.193  20.787  0.00  0.00    +0.000 A 
ATOM      9  C   UNL     1       1.065   9.839  19.596  0.00  0.00    +0.000 A 
ATOM     10  C   UNL     1       1.208  10.655  18.511  0.00  0.00    +0.000 A 
ATOM     11  N   UNL     1       1.882   9.908  17.593  0.00  0.00    +0.000 N 
ATOM     12  N   UNL     1       2.185   8.660  18.007  0.00  0.00    +0.000 NA
ATOM     13  C   UNL     1       1.689   8.578  19.265  0.00  0.00    +0.000 A 
ATOM     14  H   UNL     1       2.164  10.185  16.657  0.00  0.00    +0.000 HD
ENDBRANCH   2   5
BRANCH   1  22
ATOM     15  C   UNL     1       7.502   4.355  16.773  0.00  0.00    +0.000 C 
ATOM     16  N   UNL     1       6.417   5.272  16.913  0.00  0.00    +0.000 NA
ATOM     17  C   UNL     1       6.263   6.061  18.110  0.00  0.00    +0.000 C 
ATOM     18  C   UNL     1       5.584   7.248  17.409  0.00  0.00    +0.000 C 
ATOM     19  C   UNL     1       4.777   6.639  16.241  0.00  0.00    +0.000 C 
ATOM     20  C   UNL     1       5.106   5.144  16.304  0.00  0.00    +0.000 C 
ATOM     21  C   UNL     1       4.048   4.439  17.186  0.00  0.00    +0.000 C 
ATOM     22  C   UNL     1       4.021   4.928  18.655  0.00  0.00    +0.000 C 
ATOM     23  C   UNL     1       5.444   5.247  19.129  0.00  0.00    +0.000 C 
ENDBRANCH   1  22
TORSDOF 2
ENDMDL
MODEL 7
REMARK VINA RESULT:      -6.9      4.291      6.394
REMARK  Name = 
REMARK  3 active torsions:
REMARK  status: ('A' for Active; 'I' for Inactive)
REMARK    1  A    between atoms: C_1  and  N_2
REMARK    2  A    between atoms: C_8  and  N_9
REMARK    3  A    between atoms: C_10  and  C_12
REMARK                            x       y       z     vdW  Elec       q    Type
REMARK                         _______ _______ _______ _____ _____    ______ ____
ROOT
ATOM      1  N   UNL     1       4.208   4.615  17.209  0.00  0.00    +0.000 N 
ATOM      2  C   UNL     1       3.194   5.109  17.993  0.00  0.00    +0.000 C 
ATOM      3  O   UNL     1       2.592   6.149  17.752  0.00  0.00    +0.000 OA
ATOM      4  H   UNL     1       4.516   3.670  17.447  0.00  0.00    +0.000 HD
ENDROOT
BRANCH   2   5
ATOM      5  C   UNL     1       2.826   4.306  19.180  0.00  0.00    +0.000 A 
ATOM      6  C   UNL     1       1.578   4.483  19.833  0.00  0.00    +0.000 A 
ATOM      7  C   UNL     1       1.165   3.729  20.975  0.00  0.00    +0.000 A 
ATOM      8  C   UNL     1       1.950   2.730  21.578  0.00  0.00    +0.000 A 
ATOM      9  C   UNL     1       3.165   2.584  20.921  0.00  0.00    +0.000 A 
ATOM     10  C   UNL     1       4.141   1.692  21.262  0.00  0.00    +0.000 A 
ATOM     11  N   UNL     1       5.132   1.885  20.349  0.00  0.00    +0.000 N 
ATOM     12  N   UNL     1       4.868   2.845  19.438  0.00  0.00    +0.000 NA
ATOM     13  C   UNL     1       3.637   3.308  19.763  0.00  0.00    +0.000 A 
ATOM     14  H   UNL     1       6.022   1.400  20.290  0.00  0.00    +0.000 HD
ENDBRANCH   2   5
BRANCH   1  22
ATOM     15  C   UNL     1       8.029   5.682  13.937  0.00  0.00    +0.000 C 
ATOM     16  N   UNL     1       7.474   5.465  15.235  0.00  0.00    +0.000 NA
ATOM     17  C   UNL     1       6.952   4.175  15.611  0.00  0.00    +0.000 C 
ATOM     18  C   UNL     1       7.277   4.322  17.106  0.00  0.00    +0.000 C 
ATOM     19  C   UNL     1       7.140   5.829  17.418  0.00  0.00    +0.000 C 
ATOM     20  C   UNL     1       6.816   6.460  16.060  0.00  0.00    +0.000 C 
ATOM     21  C   UNL     1       5.278   6.522  15.895  0.00  0.00    +0.000 C 
ATOM     22  C   UNL     1       4.585   5.138  15.894  0.00  0.00    +0.000 C 
ATOM     23  C   UNL     1       5.472   4.107  15.188  0.00  0.00    +0.000 C 
ENDBRANCH   1  22
TORSDOF 2
ENDMDL
MODEL 8
REMARK VINA RESULT:      -6.8      4.006      6.208
REMARK  Name = 
REMARK  3 active torsions:
REMARK  status: ('A' for Active; 'I' for Inactive)
REMARK    1  A    between atoms: C_1  and  N_2
REMARK    2  A    between atoms: C_8  and  N_9
REMARK    3  A    between atoms: C_10  and  C_12
REMARK                            x       y       z     vdW  Elec       q    Type
REMARK                         _______ _______ _______ _____ _____    ______ ____
ROOT
ATOM      1  N   UNL     1       4.635   5.714  17.315  0.00  0.00    +0.000 N 
ATOM      2  C   UNL     1       4.654   5.357  18.642  0.00  0.00    +0.000 C 
ATOM      3  O   UNL     1       5.647   5.444  19.356  0.00  0.00    +0.000 OA
ATOM      4  H   UNL     1       3.708   5.728  16.886  0.00  0.00    +0.000 HD
ENDROOT
BRANCH   2   5
ATOM      5  C   UNL     1       3.382   4.857  19.209  0.00  0.00    +0.000 A 
ATOM      6  C   UNL     1       2.683   5.585  20.207  0.00  0.00    +0.000 A 
ATOM      7  C   UNL     1       1.447   5.156  20.782  0.00  0.00    +0.000 A 
ATOM      8  C   UNL     1       0.788   3.966  20.424  0.00  0.00    +0.000 A 
ATOM      9  C   UNL     1       1.498   3.275  19.451  0.00  0.00    +0.000 A 
ATOM     10  C   UNL     1       1.116   2.090  18.892  0.00  0.00    +0.000 A 
ATOM     11  N   UNL     1       2.090   1.794  17.988  0.00  0.00    +0.000 N 
ATOM     12  N   UNL     1       3.082   2.707  17.922  0.00  0.00    +0.000 NA
ATOM     13  C   UNL     1       2.745   3.656  18.827  0.00  0.00    +0.000 A 
ATOM     14  H   UNL     1       2.147   0.980  17.382  0.00  0.00    +0.000 HD
ENDBRANCH   2   5
BRANCH   1  22
ATOM     15  C   UNL     1       7.931   5.703  13.368  0.00  0.00    +0.000 C 
ATOM     16  N   UNL     1       7.076   5.080  14.327  0.00  0.00    +0.000 NA
ATOM     17  C   UNL     1       5.652   5.301  14.303  0.00  0.00    +0.000 C 
ATOM     18  C   UNL     1       5.287   3.926  14.887  0.00  0.00    +0.000 C 
ATOM     19  C   UNL     1       6.446   3.555  15.840  0.00  0.00    +0.000 C 
ATOM     20  C   UNL     1       7.438   4.712  15.682  0.00  0.00    +0.000 C 
ATOM     21  C   UNL     1       7.123   5.786  16.751  0.00  0.00    +0.000 C 
ATOM     22  C   UNL     1       5.715   6.416  16.618  0.00  0.00    +0.000 C 
ATOM     23  C   UNL     1       5.339   6.556  15.139  0.00  0.00    +0.000 C 
ENDBRANCH   1  22
TORSDOF 2
ENDMDL
MODEL 9
REMARK VINA RESULT:      -6.4      1.565      2.248
REMARK  Name = 
REMARK  3 active torsions:
REMARK  status: ('A' for Active; 'I' for Inactive)
REMARK    1  A    between atoms: C_1  and  N_2
REMARK    2  A    between atoms: C_8  and  N_9
REMARK    3  A    between atoms: C_10  and  C_12
REMARK                            x       y       z     vdW  Elec       q    Type
REMARK                         _______ _______ _______ _____ _____    ______ ____
ROOT
ATOM      1  N   UNL     1       3.169   5.987  19.450  0.00  0.00    +0.000 N 
ATOM      2  C   UNL     1       2.120   6.597  20.094  0.00  0.00    +0.000 C 
ATOM      3  O   UNL     1       1.474   6.070  20.993  0.00  0.00    +0.000 OA
ATOM      4  H   UNL     1       3.706   6.596  18.829  0.00  0.00    +0.000 HD
ENDROOT
BRANCH   2   5
ATOM      5  C   UNL     1       1.788   7.972  19.659  0.00  0.00    +0.000 A 
ATOM      6  C   UNL     1       2.049   8.410  18.334  0.00  0.00    +0.000 A 
ATOM      7  C   UNL     1       1.740   9.721  17.857  0.00  0.00    +0.000 A 
ATOM      8  C   UNL     1       1.144  10.721  18.646  0.00  0.00    +0.000 A 
ATOM      9  C   UNL     1       0.905  10.264  19.936  0.00  0.00    +0.000 A 
ATOM     10  C   UNL     1       0.331  10.996  20.935  0.00  0.00    +0.000 A 
ATOM     11  N   UNL     1       0.281  10.155  22.005  0.00  0.00    +0.000 N 
ATOM     12  N   UNL     1       0.786   8.926  21.770  0.00  0.00    +0.000 NA
ATOM     13  C   UNL     1       1.188   8.954  20.476  0.00  0.00    +0.000 A 
ATOM     14  H   UNL     1      -0.081  10.355  22.933  0.00  0.00    +0.000 HD
ENDBRANCH   2   5
BRANCH   1  22
ATOM     15  C   UNL     1       3.902   1.011  18.381  0.00  0.00    +0.000 C 
ATOM     16  N   UNL     1       3.190   2.246  18.311  0.00  0.00    +0.000 NA
ATOM     17  C   UNL     1       3.764   3.396  17.658  0.00  0.00    +0.000 C 
ATOM     18  C   UNL     1       2.418   3.994  17.219  0.00  0.00    +0.000 C 
ATOM     19  C   UNL     1       1.405   3.597  18.316  0.00  0.00    +0.000 C 
ATOM     20  C   UNL     1       2.224   2.731  19.279  0.00  0.00    +0.000 C 
ATOM     21  C   UNL     1       2.814   3.639  20.384  0.00  0.00    +0.000 C 
ATOM     22  C   UNL     1       3.787   4.723  19.860  0.00  0.00    +0.000 C 
ATOM     23  C   UNL     1       4.607   4.172  18.688  0.00  0.00    +0.000 C 
ENDBRANCH   1  22
TORSDOF 2
ENDMDL
