MODEL 1
REMARK VINA RESULT:      -7.4      0.000      0.000
REMARK  Name = 
REMARK  9 active torsions:
REMARK  status: ('A' for Active; 'I' for Inactive)
REMARK    1  A    between atoms: C_2  and  C_3
REMARK    2  A    between atoms: C_3  and  C_4
REMARK    3  A    between atoms: N_10  and  C_11
REMARK    4  A    between atoms: C_11  and  C_12
REMARK    5  A    between atoms: C_12  and  C_13
REMARK    6  A    between atoms: C_16  and  N_17
REMARK    7  A    between atoms: N_20  and  C_21
REMARK    8  A    between atoms: C_28  and  C_29
REMARK    9  A    between atoms: C_29  and  O_30
REMARK                            x       y       z     vdW  Elec       q    Type
REMARK                         _______ _______ _______ _____ _____    ______ ____
ROOT
ATOM      1  C   UNL     1       3.632   3.300  19.913  0.00  0.00    +0.000 C 
ATOM      2  C   UNL     1       2.865   3.467  21.231  0.00  0.00    +0.000 C 
ATOM      3  C   UNL     1       1.450   4.001  21.020  0.00  0.00    +0.000 C 
ATOM      4  C   UNL     1       1.449   5.266  20.151  0.00  0.00    +0.000 C 
ATOM      5  C   UNL     1       2.291   5.040  18.876  0.00  0.00    +0.000 C 
ATOM      6  O   UNL     1       3.607   4.529  19.170  0.00  0.00    +0.000 OA
ENDROOT
BRANCH   4   7
ATOM      7  N   UNL     1       1.869   6.435  20.934  0.00  0.00    +0.000 N 
ATOM      8  C   UNL     1       0.952   7.434  21.182  0.00  0.00    +0.000 C 
ATOM      9  O   UNL     1      -0.188   7.406  20.733  0.00  0.00    +0.000 OA
ATOM     10  N   UNL     1       1.498   8.483  21.900  0.00  0.00    +0.000 N 
ATOM     11  H   UNL     1       2.596   6.307  21.628  0.00  0.00    +0.000 HD
ATOM     12  H   UNL     1       2.468   8.645  21.668  0.00  0.00    +0.000 HD
BRANCH  10  13
ATOM     13  C   UNL     1       0.713   9.638  22.125  0.00  0.00    +0.000 A 
ATOM     14  C   UNL     1      -0.239   9.670  23.151  0.00  0.00    +0.000 A 
ATOM     15  C   UNL     1      -1.081  10.775  23.293  0.00  0.00    +0.000 A 
ATOM     16  C   UNL     1      -0.978  11.837  22.398  0.00  0.00    +0.000 A 
ATOM     17 CL   UNL     1      -2.063  13.167  22.522  0.00  0.00    +0.000 Cl
ATOM     18  C   UNL     1      -0.014  11.823  21.390  0.00  0.00    +0.000 A 
ATOM     19  C   UNL     1       0.854  10.733  21.270  0.00  0.00    +0.000 A 
ENDBRANCH  10  13
ENDBRANCH   4   7
BRANCH   1  20
ATOM     20  C   UNL     1       3.197   2.054  19.110  0.00  0.00    +0.000 C 
BRANCH  20  21
ATOM     21  C   UNL     1       3.557   2.157  17.624  0.00  0.00    +0.000 C 
BRANCH  21  24
ATOM     22  O   UNL     1       4.069   4.313  15.841  0.00  0.00    +0.000 OA
ATOM     23  C   UNL     1       5.022   3.766  16.407  0.00  0.00    +0.000 C 
ATOM     24  N   UNL     1       4.850   2.776  17.359  0.00  0.00    +0.000 N 
ATOM     25  H   UNL     1       5.681   2.244  17.609  0.00  0.00    +0.000 HD
BRANCH  23  26
ATOM     26  C   UNL     1       6.458   4.150  16.102  0.00  0.00    +0.000 C 
BRANCH  26  27
ATOM     27  C   UNL     1       6.984   5.244  16.994  0.00  0.00    +0.000 A 
ATOM     28  C   UNL     1       7.471   4.968  18.272  0.00  0.00    +0.000 A 
ATOM     29  C   UNL     1       8.007   6.005  19.036  0.00  0.00    +0.000 A 
ATOM     30  C   UNL     1       8.054   7.287  18.505  0.00  0.00    +0.000 A 
ATOM     31  C   UNL     1       7.556   7.482  17.228  0.00  0.00    +0.000 A 
ATOM     32  N   UNL     1       7.022   6.496  16.469  0.00  0.00    +0.000 NA
ENDBRANCH  26  27
ENDBRANCH  23  26
ENDBRANCH  21  24
ENDBRANCH  20  21
ENDBRANCH   1  20
BRANCH   5  33
ATOM     33  C   UNL     1       2.450   6.328  18.049  0.00  0.00    +0.000 C 
BRANCH  33  34
ATOM     34  O   UNL     1       3.510   7.127  18.579  0.00  0.00    +0.000 OA
ATOM     35  H   UNL     1       3.607   7.872  17.956  0.00  0.00    +0.000 HD
ENDBRANCH  33  34
ENDBRANCH   5  33
TORSDOF 9
ENDMDL
MODEL 2
REMARK VINA RESULT:      -7.1      1.473      2.278
REMARK  Name = 
REMARK  9 active torsions:
REMARK  status: ('A' for Active; 'I' for Inactive)
REMARK    1  A    between atoms: C_2  and  C_3
REMARK    2  A    between atoms: C_3  and  C_4
REMARK    3  A    between atoms: N_10  and  C_11
REMARK    4  A    between atoms: C_11  and  C_12
REMARK    5  A    between atoms: C_12  and  C_13
REMARK    6  A    between atoms: C_16  and  N_17
REMARK    7  A    between atoms: N_20  and  C_21
REMARK    8  A    between atoms: C_28  and  C_29
REMARK    9  A    between atoms: C_29  and  O_30
REMARK                            x       y       z     vdW  Elec       q    Type
REMARK                         _______ _______ _______ _____ _____    ______ ____
ROOT
ATOM      1  C   UNL     1       2.092   3.532  18.163  0.00  0.00    +0.000 C 
ATOM      2  C   UNL     1       1.926   5.024  17.846  0.00  0.00    +0.000 C 
ATOM      3  C   UNL     1       2.758   5.913  18.766  0.00  0.00    +0.000 C 
ATOM      4  C   UNL     1       2.520   5.575  20.244  0.00  0.00    +0.000 C 
ATOM      5  C   UNL     1       2.642   4.053  20.471  0.00  0.00    +0.000 C 
ATOM      6  O   UNL     1       1.829   3.293  19.555  0.00  0.00    +0.000 OA
ENDROOT
BRANCH   4   7
ATOM      7  N   UNL     1       1.245   6.139  20.707  0.00  0.00    +0.000 N 
ATOM      8  C   UNL     1       1.126   7.508  20.821  0.00  0.00    +0.000 C 
ATOM      9  O   UNL     1       2.059   8.270  20.597  0.00  0.00    +0.000 OA
ATOM     10  N   UNL     1      -0.116   7.889  21.299  0.00  0.00    +0.000 N 
ATOM     11  H   UNL     1       0.395   5.627  20.500  0.00  0.00    +0.000 HD
ATOM     12  H   UNL     1      -0.493   7.226  21.962  0.00  0.00    +0.000 HD
BRANCH  10  13
ATOM     13  C   UNL     1      -0.346   9.254  21.587  0.00  0.00    +0.000 A 
ATOM     14  C   UNL     1      -0.591   9.680  22.898  0.00  0.00    +0.000 A 
ATOM     15  C   UNL     1      -0.924  11.012  23.153  0.00  0.00    +0.000 A 
ATOM     16  C   UNL     1      -1.026  11.910  22.094  0.00  0.00    +0.000 A 
ATOM     17 CL   UNL     1      -1.509  13.534  22.394  0.00  0.00    +0.000 Cl
ATOM     18  C   UNL     1      -0.757  11.498  20.788  0.00  0.00    +0.000 A 
ATOM     19  C   UNL     1      -0.389  10.173  20.536  0.00  0.00    +0.000 A 
ENDBRANCH  10  13
ENDBRANCH   4   7
BRANCH   1  20
ATOM     20  C   UNL     1       3.427   2.946  17.651  0.00  0.00    +0.000 C 
BRANCH  20  21
ATOM     21  C   UNL     1       3.748   3.381  16.217  0.00  0.00    +0.000 C 
BRANCH  21  24
ATOM     22  O   UNL     1       5.166   3.953  13.819  0.00  0.00    +0.000 OA
ATOM     23  C   UNL     1       5.620   4.362  14.894  0.00  0.00    +0.000 C 
ATOM     24  N   UNL     1       4.942   4.207  16.091  0.00  0.00    +0.000 N 
ATOM     25  H   UNL     1       5.480   4.381  16.937  0.00  0.00    +0.000 HD
BRANCH  23  26
ATOM     26  C   UNL     1       6.957   5.073  14.977  0.00  0.00    +0.000 C 
BRANCH  26  27
ATOM     27  C   UNL     1       7.330   5.477  16.379  0.00  0.00    +0.000 A 
ATOM     28  C   UNL     1       7.301   6.813  16.782  0.00  0.00    +0.000 A 
ATOM     29  C   UNL     1       7.592   7.131  18.108  0.00  0.00    +0.000 A 
ATOM     30  C   UNL     1       7.894   6.112  19.002  0.00  0.00    +0.000 A 
ATOM     31  C   UNL     1       7.898   4.811  18.530  0.00  0.00    +0.000 A 
ATOM     32  N   UNL     1       7.628   4.474  17.246  0.00  0.00    +0.000 NA
ENDBRANCH  26  27
ENDBRANCH  23  26
ENDBRANCH  21  24
ENDBRANCH  20  21
ENDBRANCH   1  20
BRANCH   5  33
ATOM     33  C   UNL     1       2.258   3.647  21.905  0.00  0.00    +0.000 C 
BRANCH  33  34
ATOM     34  O   UNL     1       1.861   2.274  21.940  0.00  0.00    +0.000 OA
ATOM     35  H   UNL     1       2.148   1.946  22.813  0.00  0.00    +0.000 HD
ENDBRANCH  33  34
ENDBRANCH   5  33
TORSDOF 9
ENDMDL
MODEL 3
REMARK VINA RESULT:      -7.1      1.759      2.715
REMARK  Name = 
REMARK  9 active torsions:
REMARK  status: ('A' for Active; 'I' for Inactive)
REMARK    1  A    between atoms: C_2  and  C_3
REMARK    2  A    between atoms: C_3  and  C_4
REMARK    3  A    between atoms: N_10  and  C_11
REMARK    4  A    between atoms: C_11  and  C_12
REMARK    5  A    between atoms: C_12  and  C_13
REMARK    6  A    between atoms: C_16  and  N_17
REMARK    7  A    between atoms: N_20  and  C_21
REMARK    8  A    between atoms: C_28  and  C_29
REMARK    9  A    between atoms: C_29  and  O_30
REMARK                            x       y       z     vdW  Elec       q    Type
REMARK                         _______ _______ _______ _____ _____    ______ ____
ROOT
ATOM      1  C   UNL     1       3.638   4.290  20.046  0.00  0.00    +0.000 C 
ATOM      2  C   UNL     1       2.522   4.419  21.090  0.00  0.00    +0.000 C 
ATOM      3  C   UNL     1       1.264   5.073  20.524  0.00  0.00    +0.000 C 
ATOM      4  C   UNL     1       1.586   6.393  19.812  0.00  0.00    +0.000 C 
ATOM      5  C   UNL     1       2.758   6.197  18.825  0.00  0.00    +0.000 C 
ATOM      6  O   UNL     1       3.898   5.568  19.444  0.00  0.00    +0.000 OA
ENDROOT
BRANCH   4   7
ATOM      7  N   UNL     1       1.812   7.467  20.788  0.00  0.00    +0.000 N 
ATOM      8  C   UNL     1       0.864   8.461  20.914  0.00  0.00    +0.000 C 
ATOM      9  O   UNL     1      -0.137   8.508  20.210  0.00  0.00    +0.000 OA
ATOM     10  N   UNL     1       1.228   9.419  21.844  0.00  0.00    +0.000 N 
ATOM     11  H   UNL     1       2.354   7.253  21.616  0.00  0.00    +0.000 HD
ATOM     12  H   UNL     1       2.226   9.577  21.864  0.00  0.00    +0.000 HD
BRANCH  10  13
ATOM     13  C   UNL     1       0.415  10.566  21.996  0.00  0.00    +0.000 A 
ATOM     14  C   UNL     1       0.703  11.747  21.301  0.00  0.00    +0.000 A 
ATOM     15  C   UNL     1      -0.042  12.903  21.542  0.00  0.00    +0.000 A 
ATOM     16  C   UNL     1      -1.063  12.878  22.489  0.00  0.00    +0.000 A 
ATOM     17 CL   UNL     1      -1.935  14.319  22.843  0.00  0.00    +0.000 Cl
ATOM     18  C   UNL     1      -1.372  11.698  23.165  0.00  0.00    +0.000 A 
ATOM     19  C   UNL     1      -0.650  10.531  22.898  0.00  0.00    +0.000 A 
ENDBRANCH  10  13
ENDBRANCH   4   7
BRANCH   1  20
ATOM     20  C   UNL     1       3.399   3.142  19.040  0.00  0.00    +0.000 C 
BRANCH  20  21
ATOM     21  C   UNL     1       4.664   2.776  18.256  0.00  0.00    +0.000 C 
BRANCH  21  24
ATOM     22  O   UNL     1       7.031   4.335  18.034  0.00  0.00    +0.000 OA
ATOM     23  C   UNL     1       6.134   4.488  17.197  0.00  0.00    +0.000 C 
ATOM     24  N   UNL     1       4.995   3.702  17.180  0.00  0.00    +0.000 N 
ATOM     25  H   UNL     1       4.229   4.034  16.599  0.00  0.00    +0.000 HD
BRANCH  23  26
ATOM     26  C   UNL     1       6.223   5.550  16.117  0.00  0.00    +0.000 C 
BRANCH  26  27
ATOM     27  C   UNL     1       6.525   4.987  14.752  0.00  0.00    +0.000 A 
ATOM     28  C   UNL     1       5.682   4.053  14.150  0.00  0.00    +0.000 A 
ATOM     29  C   UNL     1       5.969   3.609  12.859  0.00  0.00    +0.000 A 
ATOM     30  C   UNL     1       7.080   4.114  12.197  0.00  0.00    +0.000 A 
ATOM     31  C   UNL     1       7.867   5.041  12.858  0.00  0.00    +0.000 A 
ATOM     32  N   UNL     1       7.617   5.483  14.114  0.00  0.00    +0.000 NA
ENDBRANCH  26  27
ENDBRANCH  23  26
ENDBRANCH  21  24
ENDBRANCH  20  21
ENDBRANCH   1  20
BRANCH   5  33
ATOM     33  C   UNL     1       3.221   7.526  18.203  0.00  0.00    +0.000 C 
BRANCH  33  34
ATOM     34  O   UNL     1       2.094   8.361  17.928  0.00  0.00    +0.000 OA
ATOM     35  H   UNL     1       2.155   8.571  16.976  0.00  0.00    +0.000 HD
ENDBRANCH  33  34
ENDBRANCH   5  33
TORSDOF 9
ENDMDL
MODEL 4
REMARK VINA RESULT:      -6.8      4.775     11.166
REMARK  Name = 
REMARK  9 active torsions:
REMARK  status: ('A' for Active; 'I' for Inactive)
REMARK    1  A    between atoms: C_2  and  C_3
REMARK    2  A    between atoms: C_3  and  C_4
REMARK    3  A    between atoms: N_10  and  C_11
REMARK    4  A    between atoms: C_11  and  C_12
REMARK    5  A    between atoms: C_12  and  C_13
REMARK    6  A    between atoms: C_16  and  N_17
REMARK    7  A    between atoms: N_20  and  C_21
REMARK    8  A    between atoms: C_28  and  C_29
REMARK    9  A    between atoms: C_29  and  O_30
REMARK                            x       y       z     vdW  Elec       q    Type
REMARK                         _______ _______ _______ _____ _____    ______ ____
ROOT
ATOM      1  C   UNL     1      -1.374  12.182  18.709  0.00  0.00    +0.000 C 
ATOM      2  C   UNL     1      -1.482  10.694  19.066  0.00  0.00    +0.000 C 
ATOM      3  C   UNL     1      -0.444  10.264  20.100  0.00  0.00    +0.000 C 
ATOM      4  C   UNL     1       0.972  10.690  19.687  0.00  0.00    +0.000 C 
ATOM      5  C   UNL     1       0.986  12.181  19.283  0.00  0.00    +0.000 C 
ATOM      6  O   UNL     1      -0.030  12.496  18.310  0.00  0.00    +0.000 OA
ENDROOT
BRANCH   4   7
ATOM      7  N   UNL     1       1.503   9.794  18.652  0.00  0.00    +0.000 N 
ATOM      8  C   UNL     1       1.808   8.493  18.991  0.00  0.00    +0.000 C 
ATOM      9  O   UNL     1       1.698   8.068  20.135  0.00  0.00    +0.000 OA
ATOM     10  N   UNL     1       2.329   7.780  17.925  0.00  0.00    +0.000 N 
ATOM     11  H   UNL     1       1.223   9.956  17.692  0.00  0.00    +0.000 HD
ATOM     12  H   UNL     1       2.890   8.356  17.314  0.00  0.00    +0.000 HD
BRANCH  10  13
ATOM     13  C   UNL     1       2.804   6.467  18.150  0.00  0.00    +0.000 A 
ATOM     14  C   UNL     1       1.944   5.367  18.063  0.00  0.00    +0.000 A 
ATOM     15  C   UNL     1       2.401   4.089  18.393  0.00  0.00    +0.000 A 
ATOM     16  C   UNL     1       3.715   3.920  18.823  0.00  0.00    +0.000 A 
ATOM     17 CL   UNL     1       4.262   2.360  19.302  0.00  0.00    +0.000 Cl
ATOM     18  C   UNL     1       4.585   5.008  18.886  0.00  0.00    +0.000 A 
ATOM     19  C   UNL     1       4.138   6.282  18.521  0.00  0.00    +0.000 A 
ENDBRANCH  10  13
ENDBRANCH   4   7
BRANCH   1  20
ATOM     20  C   UNL     1      -1.956  13.113  19.795  0.00  0.00    +0.000 C 
BRANCH  20  21
ATOM     21  C   UNL     1      -3.342  12.664  20.272  0.00  0.00    +0.000 C 
BRANCH  21  24
ATOM     22  O   UNL     1      -2.156  11.666  22.655  0.00  0.00    +0.000 OA
ATOM     23  C   UNL     1      -3.100  12.459  22.745  0.00  0.00    +0.000 C 
ATOM     24  N   UNL     1      -3.668  13.062  21.635  0.00  0.00    +0.000 N 
ATOM     25  H   UNL     1      -4.561  13.525  21.785  0.00  0.00    +0.000 HD
BRANCH  23  26
ATOM     26  C   UNL     1      -3.702  12.835  24.085  0.00  0.00    +0.000 C 
BRANCH  26  27
ATOM     27  C   UNL     1      -5.082  13.430  23.971  0.00  0.00    +0.000 A 
ATOM     28  C   UNL     1      -6.225  12.647  24.133  0.00  0.00    +0.000 A 
ATOM     29  C   UNL     1      -7.479  13.255  24.083  0.00  0.00    +0.000 A 
ATOM     30  C   UNL     1      -7.564  14.627  23.885  0.00  0.00    +0.000 A 
ATOM     31  C   UNL     1      -6.385  15.337  23.738  0.00  0.00    +0.000 A 
ATOM     32  N   UNL     1      -5.155  14.772  23.773  0.00  0.00    +0.000 NA
ENDBRANCH  26  27
ENDBRANCH  23  26
ENDBRANCH  21  24
ENDBRANCH  20  21
ENDBRANCH   1  20
BRANCH   5  33
ATOM     33  C   UNL     1       2.348  12.614  18.712  0.00  0.00    +0.000 C 
BRANCH  33  34
ATOM     34  O   UNL     1       2.456  12.224  17.342  0.00  0.00    +0.000 OA
ATOM     35  H   UNL     1       2.443  11.248  17.350  0.00  0.00    +0.000 HD
ENDBRANCH  33  34
ENDBRANCH   5  33
TORSDOF 9
ENDMDL
MODEL 5
REMARK VINA RESULT:      -6.7      4.902      9.939
REMARK  Name = 
REMARK  9 active torsions:
REMARK  status: ('A' for Active; 'I' for Inactive)
REMARK    1  A    between atoms: C_2  and  C_3
REMARK    2  A    between atoms: C_3  and  C_4
REMARK    3  A    between atoms: N_10  and  C_11
REMARK    4  A    between atoms: C_11  and  C_12
REMARK    5  A    between atoms: C_12  and  C_13
REMARK    6  A    between atoms: C_16  and  N_17
REMARK    7  A    between atoms: N_20  and  C_21
REMARK    8  A    between atoms: C_28  and  C_29
REMARK    9  A    between atoms: C_29  and  O_30
REMARK                            x       y       z     vdW  Elec       q    Type
REMARK                         _______ _______ _______ _____ _____    ______ ____
ROOT
ATOM      1  C   UNL     1      -1.260  12.432  19.349  0.00  0.00    +0.000 C 
ATOM      2  C   UNL     1      -1.339  10.943  19.707  0.00  0.00    +0.000 C 
ATOM      3  C   UNL     1      -0.148  10.479  20.542  0.00  0.00    +0.000 C 
ATOM      4  C   UNL     1       1.185  10.879  19.895  0.00  0.00    +0.000 C 
ATOM      5  C   UNL     1       1.163  12.374  19.507  0.00  0.00    +0.000 C 
ATOM      6  O   UNL     1       0.002  12.723  18.727  0.00  0.00    +0.000 OA
ENDROOT
BRANCH   4   7
ATOM      7  N   UNL     1       1.508   9.985  18.776  0.00  0.00    +0.000 N 
ATOM      8  C   UNL     1       1.816   8.669  19.044  0.00  0.00    +0.000 C 
ATOM      9  O   UNL     1       1.876   8.226  20.185  0.00  0.00    +0.000 OA
ATOM     10  N   UNL     1       2.132   7.959  17.899  0.00  0.00    +0.000 N 
ATOM     11  H   UNL     1       1.083  10.175  17.876  0.00  0.00    +0.000 HD
ATOM     12  H   UNL     1       2.608   8.527  17.212  0.00  0.00    +0.000 HD
BRANCH  10  13
ATOM     13  C   UNL     1       2.589   6.626  18.026  0.00  0.00    +0.000 A 
ATOM     14  C   UNL     1       1.685   5.559  18.077  0.00  0.00    +0.000 A 
ATOM     15  C   UNL     1       2.143   4.261  18.312  0.00  0.00    +0.000 A 
ATOM     16  C   UNL     1       3.504   4.038  18.510  0.00  0.00    +0.000 A 
ATOM     17 CL   UNL     1       4.065   2.452  18.874  0.00  0.00    +0.000 Cl
ATOM     18  C   UNL     1       4.412   5.093  18.433  0.00  0.00    +0.000 A 
ATOM     19  C   UNL     1       3.958   6.387  18.163  0.00  0.00    +0.000 A 
ENDBRANCH  10  13
ENDBRANCH   4   7
BRANCH   1  20
ATOM     20  C   UNL     1      -1.625  13.361  20.528  0.00  0.00    +0.000 C 
BRANCH  20  21
ATOM     21  C   UNL     1      -3.133  13.400  20.801  0.00  0.00    +0.000 C 
BRANCH  21  24
ATOM     22  O   UNL     1      -5.597  11.982  20.889  0.00  0.00    +0.000 OA
ATOM     23  C   UNL     1      -5.106  12.260  19.788  0.00  0.00    +0.000 C 
ATOM     24  N   UNL     1      -3.961  13.028  19.661  0.00  0.00    +0.000 N 
ATOM     25  H   UNL     1      -3.519  13.025  18.745  0.00  0.00    +0.000 HD
BRANCH  23  26
ATOM     26  C   UNL     1      -5.731  11.781  18.492  0.00  0.00    +0.000 C 
BRANCH  26  27
ATOM     27  C   UNL     1      -4.745  11.118  17.566  0.00  0.00    +0.000 A 
ATOM     28  C   UNL     1      -4.467  11.645  16.304  0.00  0.00    +0.000 A 
ATOM     29  C   UNL     1      -3.499  11.033  15.508  0.00  0.00    +0.000 A 
ATOM     30  C   UNL     1      -2.825   9.919  15.992  0.00  0.00    +0.000 A 
ATOM     31  C   UNL     1      -3.152   9.458  17.255  0.00  0.00    +0.000 A 
ATOM     32  N   UNL     1      -4.093  10.027  18.045  0.00  0.00    +0.000 NA
ENDBRANCH  26  27
ENDBRANCH  23  26
ENDBRANCH  21  24
ENDBRANCH  20  21
ENDBRANCH   1  20
BRANCH   5  33
ATOM     33  C   UNL     1       2.416  12.786  18.714  0.00  0.00    +0.000 C 
BRANCH  33  34
ATOM     34  O   UNL     1       2.292  12.379  17.349  0.00  0.00    +0.000 OA
ATOM     35  H   UNL     1       3.038  12.805  16.885  0.00  0.00    +0.000 HD
ENDBRANCH  33  34
ENDBRANCH   5  33
TORSDOF 9
ENDMDL
MODEL 6
REMARK VINA RESULT:      -6.7      4.442     10.628
REMARK  Name = 
REMARK  9 active torsions:
REMARK  status: ('A' for Active; 'I' for Inactive)
REMARK    1  A    between atoms: C_2  and  C_3
REMARK    2  A    between atoms: C_3  and  C_4
REMARK    3  A    between atoms: N_10  and  C_11
REMARK    4  A    between atoms: C_11  and  C_12
REMARK    5  A    between atoms: C_12  and  C_13
REMARK    6  A    between atoms: C_16  and  N_17
REMARK    7  A    between atoms: N_20  and  C_21
REMARK    8  A    between atoms: C_28  and  C_29
REMARK    9  A    between atoms: C_29  and  O_30
REMARK                            x       y       z     vdW  Elec       q    Type
REMARK                         _______ _______ _______ _____ _____    ______ ____
ROOT
ATOM      1  C   UNL     1       0.973  12.264  20.752  0.00  0.00    +0.000 C 
ATOM      2  C   UNL     1       1.556  11.789  19.416  0.00  0.00    +0.000 C 
ATOM      3  C   UNL     1       0.705  10.705  18.758  0.00  0.00    +0.000 C 
ATOM      4  C   UNL     1       0.401   9.559  19.732  0.00  0.00    +0.000 C 
ATOM      5  C   UNL     1      -0.122  10.120  21.073  0.00  0.00    +0.000 C 
ATOM      6  O   UNL     1       0.740  11.140  21.615  0.00  0.00    +0.000 OA
ENDROOT
BRANCH   4   7
ATOM      7  N   UNL     1       1.567   8.678  19.877  0.00  0.00    +0.000 N 
ATOM      8  C   UNL     1       2.075   8.057  18.756  0.00  0.00    +0.000 C 
ATOM      9  O   UNL     1       1.562   8.175  17.649  0.00  0.00    +0.000 OA
ATOM     10  N   UNL     1       3.148   7.235  19.051  0.00  0.00    +0.000 N 
ATOM     11  H   UNL     1       2.226   8.878  20.620  0.00  0.00    +0.000 HD
ATOM     12  H   UNL     1       3.057   6.793  19.955  0.00  0.00    +0.000 HD
BRANCH  10  13
ATOM     13  C   UNL     1       3.698   6.435  18.022  0.00  0.00    +0.000 A 
ATOM     14  C   UNL     1       3.377   5.076  17.919  0.00  0.00    +0.000 A 
ATOM     15  C   UNL     1       4.009   4.275  16.966  0.00  0.00    +0.000 A 
ATOM     16  C   UNL     1       4.974   4.833  16.130  0.00  0.00    +0.000 A 
ATOM     17 CL   UNL     1       5.810   3.834  15.006  0.00  0.00    +0.000 Cl
ATOM     18  C   UNL     1       5.279   6.191  16.210  0.00  0.00    +0.000 A 
ATOM     19  C   UNL     1       4.620   7.002  17.139  0.00  0.00    +0.000 A 
ENDBRANCH  10  13
ENDBRANCH   4   7
BRANCH   1  20
ATOM     20  C   UNL     1      -0.239  13.208  20.585  0.00  0.00    +0.000 C 
BRANCH  20  21
ATOM     21  C   UNL     1      -0.722  13.786  21.920  0.00  0.00    +0.000 C 
BRANCH  21  24
ATOM     22  O   UNL     1      -2.642  11.891  22.823  0.00  0.00    +0.000 OA
ATOM     23  C   UNL     1      -3.036  12.974  22.374  0.00  0.00    +0.000 C 
ATOM     24  N   UNL     1      -2.164  13.984  22.004  0.00  0.00    +0.000 N 
ATOM     25  H   UNL     1      -2.562  14.742  21.455  0.00  0.00    +0.000 HD
BRANCH  23  26
ATOM     26  C   UNL     1      -4.512  13.277  22.202  0.00  0.00    +0.000 C 
BRANCH  26  27
ATOM     27  C   UNL     1      -5.140  12.543  21.047  0.00  0.00    +0.000 A 
ATOM     28  C   UNL     1      -4.515  12.480  19.801  0.00  0.00    +0.000 A 
ATOM     29  C   UNL     1      -5.103  11.733  18.780  0.00  0.00    +0.000 A 
ATOM     30  C   UNL     1      -6.293  11.061  19.028  0.00  0.00    +0.000 A 
ATOM     31  C   UNL     1      -6.850  11.167  20.290  0.00  0.00    +0.000 A 
ATOM     32  N   UNL     1      -6.305  11.891  21.296  0.00  0.00    +0.000 NA
ENDBRANCH  26  27
ENDBRANCH  23  26
ENDBRANCH  21  24
ENDBRANCH  20  21
ENDBRANCH   1  20
BRANCH   5  33
ATOM     33  C   UNL     1      -0.292   9.019  22.135  0.00  0.00    +0.000 C 
BRANCH  33  34
ATOM     34  O   UNL     1      -0.904   9.557  23.309  0.00  0.00    +0.000 OA
ATOM     35  H   UNL     1      -1.376  10.358  23.010  0.00  0.00    +0.000 HD
ENDBRANCH  33  34
ENDBRANCH   5  33
TORSDOF 9
ENDMDL
MODEL 7
REMARK VINA RESULT:      -6.6      1.520      2.321
REMARK  Name = 
REMARK  9 active torsions:
REMARK  status: ('A' for Active; 'I' for Inactive)
REMARK    1  A    between atoms: C_2  and  C_3
REMARK    2  A    between atoms: C_3  and  C_4
REMARK    3  A    between atoms: N_10  and  C_11
REMARK    4  A    between atoms: C_11  and  C_12
REMARK    5  A    between atoms: C_12  and  C_13
REMARK    6  A    between atoms: C_16  and  N_17
REMARK    7  A    between atoms: N_20  and  C_21
REMARK    8  A    between atoms: C_28  and  C_29
REMARK    9  A    between atoms: C_29  and  O_30
REMARK                            x       y       z     vdW  Elec       q    Type
REMARK                         _______ _______ _______ _____ _____    ______ ____
ROOT
ATOM      1  C   UNL     1       1.523   3.219  18.363  0.00  0.00    +0.000 C 
ATOM      2  C   UNL     1       1.574   4.667  17.860  0.00  0.00    +0.000 C 
ATOM      3  C   UNL     1       2.698   5.472  18.509  0.00  0.00    +0.000 C 
ATOM      4  C   UNL     1       2.661   5.359  20.039  0.00  0.00    +0.000 C 
ATOM      5  C   UNL     1       2.546   3.879  20.464  0.00  0.00    +0.000 C 
ATOM      6  O   UNL     1       1.464   3.198  19.798  0.00  0.00    +0.000 OA
ENDROOT
BRANCH   4   7
ATOM      7  N   UNL     1       1.607   6.215  20.597  0.00  0.00    +0.000 N 
ATOM      8  C   UNL     1       1.508   7.519  20.161  0.00  0.00    +0.000 C 
ATOM      9  O   UNL     1       2.297   8.006  19.359  0.00  0.00    +0.000 OA
ATOM     10  N   UNL     1       0.494   8.212  20.799  0.00  0.00    +0.000 N 
ATOM     11  H   UNL     1       0.746   5.775  20.901  0.00  0.00    +0.000 HD
ATOM     12  H   UNL     1       0.373   7.922  21.759  0.00  0.00    +0.000 HD
BRANCH  10  13
ATOM     13  C   UNL     1       0.349   9.596  20.546  0.00  0.00    +0.000 A 
ATOM     14  C   UNL     1       0.972  10.544  21.366  0.00  0.00    +0.000 A 
ATOM     15  C   UNL     1       0.734  11.907  21.172  0.00  0.00    +0.000 A 
ATOM     16  C   UNL     1      -0.140  12.314  20.167  0.00  0.00    +0.000 A 
ATOM     17 CL   UNL     1      -0.496  13.987  19.972  0.00  0.00    +0.000 Cl
ATOM     18  C   UNL     1      -0.744  11.376  19.330  0.00  0.00    +0.000 A 
ATOM     19  C   UNL     1      -0.477  10.014  19.501  0.00  0.00    +0.000 A 
ENDBRANCH  10  13
ENDBRANCH   4   7
BRANCH   1  20
ATOM     20  C   UNL     1       2.622   2.323  17.750  0.00  0.00    +0.000 C 
BRANCH  20  21
ATOM     21  C   UNL     1       3.313   2.978  16.549  0.00  0.00    +0.000 C 
BRANCH  21  24
ATOM     22  O   UNL     1       4.935   4.621  14.889  0.00  0.00    +0.000 OA
ATOM     23  C   UNL     1       5.451   4.063  15.865  0.00  0.00    +0.000 C 
ATOM     24  N   UNL     1       4.710   3.326  16.773  0.00  0.00    +0.000 N 
ATOM     25  H   UNL     1       5.240   2.738  17.412  0.00  0.00    +0.000 HD
BRANCH  23  26
ATOM     26  C   UNL     1       6.939   4.154  16.143  0.00  0.00    +0.000 C 
BRANCH  26  27
ATOM     27  C   UNL     1       7.306   5.296  17.054  0.00  0.00    +0.000 A 
ATOM     28  C   UNL     1       7.676   5.076  18.381  0.00  0.00    +0.000 A 
ATOM     29  C   UNL     1       8.069   6.159  19.167  0.00  0.00    +0.000 A 
ATOM     30  C   UNL     1       8.094   7.431  18.611  0.00  0.00    +0.000 A 
ATOM     31  C   UNL     1       7.718   7.570  17.286  0.00  0.00    +0.000 A 
ATOM     32  N   UNL     1       7.324   6.538  16.502  0.00  0.00    +0.000 NA
ENDBRANCH  26  27
ENDBRANCH  23  26
ENDBRANCH  21  24
ENDBRANCH  20  21
ENDBRANCH   1  20
BRANCH   5  33
ATOM     33  C   UNL     1       2.348   3.725  21.983  0.00  0.00    +0.000 C 
BRANCH  33  34
ATOM     34  O   UNL     1       1.540   2.579  22.261  0.00  0.00    +0.000 OA
ATOM     35  H   UNL     1       2.129   1.956  22.727  0.00  0.00    +0.000 HD
ENDBRANCH  33  34
ENDBRANCH   5  33
TORSDOF 9
ENDMDL
MODEL 8
REMARK VINA RESULT:      -6.6      1.460      2.299
REMARK  Name = 
REMARK  9 active torsions:
REMARK  status: ('A' for Active; 'I' for Inactive)
REMARK    1  A    between atoms: C_2  and  C_3
REMARK    2  A    between atoms: C_3  and  C_4
REMARK    3  A    between atoms: N_10  and  C_11
REMARK    4  A    between atoms: C_11  and  C_12
REMARK    5  A    between atoms: C_12  and  C_13
REMARK    6  A    between atoms: C_16  and  N_17
REMARK    7  A    between atoms: N_20  and  C_21
REMARK    8  A    between atoms: C_28  and  C_29
REMARK    9  A    between atoms: C_29  and  O_30
REMARK                            x       y       z     vdW  Elec       q    Type
REMARK                         _______ _______ _______ _____ _____    ______ ____
ROOT
ATOM      1  C   UNL     1       2.271   3.424  18.154  0.00  0.00    +0.000 C 
ATOM      2  C   UNL     1       2.068   4.906  17.814  0.00  0.00    +0.000 C 
ATOM      3  C   UNL     1       2.852   5.831  18.740  0.00  0.00    +0.000 C 
ATOM      4  C   UNL     1       2.590   5.505  20.217  0.00  0.00    +0.000 C 
ATOM      5  C   UNL     1       2.753   3.990  20.467  0.00  0.00    +0.000 C 
ATOM      6  O   UNL     1       1.983   3.194  19.543  0.00  0.00    +0.000 OA
ENDROOT
BRANCH   4   7
ATOM      7  N   UNL     1       1.289   6.036  20.643  0.00  0.00    +0.000 N 
ATOM      8  C   UNL     1       1.140   7.400  20.781  0.00  0.00    +0.000 C 
ATOM      9  O   UNL     1       2.066   8.183  20.607  0.00  0.00    +0.000 OA
ATOM     10  N   UNL     1      -0.125   7.749  21.220  0.00  0.00    +0.000 N 
ATOM     11  H   UNL     1       0.457   5.514  20.396  0.00  0.00    +0.000 HD
ATOM     12  H   UNL     1      -0.514   7.066  21.855  0.00  0.00    +0.000 HD
BRANCH  10  13
ATOM     13  C   UNL     1      -0.391   9.103  21.527  0.00  0.00    +0.000 A 
ATOM     14  C   UNL     1      -0.356  10.086  20.531  0.00  0.00    +0.000 A 
ATOM     15  C   UNL     1      -0.514  11.432  20.866  0.00  0.00    +0.000 A 
ATOM     16  C   UNL     1      -0.690  11.792  22.199  0.00  0.00    +0.000 A 
ATOM     17 CL   UNL     1      -0.809  13.455  22.626  0.00  0.00    +0.000 Cl
ATOM     18  C   UNL     1      -0.752  10.816  23.194  0.00  0.00    +0.000 A 
ATOM     19  C   UNL     1      -0.630   9.466  22.855  0.00  0.00    +0.000 A 
ENDBRANCH  10  13
ENDBRANCH   4   7
BRANCH   1  20
ATOM     20  C   UNL     1       3.633   2.872  17.680  0.00  0.00    +0.000 C 
BRANCH  20  21
ATOM     21  C   UNL     1       3.914   3.186  16.207  0.00  0.00    +0.000 C 
BRANCH  21  24
ATOM     22  O   UNL     1       5.872   3.233  14.144  0.00  0.00    +0.000 OA
ATOM     23  C   UNL     1       5.897   4.113  15.012  0.00  0.00    +0.000 C 
ATOM     24  N   UNL     1       4.924   4.215  15.992  0.00  0.00    +0.000 N 
ATOM     25  H   UNL     1       5.140   4.827  16.776  0.00  0.00    +0.000 HD
BRANCH  23  26
ATOM     26  C   UNL     1       6.998   5.155  15.061  0.00  0.00    +0.000 C 
BRANCH  26  27
ATOM     27  C   UNL     1       7.301   5.636  16.456  0.00  0.00    +0.000 A 
ATOM     28  C   UNL     1       7.468   4.741  17.512  0.00  0.00    +0.000 A 
ATOM     29  C   UNL     1       7.811   5.230  18.772  0.00  0.00    +0.000 A 
ATOM     30  C   UNL     1       7.989   6.596  18.947  0.00  0.00    +0.000 A 
ATOM     31  C   UNL     1       7.811   7.421  17.851  0.00  0.00    +0.000 A 
ATOM     32  N   UNL     1       7.470   6.975  16.619  0.00  0.00    +0.000 NA
ENDBRANCH  26  27
ENDBRANCH  23  26
ENDBRANCH  21  24
ENDBRANCH  20  21
ENDBRANCH   1  20
BRANCH   5  33
ATOM     33  C   UNL     1       2.348   3.591  21.897  0.00  0.00    +0.000 C 
BRANCH  33  34
ATOM     34  O   UNL     1       1.654   2.341  21.883  0.00  0.00    +0.000 OA
ATOM     35  H   UNL     1       2.262   1.714  21.448  0.00  0.00    +0.000 HD
ENDBRANCH  33  34
ENDBRANCH   5  33
TORSDOF 9
ENDMDL
MODEL 9
REMARK VINA RESULT:      -6.5      4.522      9.513
REMARK  Name = 
REMARK  9 active torsions:
REMARK  status: ('A' for Active; 'I' for Inactive)
REMARK    1  A    between atoms: C_2  and  C_3
REMARK    2  A    between atoms: C_3  and  C_4
REMARK    3  A    between atoms: N_10  and  C_11
REMARK    4  A    between atoms: C_11  and  C_12
REMARK    5  A    between atoms: C_12  and  C_13
REMARK    6  A    between atoms: C_16  and  N_17
REMARK    7  A    between atoms: N_20  and  C_21
REMARK    8  A    between atoms: C_28  and  C_29
REMARK    9  A    between atoms: C_29  and  O_30
REMARK                            x       y       z     vdW  Elec       q    Type
REMARK                         _______ _______ _______ _____ _____    ______ ____
ROOT
ATOM      1  C   UNL     1      -0.843  11.052  20.737  0.00  0.00    +0.000 C 
ATOM      2  C   UNL     1      -0.339  10.401  22.031  0.00  0.00    +0.000 C 
ATOM      3  C   UNL     1       1.126   9.982  21.943  0.00  0.00    +0.000 C 
ATOM      4  C   UNL     1       1.396   9.136  20.691  0.00  0.00    +0.000 C 
ATOM      5  C   UNL     1       0.806   9.825  19.441  0.00  0.00    +0.000 C 
ATOM      6  O   UNL     1      -0.578  10.191  19.618  0.00  0.00    +0.000 OA
ENDROOT
BRANCH   4   7
ATOM      7  N   UNL     1       0.923   7.759  20.883  0.00  0.00    +0.000 N 
ATOM      8  C   UNL     1       1.700   6.718  20.421  0.00  0.00    +0.000 C 
ATOM      9  O   UNL     1       2.749   6.900  19.814  0.00  0.00    +0.000 OA
ATOM     10  N   UNL     1       1.112   5.485  20.641  0.00  0.00    +0.000 N 
ATOM     11  H   UNL     1       0.339   7.564  21.687  0.00  0.00    +0.000 HD
ATOM     12  H   UNL     1       0.105   5.520  20.569  0.00  0.00    +0.000 HD
BRANCH  10  13
ATOM     13  C   UNL     1       1.732   4.329  20.113  0.00  0.00    +0.000 A 
ATOM     14  C   UNL     1       2.697   3.631  20.849  0.00  0.00    +0.000 A 
ATOM     15  C   UNL     1       3.378   2.557  20.273  0.00  0.00    +0.000 A 
ATOM     16  C   UNL     1       3.103   2.195  18.957  0.00  0.00    +0.000 A 
ATOM     17 CL   UNL     1       3.994   0.920  18.218  0.00  0.00    +0.000 Cl
ATOM     18  C   UNL     1       2.125   2.869  18.227  0.00  0.00    +0.000 A 
ATOM     19  C   UNL     1       1.417   3.921  18.815  0.00  0.00    +0.000 A 
ENDBRANCH  10  13
ENDBRANCH   4   7
BRANCH   1  20
ATOM     20  C   UNL     1      -0.357  12.507  20.559  0.00  0.00    +0.000 C 
BRANCH  20  21
ATOM     21  C   UNL     1      -1.452  13.430  20.012  0.00  0.00    +0.000 C 
BRANCH  21  24
ATOM     22  O   UNL     1      -4.199  13.263  20.727  0.00  0.00    +0.000 OA
ATOM     23  C   UNL     1      -3.801  12.639  19.737  0.00  0.00    +0.000 C 
ATOM     24  N   UNL     1      -2.502  12.745  19.269  0.00  0.00    +0.000 N 
ATOM     25  H   UNL     1      -2.211  12.045  18.591  0.00  0.00    +0.000 HD
BRANCH  23  26
ATOM     26  C   UNL     1      -4.714  11.715  18.954  0.00  0.00    +0.000 C 
BRANCH  26  27
ATOM     27  C   UNL     1      -4.055  11.118  17.738  0.00  0.00    +0.000 A 
ATOM     28  C   UNL     1      -4.360  11.568  16.453  0.00  0.00    +0.000 A 
ATOM     29  C   UNL     1      -3.678  11.031  15.362  0.00  0.00    +0.000 A 
ATOM     30  C   UNL     1      -2.702  10.066  15.579  0.00  0.00    +0.000 A 
ATOM     31  C   UNL     1      -2.452   9.674  16.882  0.00  0.00    +0.000 A 
ATOM     32  N   UNL     1      -3.105  10.173  17.958  0.00  0.00    +0.000 NA
ENDBRANCH  26  27
ENDBRANCH  23  26
ENDBRANCH  21  24
ENDBRANCH  20  21
ENDBRANCH   1  20
BRANCH   5  33
ATOM     33  C   UNL     1       0.913   8.942  18.186  0.00  0.00    +0.000 C 
BRANCH  33  34
ATOM     34  O   UNL     1       2.194   9.108  17.574  0.00  0.00    +0.000 OA
ATOM     35  H   UNL     1       2.836   9.080  18.308  0.00  0.00    +0.000 HD
ENDBRANCH  33  34
ENDBRANCH   5  33
TORSDOF 9
ENDMDL
