MODEL 1
REMARK VINA RESULT:      -7.8      0.000      0.000
REMARK  Name = 
REMARK  6 active torsions:
REMARK  status: ('A' for Active; 'I' for Inactive)
REMARK    1  A    between atoms: C_1  and  O_2
REMARK    2  A    between atoms: O_2  and  C_3
REMARK    3  A    between atoms: C_5  and  C_6
REMARK    4  A    between atoms: C_6  and  C_7
REMARK    5  A    between atoms: C_7  and  C_8
REMARK    6  A    between atoms: C_13  and  C_14
REMARK                            x       y       z     vdW  Elec       q    Type
REMARK                         _______ _______ _______ _____ _____    ______ ____
ROOT
ATOM      1  C   UNL     1       3.146   4.049  18.103  0.00  0.00    +0.000 A 
ATOM      2  C   UNL     1       4.121   3.543  17.225  0.00  0.00    +0.000 A 
ATOM      3  C   UNL     1       4.958   4.382  16.468  0.00  0.00    +0.000 A 
ATOM      4  C   UNL     1       4.808   5.775  16.553  0.00  0.00    +0.000 A 
ATOM      5  C   UNL     1       3.833   6.308  17.410  0.00  0.00    +0.000 A 
ATOM      6  C   UNL     1       3.422   7.619  17.748  0.00  0.00    +0.000 A 
ATOM      7  C   UNL     1       2.417   7.499  18.688  0.00  0.00    +0.000 A 
ATOM      8  O   UNL     1       2.174   6.172  18.930  0.00  0.00    +0.000 OA
ATOM      9  C   UNL     1       3.040   5.446  18.154  0.00  0.00    +0.000 A 
ENDROOT
BRANCH   7  10
ATOM     10  C   UNL     1       1.636   8.475  19.445  0.00  0.00    +0.000 A 
ATOM     11  C   UNL     1       1.116   9.642  18.841  0.00  0.00    +0.000 A 
ATOM     12  C   UNL     1       0.329  10.550  19.564  0.00  0.00    +0.000 A 
ATOM     13  C   UNL     1       0.080  10.270  20.890  0.00  0.00    +0.000 A 
ATOM     14  C   UNL     1       0.589   9.148  21.493  0.00  0.00    +0.000 A 
ATOM     15  C   UNL     1       1.366   8.241  20.805  0.00  0.00    +0.000 A 
ATOM     16  O   UNL     1       0.233   9.051  22.803  0.00  0.00    +0.000 OA
ATOM     17  C   UNL     1      -0.552  10.252  22.957  0.00  0.00    +0.000 C 
ATOM     18  O   UNL     1      -0.671  11.019  21.740  0.00  0.00    +0.000 OA
ENDBRANCH   7  10
BRANCH   1  20
ATOM     19  C   UNL     1       2.802   2.874  20.125  0.00  0.00    +0.000 C 
ATOM     20  O   UNL     1       2.301   3.279  18.857  0.00  0.00    +0.000 OA
ENDBRANCH   1  20
BRANCH   3  21
ATOM     21  C   UNL     1       6.009   3.789  15.559  0.00  0.00    +0.000 C 
BRANCH  21  22
ATOM     22  C   UNL     1       7.005   4.817  15.009  0.00  0.00    +0.000 C 
BRANCH  22  23
ATOM     23  C   UNL     1       7.122   4.767  13.489  0.00  0.00    +0.000 C 
ATOM     24 CL   UNL     1       6.002   3.551  12.828  0.00  0.00    +0.000 Cl
ENDBRANCH  22  23
ENDBRANCH  21  22
ENDBRANCH   3  21
TORSDOF 5
ENDMDL
MODEL 2
REMARK VINA RESULT:      -7.8      1.910      2.128
REMARK  Name = 
REMARK  6 active torsions:
REMARK  status: ('A' for Active; 'I' for Inactive)
REMARK    1  A    between atoms: C_1  and  O_2
REMARK    2  A    between atoms: O_2  and  C_3
REMARK    3  A    between atoms: C_5  and  C_6
REMARK    4  A    between atoms: C_6  and  C_7
REMARK    5  A    between atoms: C_7  and  C_8
REMARK    6  A    between atoms: C_13  and  C_14
REMARK                            x       y       z     vdW  Elec       q    Type
REMARK                         _______ _______ _______ _____ _____    ______ ____
ROOT
ATOM      1  C   UNL     1       3.193   4.926  19.717  0.00  0.00    +0.000 A 
ATOM      2  C   UNL     1       4.080   4.263  18.850  0.00  0.00    +0.000 A 
ATOM      3  C   UNL     1       4.556   4.855  17.666  0.00  0.00    +0.000 A 
ATOM      4  C   UNL     1       4.117   6.138  17.304  0.00  0.00    +0.000 A 
ATOM      5  C   UNL     1       3.220   6.818  18.143  0.00  0.00    +0.000 A 
ATOM      6  C   UNL     1       2.595   8.086  18.103  0.00  0.00    +0.000 A 
ATOM      7  C   UNL     1       1.832   8.198  19.248  0.00  0.00    +0.000 A 
ATOM      8  O   UNL     1       1.939   7.046  19.983  0.00  0.00    +0.000 OA
ATOM      9  C   UNL     1       2.789   6.206  19.311  0.00  0.00    +0.000 A 
ENDROOT
BRANCH   7  10
ATOM     10  C   UNL     1       1.003   9.270  19.796  0.00  0.00    +0.000 A 
ATOM     11  C   UNL     1       0.289  10.160  18.962  0.00  0.00    +0.000 A 
ATOM     12  C   UNL     1      -0.540  11.157  19.497  0.00  0.00    +0.000 A 
ATOM     13  C   UNL     1      -0.633  11.246  20.868  0.00  0.00    +0.000 A 
ATOM     14  C   UNL     1       0.066  10.400  21.691  0.00  0.00    +0.000 A 
ATOM     15  C   UNL     1       0.887   9.412  21.191  0.00  0.00    +0.000 A 
ATOM     16  O   UNL     1      -0.158  10.649  23.009  0.00  0.00    +0.000 OA
ATOM     17  C   UNL     1      -1.071  11.762  22.921  0.00  0.00    +0.000 C 
ATOM     18  O   UNL     1      -1.394  12.133  21.564  0.00  0.00    +0.000 OA
ENDBRANCH   7  10
BRANCH   1  20
ATOM     19  C   UNL     1       1.662   3.428  20.717  0.00  0.00    +0.000 C 
ATOM     20  O   UNL     1       2.693   4.395  20.876  0.00  0.00    +0.000 OA
ENDBRANCH   1  20
BRANCH   3  21
ATOM     21  C   UNL     1       5.529   4.112  16.782  0.00  0.00    +0.000 C 
BRANCH  21  22
ATOM     22  C   UNL     1       6.898   4.790  16.656  0.00  0.00    +0.000 C 
BRANCH  22  23
ATOM     23  C   UNL     1       7.589   4.972  18.003  0.00  0.00    +0.000 C 
ATOM     24 CL   UNL     1       7.746   6.705  18.383  0.00  0.00    +0.000 Cl
ENDBRANCH  22  23
ENDBRANCH  21  22
ENDBRANCH   3  21
TORSDOF 5
ENDMDL
MODEL 3
REMARK VINA RESULT:      -7.7      0.911      1.581
REMARK  Name = 
REMARK  6 active torsions:
REMARK  status: ('A' for Active; 'I' for Inactive)
REMARK    1  A    between atoms: C_1  and  O_2
REMARK    2  A    between atoms: O_2  and  C_3
REMARK    3  A    between atoms: C_5  and  C_6
REMARK    4  A    between atoms: C_6  and  C_7
REMARK    5  A    between atoms: C_7  and  C_8
REMARK    6  A    between atoms: C_13  and  C_14
REMARK                            x       y       z     vdW  Elec       q    Type
REMARK                         _______ _______ _______ _____ _____    ______ ____
ROOT
ATOM      1  C   UNL     1       3.558   3.987  18.157  0.00  0.00    +0.000 A 
ATOM      2  C   UNL     1       4.483   3.570  17.183  0.00  0.00    +0.000 A 
ATOM      3  C   UNL     1       5.132   4.477  16.326  0.00  0.00    +0.000 A 
ATOM      4  C   UNL     1       4.835   5.846  16.408  0.00  0.00    +0.000 A 
ATOM      5  C   UNL     1       3.906   6.290  17.361  0.00  0.00    +0.000 A 
ATOM      6  C   UNL     1       3.388   7.556  17.725  0.00  0.00    +0.000 A 
ATOM      7  C   UNL     1       2.512   7.349  18.772  0.00  0.00    +0.000 A 
ATOM      8  O   UNL     1       2.448   6.010  19.057  0.00  0.00    +0.000 OA
ATOM      9  C   UNL     1       3.300   5.365  18.200  0.00  0.00    +0.000 A 
ENDROOT
BRANCH   7  10
ATOM     10  C   UNL     1       1.712   8.252  19.598  0.00  0.00    +0.000 A 
ATOM     11  C   UNL     1       1.411   7.957  20.947  0.00  0.00    +0.000 A 
ATOM     12  C   UNL     1       0.682   8.851  21.745  0.00  0.00    +0.000 A 
ATOM     13  C   UNL     1       0.262  10.030  21.169  0.00  0.00    +0.000 A 
ATOM     14  C   UNL     1       0.533  10.323  19.857  0.00  0.00    +0.000 A 
ATOM     15  C   UNL     1       1.248   9.462  19.051  0.00  0.00    +0.000 A 
ATOM     16  O   UNL     1       0.033  11.530  19.477  0.00  0.00    +0.000 OA
ATOM     17  C   UNL     1      -0.598  11.957  20.702  0.00  0.00    +0.000 C 
ATOM     18  O   UNL     1      -0.438  11.018  21.787  0.00  0.00    +0.000 OA
ENDBRANCH   7  10
BRANCH   1  20
ATOM     19  C   UNL     1       3.693   2.514  20.000  0.00  0.00    +0.000 C 
ATOM     20  O   UNL     1       2.892   3.148  19.010  0.00  0.00    +0.000 OA
ENDBRANCH   1  20
BRANCH   3  21
ATOM     21  C   UNL     1       6.138   3.981  15.314  0.00  0.00    +0.000 C 
BRANCH  21  22
ATOM     22  C   UNL     1       5.893   4.497  13.891  0.00  0.00    +0.000 C 
BRANCH  22  23
ATOM     23  C   UNL     1       6.138   3.430  12.829  0.00  0.00    +0.000 C 
ATOM     24 CL   UNL     1       4.728   3.305  11.748  0.00  0.00    +0.000 Cl
ENDBRANCH  22  23
ENDBRANCH  21  22
ENDBRANCH   3  21
TORSDOF 5
ENDMDL
MODEL 4
REMARK VINA RESULT:      -7.6      1.203      1.410
REMARK  Name = 
REMARK  6 active torsions:
REMARK  status: ('A' for Active; 'I' for Inactive)
REMARK    1  A    between atoms: C_1  and  O_2
REMARK    2  A    between atoms: O_2  and  C_3
REMARK    3  A    between atoms: C_5  and  C_6
REMARK    4  A    between atoms: C_6  and  C_7
REMARK    5  A    between atoms: C_7  and  C_8
REMARK    6  A    between atoms: C_13  and  C_14
REMARK                            x       y       z     vdW  Elec       q    Type
REMARK                         _______ _______ _______ _____ _____    ______ ____
ROOT
ATOM      1  C   UNL     1       3.133   4.897  19.763  0.00  0.00    +0.000 A 
ATOM      2  C   UNL     1       4.003   4.216  18.891  0.00  0.00    +0.000 A 
ATOM      3  C   UNL     1       4.471   4.792  17.697  0.00  0.00    +0.000 A 
ATOM      4  C   UNL     1       4.041   6.076  17.328  0.00  0.00    +0.000 A 
ATOM      5  C   UNL     1       3.163   6.773  18.171  0.00  0.00    +0.000 A 
ATOM      6  C   UNL     1       2.551   8.048  18.127  0.00  0.00    +0.000 A 
ATOM      7  C   UNL     1       1.802   8.178  19.280  0.00  0.00    +0.000 A 
ATOM      8  O   UNL     1       1.905   7.032  20.024  0.00  0.00    +0.000 OA
ATOM      9  C   UNL     1       2.738   6.176  19.350  0.00  0.00    +0.000 A 
ENDROOT
BRANCH   7  10
ATOM     10  C   UNL     1       0.992   9.265  19.827  0.00  0.00    +0.000 A 
ATOM     11  C   UNL     1       0.321  10.187  18.993  0.00  0.00    +0.000 A 
ATOM     12  C   UNL     1      -0.491  11.198  19.527  0.00  0.00    +0.000 A 
ATOM     13  C   UNL     1      -0.612  11.268  20.897  0.00  0.00    +0.000 A 
ATOM     14  C   UNL     1       0.045  10.390  21.720  0.00  0.00    +0.000 A 
ATOM     15  C   UNL     1       0.849   9.387  21.221  0.00  0.00    +0.000 A 
ATOM     16  O   UNL     1      -0.201  10.624  23.038  0.00  0.00    +0.000 OA
ATOM     17  C   UNL     1      -1.080  11.764  22.948  0.00  0.00    +0.000 C 
ATOM     18  O   UNL     1      -1.363  12.165  21.591  0.00  0.00    +0.000 OA
ENDBRANCH   7  10
BRANCH   1  20
ATOM     19  C   UNL     1       2.681   2.964  21.046  0.00  0.00    +0.000 C 
ATOM     20  O   UNL     1       2.641   4.381  20.932  0.00  0.00    +0.000 OA
ENDBRANCH   1  20
BRANCH   3  21
ATOM     21  C   UNL     1       5.425   4.030  16.808  0.00  0.00    +0.000 C 
BRANCH  21  22
ATOM     22  C   UNL     1       6.687   4.816  16.432  0.00  0.00    +0.000 C 
BRANCH  22  23
ATOM     23  C   UNL     1       7.016   4.723  14.946  0.00  0.00    +0.000 C 
ATOM     24 CL   UNL     1       5.580   4.203  14.030  0.00  0.00    +0.000 Cl
ENDBRANCH  22  23
ENDBRANCH  21  22
ENDBRANCH   3  21
TORSDOF 5
ENDMDL
MODEL 5
REMARK VINA RESULT:      -7.6      1.864      2.738
REMARK  Name = 
REMARK  6 active torsions:
REMARK  status: ('A' for Active; 'I' for Inactive)
REMARK    1  A    between atoms: C_1  and  O_2
REMARK    2  A    between atoms: O_2  and  C_3
REMARK    3  A    between atoms: C_5  and  C_6
REMARK    4  A    between atoms: C_6  and  C_7
REMARK    5  A    between atoms: C_7  and  C_8
REMARK    6  A    between atoms: C_13  and  C_14
REMARK                            x       y       z     vdW  Elec       q    Type
REMARK                         _______ _______ _______ _____ _____    ______ ____
ROOT
ATOM      1  C   UNL     1       2.616   4.984  20.141  0.00  0.00    +0.000 A 
ATOM      2  C   UNL     1       3.341   4.417  19.076  0.00  0.00    +0.000 A 
ATOM      3  C   UNL     1       3.669   5.146  17.919  0.00  0.00    +0.000 A 
ATOM      4  C   UNL     1       3.240   6.476  17.789  0.00  0.00    +0.000 A 
ATOM      5  C   UNL     1       2.504   7.063  18.829  0.00  0.00    +0.000 A 
ATOM      6  C   UNL     1       1.936   8.342  19.041  0.00  0.00    +0.000 A 
ATOM      7  C   UNL     1       1.349   8.323  20.290  0.00  0.00    +0.000 A 
ATOM      8  O   UNL     1       1.508   7.082  20.851  0.00  0.00    +0.000 OA
ATOM      9  C   UNL     1       2.216   6.315  19.962  0.00  0.00    +0.000 A 
ENDROOT
BRANCH   7  10
ATOM     10  C   UNL     1       0.655   9.336  21.084  0.00  0.00    +0.000 A 
ATOM     11  C   UNL     1      -0.045   9.005  22.266  0.00  0.00    +0.000 A 
ATOM     12  C   UNL     1      -0.668   9.990  23.046  0.00  0.00    +0.000 A 
ATOM     13  C   UNL     1      -0.581  11.297  22.619  0.00  0.00    +0.000 A 
ATOM     14  C   UNL     1       0.082  11.631  21.466  0.00  0.00    +0.000 A 
ATOM     15  C   UNL     1       0.703  10.683  20.682  0.00  0.00    +0.000 A 
ATOM     16  O   UNL     1       0.055  12.968  21.216  0.00  0.00    +0.000 OA
ATOM     17  C   UNL     1      -0.717  13.436  22.342  0.00  0.00    +0.000 C 
ATOM     18  O   UNL     1      -1.105  12.382  23.248  0.00  0.00    +0.000 OA
ENDBRANCH   7  10
BRANCH   1  20
ATOM     19  C   UNL     1       2.367   2.902  21.231  0.00  0.00    +0.000 C 
ATOM     20  O   UNL     1       2.264   4.319  21.285  0.00  0.00    +0.000 OA
ENDBRANCH   1  20
BRANCH   3  21
ATOM     21  C   UNL     1       4.472   4.499  16.815  0.00  0.00    +0.000 C 
BRANCH  21  22
ATOM     22  C   UNL     1       5.636   5.359  16.308  0.00  0.00    +0.000 C 
BRANCH  22  23
ATOM     23  C   UNL     1       6.980   4.646  16.406  0.00  0.00    +0.000 C 
ATOM     24 CL   UNL     1       7.671   4.861  18.034  0.00  0.00    +0.000 Cl
ENDBRANCH  22  23
ENDBRANCH  21  22
ENDBRANCH   3  21
TORSDOF 5
ENDMDL
MODEL 6
REMARK VINA RESULT:      -7.5      1.185      1.816
REMARK  Name = 
REMARK  6 active torsions:
REMARK  status: ('A' for Active; 'I' for Inactive)
REMARK    1  A    between atoms: C_1  and  O_2
REMARK    2  A    between atoms: O_2  and  C_3
REMARK    3  A    between atoms: C_5  and  C_6
REMARK    4  A    between atoms: C_6  and  C_7
REMARK    5  A    between atoms: C_7  and  C_8
REMARK    6  A    between atoms: C_13  and  C_14
REMARK                            x       y       z     vdW  Elec       q    Type
REMARK                         _______ _______ _______ _____ _____    ______ ____
ROOT
ATOM      1  C   UNL     1       3.224   4.283  19.586  0.00  0.00    +0.000 A 
ATOM      2  C   UNL     1       4.026   3.745  18.563  0.00  0.00    +0.000 A 
ATOM      3  C   UNL     1       4.440   4.505  17.455  0.00  0.00    +0.000 A 
ATOM      4  C   UNL     1       4.021   5.839  17.330  0.00  0.00    +0.000 A 
ATOM      5  C   UNL     1       3.209   6.398  18.328  0.00  0.00    +0.000 A 
ATOM      6  C   UNL     1       2.628   7.672  18.533  0.00  0.00    +0.000 A 
ATOM      7  C   UNL     1       1.949   7.619  19.734  0.00  0.00    +0.000 A 
ATOM      8  O   UNL     1       2.066   6.363  20.270  0.00  0.00    +0.000 OA
ATOM      9  C   UNL     1       2.838   5.620  19.415  0.00  0.00    +0.000 A 
ENDROOT
BRANCH   7  10
ATOM     10  C   UNL     1       1.198   8.611  20.501  0.00  0.00    +0.000 A 
ATOM     11  C   UNL     1       1.085   8.534  21.908  0.00  0.00    +0.000 A 
ATOM     12  C   UNL     1       0.401   9.516  22.640  0.00  0.00    +0.000 A 
ATOM     13  C   UNL     1      -0.164  10.560  21.942  0.00  0.00    +0.000 A 
ATOM     14  C   UNL     1      -0.075  10.640  20.576  0.00  0.00    +0.000 A 
ATOM     15  C   UNL     1       0.591   9.689  19.833  0.00  0.00    +0.000 A 
ATOM     16  O   UNL     1      -0.697  11.742  20.075  0.00  0.00    +0.000 OA
ATOM     17  C   UNL     1      -1.200  12.340  21.288  0.00  0.00    +0.000 C 
ATOM     18  O   UNL     1      -0.847  11.607  22.479  0.00  0.00    +0.000 OA
ENDBRANCH   7  10
BRANCH   1  20
ATOM     19  C   UNL     1       1.577   2.861  20.508  0.00  0.00    +0.000 C 
ATOM     20  O   UNL     1       2.787   3.588  20.682  0.00  0.00    +0.000 OA
ENDBRANCH   1  20
BRANCH   3  21
ATOM     21  C   UNL     1       5.323   3.887  16.396  0.00  0.00    +0.000 C 
BRANCH  21  22
ATOM     22  C   UNL     1       5.367   4.681  15.084  0.00  0.00    +0.000 C 
BRANCH  22  23
ATOM     23  C   UNL     1       6.509   4.244  14.172  0.00  0.00    +0.000 C 
ATOM     24 CL   UNL     1       5.860   3.481  12.700  0.00  0.00    +0.000 Cl
ENDBRANCH  22  23
ENDBRANCH  21  22
ENDBRANCH   3  21
TORSDOF 5
ENDMDL
MODEL 7
REMARK VINA RESULT:      -7.4      3.782      8.865
REMARK  Name = 
REMARK  6 active torsions:
REMARK  status: ('A' for Active; 'I' for Inactive)
REMARK    1  A    between atoms: C_1  and  O_2
REMARK    2  A    between atoms: O_2  and  C_3
REMARK    3  A    between atoms: C_5  and  C_6
REMARK    4  A    between atoms: C_6  and  C_7
REMARK    5  A    between atoms: C_7  and  C_8
REMARK    6  A    between atoms: C_13  and  C_14
REMARK                            x       y       z     vdW  Elec       q    Type
REMARK                         _______ _______ _______ _____ _____    ______ ____
ROOT
ATOM      1  C   UNL     1       0.892  10.345  19.604  0.00  0.00    +0.000 A 
ATOM      2  C   UNL     1       0.176  10.770  20.737  0.00  0.00    +0.000 A 
ATOM      3  C   UNL     1      -0.017   9.942  21.858  0.00  0.00    +0.000 A 
ATOM      4  C   UNL     1       0.485   8.631  21.850  0.00  0.00    +0.000 A 
ATOM      5  C   UNL     1       1.191   8.175  20.726  0.00  0.00    +0.000 A 
ATOM      6  C   UNL     1       1.829   6.959  20.384  0.00  0.00    +0.000 A 
ATOM      7  C   UNL     1       2.384   7.131  19.132  0.00  0.00    +0.000 A 
ATOM      8  O   UNL     1       2.100   8.392  18.675  0.00  0.00    +0.000 OA
ATOM      9  C   UNL     1       1.376   9.030  19.648  0.00  0.00    +0.000 A 
ENDROOT
BRANCH   7  10
ATOM     10  C   UNL     1       3.197   6.272  18.273  0.00  0.00    +0.000 A 
ATOM     11  C   UNL     1       3.014   4.871  18.235  0.00  0.00    +0.000 A 
ATOM     12  C   UNL     1       3.766   4.059  17.373  0.00  0.00    +0.000 A 
ATOM     13  C   UNL     1       4.698   4.672  16.564  0.00  0.00    +0.000 A 
ATOM     14  C   UNL     1       4.897   6.029  16.601  0.00  0.00    +0.000 A 
ATOM     15  C   UNL     1       4.171   6.849  17.438  0.00  0.00    +0.000 A 
ATOM     16  O   UNL     1       5.858   6.440  15.730  0.00  0.00    +0.000 OA
ATOM     17  C   UNL     1       6.251   5.179  15.150  0.00  0.00    +0.000 C 
ATOM     18  O   UNL     1       5.503   4.055  15.659  0.00  0.00    +0.000 OA
ENDBRANCH   7  10
BRANCH   1  20
ATOM     19  C   UNL     1       1.909  12.263  18.669  0.00  0.00    +0.000 C 
ATOM     20  O   UNL     1       1.103  11.105  18.485  0.00  0.00    +0.000 OA
ENDBRANCH   1  20
BRANCH   3  21
ATOM     21  C   UNL     1      -0.770  10.455  23.062  0.00  0.00    +0.000 C 
BRANCH  21  22
ATOM     22  C   UNL     1      -1.215  11.918  22.940  0.00  0.00    +0.000 C 
BRANCH  22  23
ATOM     23  C   UNL     1      -2.697  12.109  23.245  0.00  0.00    +0.000 C 
ATOM     24 CL   UNL     1      -3.562  12.633  21.780  0.00  0.00    +0.000 Cl
ENDBRANCH  22  23
ENDBRANCH  21  22
ENDBRANCH   3  21
TORSDOF 5
ENDMDL
MODEL 8
REMARK VINA RESULT:      -7.3      2.126      2.771
REMARK  Name = 
REMARK  6 active torsions:
REMARK  status: ('A' for Active; 'I' for Inactive)
REMARK    1  A    between atoms: C_1  and  O_2
REMARK    2  A    between atoms: O_2  and  C_3
REMARK    3  A    between atoms: C_5  and  C_6
REMARK    4  A    between atoms: C_6  and  C_7
REMARK    5  A    between atoms: C_7  and  C_8
REMARK    6  A    between atoms: C_13  and  C_14
REMARK                            x       y       z     vdW  Elec       q    Type
REMARK                         _______ _______ _______ _____ _____    ______ ____
ROOT
ATOM      1  C   UNL     1       3.226   5.117  19.614  0.00  0.00    +0.000 A 
ATOM      2  C   UNL     1       4.094   4.393  18.776  0.00  0.00    +0.000 A 
ATOM      3  C   UNL     1       4.571   4.915  17.560  0.00  0.00    +0.000 A 
ATOM      4  C   UNL     1       4.153   6.186  17.135  0.00  0.00    +0.000 A 
ATOM      5  C   UNL     1       3.277   6.924  17.945  0.00  0.00    +0.000 A 
ATOM      6  C   UNL     1       2.675   8.201  17.845  0.00  0.00    +0.000 A 
ATOM      7  C   UNL     1       1.923   8.385  18.988  0.00  0.00    +0.000 A 
ATOM      8  O   UNL     1       2.014   7.271  19.780  0.00  0.00    +0.000 OA
ATOM      9  C   UNL     1       2.843   6.381  19.146  0.00  0.00    +0.000 A 
ENDROOT
BRANCH   7  10
ATOM     10  C   UNL     1       1.119   9.500  19.486  0.00  0.00    +0.000 A 
ATOM     11  C   UNL     1       0.563   9.495  20.785  0.00  0.00    +0.000 A 
ATOM     12  C   UNL     1      -0.168  10.589  21.271  0.00  0.00    +0.000 A 
ATOM     13  C   UNL     1      -0.333  11.673  20.436  0.00  0.00    +0.000 A 
ATOM     14  C   UNL     1       0.189  11.686  19.168  0.00  0.00    +0.000 A 
ATOM     15  C   UNL     1       0.911  10.624  18.666  0.00  0.00    +0.000 A 
ATOM     16  O   UNL     1      -0.082  12.842  18.503  0.00  0.00    +0.000 OA
ATOM     17  C   UNL     1      -0.848  13.551  19.499  0.00  0.00    +0.000 C 
ATOM     18  O   UNL     1      -0.992  12.823  20.737  0.00  0.00    +0.000 OA
ENDBRANCH   7  10
BRANCH   1  20
ATOM     19  C   UNL     1       2.391   3.273  20.834  0.00  0.00    +0.000 C 
ATOM     20  O   UNL     1       2.726   4.655  20.802  0.00  0.00    +0.000 OA
ENDBRANCH   1  20
BRANCH   3  21
ATOM     21  C   UNL     1       5.523   4.109  16.708  0.00  0.00    +0.000 C 
BRANCH  21  22
ATOM     22  C   UNL     1       6.922   4.724  16.587  0.00  0.00    +0.000 C 
BRANCH  22  23
ATOM     23  C   UNL     1       7.670   4.748  17.916  0.00  0.00    +0.000 C 
ATOM     24 CL   UNL     1       7.770   6.416  18.533  0.00  0.00    +0.000 Cl
ENDBRANCH  22  23
ENDBRANCH  21  22
ENDBRANCH   3  21
TORSDOF 5
ENDMDL
MODEL 9
REMARK VINA RESULT:      -7.3      1.554      2.611
REMARK  Name = 
REMARK  6 active torsions:
REMARK  status: ('A' for Active; 'I' for Inactive)
REMARK    1  A    between atoms: C_1  and  O_2
REMARK    2  A    between atoms: O_2  and  C_3
REMARK    3  A    between atoms: C_5  and  C_6
REMARK    4  A    between atoms: C_6  and  C_7
REMARK    5  A    between atoms: C_7  and  C_8
REMARK    6  A    between atoms: C_13  and  C_14
REMARK                            x       y       z     vdW  Elec       q    Type
REMARK                         _______ _______ _______ _____ _____    ______ ____
ROOT
ATOM      1  C   UNL     1       2.682   5.155  20.182  0.00  0.00    +0.000 A 
ATOM      2  C   UNL     1       3.498   4.669  19.145  0.00  0.00    +0.000 A 
ATOM      3  C   UNL     1       3.843   5.453  18.030  0.00  0.00    +0.000 A 
ATOM      4  C   UNL     1       3.338   6.758  17.913  0.00  0.00    +0.000 A 
ATOM      5  C   UNL     1       2.510   7.265  18.926  0.00  0.00    +0.000 A 
ATOM      6  C   UNL     1       1.852   8.499  19.143  0.00  0.00    +0.000 A 
ATOM      7  C   UNL     1       1.199   8.403  20.355  0.00  0.00    +0.000 A 
ATOM      8  O   UNL     1       1.406   7.157  20.889  0.00  0.00    +0.000 OA
ATOM      9  C   UNL     1       2.208   6.464  20.020  0.00  0.00    +0.000 A 
ENDROOT
BRANCH   7  10
ATOM     10  C   UNL     1       0.400   9.345  21.137  0.00  0.00    +0.000 A 
ATOM     11  C   UNL     1       0.188   9.170  22.523  0.00  0.00    +0.000 A 
ATOM     12  C   UNL     1      -0.542  10.103  23.274  0.00  0.00    +0.000 A 
ATOM     13  C   UNL     1      -1.052  11.200  22.614  0.00  0.00    +0.000 A 
ATOM     14  C   UNL     1      -0.867  11.375  21.266  0.00  0.00    +0.000 A 
ATOM     15  C   UNL     1      -0.154  10.473  20.506  0.00  0.00    +0.000 A 
ATOM     16  O   UNL     1      -1.447  12.515  20.803  0.00  0.00    +0.000 OA
ATOM     17  C   UNL     1      -2.032  13.031  22.017  0.00  0.00    +0.000 C 
ATOM     18  O   UNL     1      -1.766  12.212  23.175  0.00  0.00    +0.000 OA
ENDBRANCH   7  10
BRANCH   1  20
ATOM     19  C   UNL     1       1.386   3.379  21.047  0.00  0.00    +0.000 C 
ATOM     20  O   UNL     1       2.310   4.433  21.285  0.00  0.00    +0.000 OA
ENDBRANCH   1  20
BRANCH   3  21
ATOM     21  C   UNL     1       4.745   4.894  16.955  0.00  0.00    +0.000 C 
BRANCH  21  22
ATOM     22  C   UNL     1       5.195   5.931  15.919  0.00  0.00    +0.000 C 
BRANCH  22  23
ATOM     23  C   UNL     1       6.113   5.339  14.855  0.00  0.00    +0.000 C 
ATOM     24 CL   UNL     1       6.171   3.566  15.013  0.00  0.00    +0.000 Cl
ENDBRANCH  22  23
ENDBRANCH  21  22
ENDBRANCH   3  21
TORSDOF 5
ENDMDL
