MODEL 1
REMARK VINA RESULT:      -8.2      0.000      0.000
REMARK  Name = 
REMARK  8 active torsions:
REMARK  status: ('A' for Active; 'I' for Inactive)
REMARK    1  A    between atoms: C_1  and  O_2
REMARK    2  A    between atoms: O_2  and  C_3
REMARK    3  A    between atoms: C_8  and  O_9
REMARK    4  A    between atoms: O_9  and  C_10
REMARK    5  A    between atoms: N_14  and  C_15
REMARK    6  A    between atoms: C_21  and  O_22
REMARK    7  A    between atoms: O_22  and  C_23
REMARK    8  A    between atoms: C_23  and  C_24
REMARK                            x       y       z     vdW  Elec       q    Type
REMARK                         _______ _______ _______ _____ _____    ______ ____
ROOT
ATOM      1  C   UNL     1       4.133   4.329  18.999  0.00  0.00    +0.000 A 
ATOM      2  C   UNL     1       5.531   4.370  19.103  0.00  0.00    +0.000 A 
ATOM      3  C   UNL     1       6.263   5.388  18.492  0.00  0.00    +0.000 A 
ATOM      4  C   UNL     1       5.603   6.377  17.755  0.00  0.00    +0.000 A 
ATOM      5  C   UNL     1       4.206   6.328  17.633  0.00  0.00    +0.000 A 
ATOM      6  C   UNL     1       3.457   5.321  18.264  0.00  0.00    +0.000 A 
ATOM      7  C   UNL     1       6.421   7.450  17.071  0.00  0.00    +0.000 C 
ATOM      8  N   UNL     1       7.578   7.871  17.862  0.00  0.00    +0.000 N 
ATOM      9  C   UNL     1       8.060   9.158  17.772  0.00  0.00    +0.000 C 
ATOM     10  N   UNL     1       9.011   9.658  18.491  0.00  0.00    +0.000 NA
ATOM     11  C   UNL     1       8.150   6.947  18.850  0.00  0.00    +0.000 C 
ATOM     12  C   UNL     1       7.759   5.488  18.600  0.00  0.00    +0.000 C 
ENDROOT
BRANCH  10  13
ATOM     13  C   UNL     1       9.406  10.993  18.293  0.00  0.00    +0.000 A 
ATOM     14  C   UNL     1      10.607  11.223  17.620  0.00  0.00    +0.000 A 
ATOM     15  C   UNL     1      11.089  12.520  17.427  0.00  0.00    +0.000 A 
ATOM     16  C   UNL     1      10.369  13.622  17.900  0.00  0.00    +0.000 A 
ATOM     17  C   UNL     1       9.167  13.412  18.601  0.00  0.00    +0.000 A 
ATOM     18  C   UNL     1       8.705  12.096  18.794  0.00  0.00    +0.000 A 
ATOM     19  C   UNL     1       8.341  14.563  19.140  0.00  0.00    +0.000 C 
ATOM     20  C   UNL     1       9.146  15.865  19.224  0.00  0.00    +0.000 C 
ATOM     21  C   UNL     1       9.915  16.111  17.928  0.00  0.00    +0.000 C 
ATOM     22  C   UNL     1      10.944  15.007  17.714  0.00  0.00    +0.000 C 
BRANCH  19  23
ATOM     23  O   UNL     1       7.231  14.759  18.235  0.00  0.00    +0.000 OA
BRANCH  23  24
ATOM     24  C   UNL     1       6.015  14.989  18.795  0.00  0.00    +0.000 C 
ATOM     25  C   UNL     1       4.953  15.108  17.743  0.00  0.00    +0.000 C 
ATOM     26  O   UNL     1       5.784  15.047  19.990  0.00  0.00    +0.000 OA
ENDBRANCH  23  24
ENDBRANCH  19  23
ENDBRANCH  10  13
BRANCH   1  28
ATOM     27  C   UNL     1       4.407   2.204  20.054  0.00  0.00    +0.000 C 
ATOM     28  O   UNL     1       3.574   3.310  19.730  0.00  0.00    +0.000 OA
ENDBRANCH   1  28
BRANCH   6  29
ATOM     29  O   UNL     1       2.089   5.271  18.231  0.00  0.00    +0.000 OA
ATOM     30  C   UNL     1       1.464   4.137  17.649  0.00  0.00    +0.000 C 
ENDBRANCH   6  29
TORSDOF 5
ENDMDL
MODEL 2
REMARK VINA RESULT:      -7.9      1.798      2.012
REMARK  Name = 
REMARK  8 active torsions:
REMARK  status: ('A' for Active; 'I' for Inactive)
REMARK    1  A    between atoms: C_1  and  O_2
REMARK    2  A    between atoms: O_2  and  C_3
REMARK    3  A    between atoms: C_8  and  O_9
REMARK    4  A    between atoms: O_9  and  C_10
REMARK    5  A    between atoms: N_14  and  C_15
REMARK    6  A    between atoms: C_21  and  O_22
REMARK    7  A    between atoms: O_22  and  C_23
REMARK    8  A    between atoms: C_23  and  C_24
REMARK                            x       y       z     vdW  Elec       q    Type
REMARK                         _______ _______ _______ _____ _____    ______ ____
ROOT
ATOM      1  C   UNL     1       3.995   4.054  18.530  0.00  0.00    +0.000 A 
ATOM      2  C   UNL     1       5.395   4.034  18.598  0.00  0.00    +0.000 A 
ATOM      3  C   UNL     1       6.147   5.126  18.163  0.00  0.00    +0.000 A 
ATOM      4  C   UNL     1       5.504   6.253  17.640  0.00  0.00    +0.000 A 
ATOM      5  C   UNL     1       4.103   6.267  17.553  0.00  0.00    +0.000 A 
ATOM      6  C   UNL     1       3.336   5.184  18.011  0.00  0.00    +0.000 A 
ATOM      7  C   UNL     1       6.340   7.409  17.140  0.00  0.00    +0.000 C 
ATOM      8  N   UNL     1       7.530   7.643  17.960  0.00  0.00    +0.000 N 
ATOM      9  C   UNL     1       8.053   8.910  18.093  0.00  0.00    +0.000 C 
ATOM     10  N   UNL     1       9.039   9.241  18.862  0.00  0.00    +0.000 NA
ATOM     11  C   UNL     1       8.094   6.537  18.744  0.00  0.00    +0.000 C 
ATOM     12  C   UNL     1       7.648   5.161  18.242  0.00  0.00    +0.000 C 
ENDROOT
BRANCH  10  13
ATOM     13  C   UNL     1       9.473  10.578  18.901  0.00  0.00    +0.000 A 
ATOM     14  C   UNL     1      10.098  11.091  17.763  0.00  0.00    +0.000 A 
ATOM     15  C   UNL     1      10.600  12.395  17.741  0.00  0.00    +0.000 A 
ATOM     16  C   UNL     1      10.478  13.220  18.864  0.00  0.00    +0.000 A 
ATOM     17  C   UNL     1       9.872  12.715  20.029  0.00  0.00    +0.000 A 
ATOM     18  C   UNL     1       9.384  11.395  20.034  0.00  0.00    +0.000 A 
ATOM     19  C   UNL     1       9.712  13.558  21.280  0.00  0.00    +0.000 C 
ATOM     20  C   UNL     1      10.631  14.785  21.274  0.00  0.00    +0.000 C 
ATOM     21  C   UNL     1      10.557  15.512  19.934  0.00  0.00    +0.000 C 
ATOM     22  C   UNL     1      11.074  14.608  18.820  0.00  0.00    +0.000 C 
BRANCH  19  23
ATOM     23  O   UNL     1       8.338  14.005  21.324  0.00  0.00    +0.000 OA
BRANCH  23  24
ATOM     24  C   UNL     1       7.667  13.816  22.491  0.00  0.00    +0.000 C 
ATOM     25  C   UNL     1       8.365  12.807  23.354  0.00  0.00    +0.000 C 
ATOM     26  O   UNL     1       6.659  14.408  22.833  0.00  0.00    +0.000 OA
ENDBRANCH  23  24
ENDBRANCH  19  23
ENDBRANCH  10  13
BRANCH   1  28
ATOM     27  C   UNL     1       3.827   1.671  18.567  0.00  0.00    +0.000 C 
ATOM     28  O   UNL     1       3.420   2.934  19.078  0.00  0.00    +0.000 OA
ENDBRANCH   1  28
BRANCH   6  29
ATOM     29  O   UNL     1       1.967   5.180  18.010  0.00  0.00    +0.000 OA
ATOM     30  C   UNL     1       1.289   4.090  17.402  0.00  0.00    +0.000 C 
ENDBRANCH   6  29
TORSDOF 5
ENDMDL
MODEL 3
REMARK VINA RESULT:      -7.9      6.471     10.927
REMARK  Name = 
REMARK  8 active torsions:
REMARK  status: ('A' for Active; 'I' for Inactive)
REMARK    1  A    between atoms: C_1  and  O_2
REMARK    2  A    between atoms: O_2  and  C_3
REMARK    3  A    between atoms: C_8  and  O_9
REMARK    4  A    between atoms: O_9  and  C_10
REMARK    5  A    between atoms: N_14  and  C_15
REMARK    6  A    between atoms: C_21  and  O_22
REMARK    7  A    between atoms: O_22  and  C_23
REMARK    8  A    between atoms: C_23  and  C_24
REMARK                            x       y       z     vdW  Elec       q    Type
REMARK                         _______ _______ _______ _____ _____    ______ ____
ROOT
ATOM      1  C   UNL     1      -3.308  13.015  21.751  0.00  0.00    +0.000 A 
ATOM      2  C   UNL     1      -2.582  13.186  20.564  0.00  0.00    +0.000 A 
ATOM      3  C   UNL     1      -1.372  12.520  20.364  0.00  0.00    +0.000 A 
ATOM      4  C   UNL     1      -0.865  11.679  21.361  0.00  0.00    +0.000 A 
ATOM      5  C   UNL     1      -1.581  11.522  22.559  0.00  0.00    +0.000 A 
ATOM      6  C   UNL     1      -2.811  12.168  22.759  0.00  0.00    +0.000 A 
ATOM      7  C   UNL     1       0.466  10.997  21.138  0.00  0.00    +0.000 C 
ATOM      8  N   UNL     1       0.661  10.575  19.751  0.00  0.00    +0.000 N 
ATOM      9  C   UNL     1       1.422   9.466  19.454  0.00  0.00    +0.000 C 
ATOM     10  N   UNL     1       1.581   8.955  18.277  0.00  0.00    +0.000 NA
ATOM     11  C   UNL     1      -0.065  11.268  18.678  0.00  0.00    +0.000 C 
ATOM     12  C   UNL     1      -0.574  12.650  19.098  0.00  0.00    +0.000 C 
ENDROOT
BRANCH  10  13
ATOM     13  C   UNL     1       2.390   7.816  18.116  0.00  0.00    +0.000 A 
ATOM     14  C   UNL     1       3.542   7.942  17.336  0.00  0.00    +0.000 A 
ATOM     15  C   UNL     1       4.371   6.845  17.091  0.00  0.00    +0.000 A 
ATOM     16  C   UNL     1       4.065   5.590  17.630  0.00  0.00    +0.000 A 
ATOM     17  C   UNL     1       2.897   5.436  18.400  0.00  0.00    +0.000 A 
ATOM     18  C   UNL     1       2.070   6.553  18.626  0.00  0.00    +0.000 A 
ATOM     19  C   UNL     1       2.509   4.104  19.010  0.00  0.00    +0.000 C 
ATOM     20  C   UNL     1       3.247   2.930  18.357  0.00  0.00    +0.000 C 
ATOM     21  C   UNL     1       4.739   3.227  18.234  0.00  0.00    +0.000 C 
ATOM     22  C   UNL     1       4.959   4.417  17.305  0.00  0.00    +0.000 C 
BRANCH  19  23
ATOM     23  O   UNL     1       2.861   4.153  20.411  0.00  0.00    +0.000 OA
BRANCH  23  24
ATOM     24  C   UNL     1       2.566   3.057  21.159  0.00  0.00    +0.000 C 
ATOM     25  C   UNL     1       1.085   2.834  21.224  0.00  0.00    +0.000 C 
ATOM     26  O   UNL     1       3.380   2.313  21.676  0.00  0.00    +0.000 OA
ENDBRANCH  23  24
ENDBRANCH  19  23
ENDBRANCH  10  13
BRANCH   1  28
ATOM     27  C   UNL     1      -5.396  13.408  20.660  0.00  0.00    +0.000 C 
ATOM     28  O   UNL     1      -4.510  13.678  21.739  0.00  0.00    +0.000 OA
ENDBRANCH   1  28
BRANCH   6  29
ATOM     29  O   UNL     1      -3.577  11.992  23.880  0.00  0.00    +0.000 OA
ATOM     30  C   UNL     1      -3.779  13.098  24.748  0.00  0.00    +0.000 C 
ENDBRANCH   6  29
TORSDOF 5
ENDMDL
MODEL 4
REMARK VINA RESULT:      -7.7      6.348     11.007
REMARK  Name = 
REMARK  8 active torsions:
REMARK  status: ('A' for Active; 'I' for Inactive)
REMARK    1  A    between atoms: C_1  and  O_2
REMARK    2  A    between atoms: O_2  and  C_3
REMARK    3  A    between atoms: C_8  and  O_9
REMARK    4  A    between atoms: O_9  and  C_10
REMARK    5  A    between atoms: N_14  and  C_15
REMARK    6  A    between atoms: C_21  and  O_22
REMARK    7  A    between atoms: O_22  and  C_23
REMARK    8  A    between atoms: C_23  and  C_24
REMARK                            x       y       z     vdW  Elec       q    Type
REMARK                         _______ _______ _______ _____ _____    ______ ____
ROOT
ATOM      1  C   UNL     1      -1.558  14.035  23.092  0.00  0.00    +0.000 A 
ATOM      2  C   UNL     1      -1.512  12.697  23.508  0.00  0.00    +0.000 A 
ATOM      3  C   UNL     1      -1.263  11.673  22.594  0.00  0.00    +0.000 A 
ATOM      4  C   UNL     1      -1.068  11.976  21.242  0.00  0.00    +0.000 A 
ATOM      5  C   UNL     1      -1.133  13.313  20.820  0.00  0.00    +0.000 A 
ATOM      6  C   UNL     1      -1.358  14.353  21.737  0.00  0.00    +0.000 A 
ATOM      7  C   UNL     1      -0.836  10.847  20.263  0.00  0.00    +0.000 C 
ATOM      8  N   UNL     1      -0.025   9.767  20.826  0.00  0.00    +0.000 N 
ATOM      9  C   UNL     1       0.793   9.009  20.019  0.00  0.00    +0.000 C 
ATOM     10  N   UNL     1       1.617   8.097  20.424  0.00  0.00    +0.000 NA
ATOM     11  C   UNL     1       0.007   9.574  22.282  0.00  0.00    +0.000 C 
ATOM     12  C   UNL     1      -1.178  10.227  22.998  0.00  0.00    +0.000 C 
ENDROOT
BRANCH  10  13
ATOM     13  C   UNL     1       2.396   7.396  19.487  0.00  0.00    +0.000 A 
ATOM     14  C   UNL     1       2.974   8.126  18.447  0.00  0.00    +0.000 A 
ATOM     15  C   UNL     1       3.722   7.494  17.450  0.00  0.00    +0.000 A 
ATOM     16  C   UNL     1       3.913   6.108  17.479  0.00  0.00    +0.000 A 
ATOM     17  C   UNL     1       3.320   5.351  18.505  0.00  0.00    +0.000 A 
ATOM     18  C   UNL     1       2.561   6.006  19.493  0.00  0.00    +0.000 A 
ATOM     19  C   UNL     1       3.487   3.846  18.591  0.00  0.00    +0.000 C 
ATOM     20  C   UNL     1       3.965   3.239  17.267  0.00  0.00    +0.000 C 
ATOM     21  C   UNL     1       5.136   4.035  16.697  0.00  0.00    +0.000 C 
ATOM     22  C   UNL     1       4.688   5.454  16.359  0.00  0.00    +0.000 C 
BRANCH  19  23
ATOM     23  O   UNL     1       4.478   3.581  19.610  0.00  0.00    +0.000 OA
BRANCH  23  24
ATOM     24  C   UNL     1       4.242   2.529  20.438  0.00  0.00    +0.000 C 
ATOM     25  C   UNL     1       2.838   2.563  20.963  0.00  0.00    +0.000 C 
ATOM     26  O   UNL     1       5.034   1.639  20.696  0.00  0.00    +0.000 OA
ENDBRANCH  23  24
ENDBRANCH  19  23
ENDBRANCH  10  13
BRANCH   1  28
ATOM     27  C   UNL     1      -3.059  15.310  24.444  0.00  0.00    +0.000 C 
ATOM     28  O   UNL     1      -1.730  14.911  24.136  0.00  0.00    +0.000 OA
ENDBRANCH   1  28
BRANCH   6  29
ATOM     29  O   UNL     1      -1.362  15.676  21.384  0.00  0.00    +0.000 OA
ATOM     30  C   UNL     1      -1.332  16.013  20.004  0.00  0.00    +0.000 C 
ENDBRANCH   6  29
TORSDOF 5
ENDMDL
MODEL 5
REMARK VINA RESULT:      -7.6      5.165      9.538
REMARK  Name = 
REMARK  8 active torsions:
REMARK  status: ('A' for Active; 'I' for Inactive)
REMARK    1  A    between atoms: C_1  and  O_2
REMARK    2  A    between atoms: O_2  and  C_3
REMARK    3  A    between atoms: C_8  and  O_9
REMARK    4  A    between atoms: O_9  and  C_10
REMARK    5  A    between atoms: N_14  and  C_15
REMARK    6  A    between atoms: C_21  and  O_22
REMARK    7  A    between atoms: O_22  and  C_23
REMARK    8  A    between atoms: C_23  and  C_24
REMARK                            x       y       z     vdW  Elec       q    Type
REMARK                         _______ _______ _______ _____ _____    ______ ____
ROOT
ATOM      1  C   UNL     1      -0.540  13.027  22.326  0.00  0.00    +0.000 A 
ATOM      2  C   UNL     1      -0.597  11.683  22.720  0.00  0.00    +0.000 A 
ATOM      3  C   UNL     1      -0.365  10.659  21.802  0.00  0.00    +0.000 A 
ATOM      4  C   UNL     1      -0.083  10.968  20.467  0.00  0.00    +0.000 A 
ATOM      5  C   UNL     1      -0.044  12.313  20.065  0.00  0.00    +0.000 A 
ATOM      6  C   UNL     1      -0.252  13.351  20.987  0.00  0.00    +0.000 A 
ATOM      7  C   UNL     1       0.129   9.841  19.482  0.00  0.00    +0.000 C 
ATOM      8  N   UNL     1       0.843   8.705  20.066  0.00  0.00    +0.000 N 
ATOM      9  C   UNL     1       1.654   7.909  19.288  0.00  0.00    +0.000 C 
ATOM     10  N   UNL     1       2.399   6.943  19.718  0.00  0.00    +0.000 NA
ATOM     11  C   UNL     1       0.790   8.490  21.518  0.00  0.00    +0.000 C 
ATOM     12  C   UNL     1      -0.388   9.205  22.185  0.00  0.00    +0.000 C 
ENDROOT
BRANCH  10  13
ATOM     13  C   UNL     1       3.180   6.208  18.808  0.00  0.00    +0.000 A 
ATOM     14  C   UNL     1       2.532   5.265  18.009  0.00  0.00    +0.000 A 
ATOM     15  C   UNL     1       3.247   4.463  17.116  0.00  0.00    +0.000 A 
ATOM     16  C   UNL     1       4.635   4.595  16.999  0.00  0.00    +0.000 A 
ATOM     17  C   UNL     1       5.311   5.524  17.812  0.00  0.00    +0.000 A 
ATOM     18  C   UNL     1       4.573   6.314  18.713  0.00  0.00    +0.000 A 
ATOM     19  C   UNL     1       6.813   5.714  17.734  0.00  0.00    +0.000 C 
ATOM     20  C   UNL     1       7.511   4.537  17.042  0.00  0.00    +0.000 C 
ATOM     21  C   UNL     1       6.792   4.165  15.748  0.00  0.00    +0.000 C 
ATOM     22  C   UNL     1       5.380   3.679  16.056  0.00  0.00    +0.000 C 
BRANCH  19  23
ATOM     23  O   UNL     1       7.056   6.915  16.969  0.00  0.00    +0.000 OA
BRANCH  23  24
ATOM     24  C   UNL     1       7.696   7.931  17.606  0.00  0.00    +0.000 C 
ATOM     25  C   UNL     1       8.390   7.439  18.841  0.00  0.00    +0.000 C 
ATOM     26  O   UNL     1       7.752   9.086  17.220  0.00  0.00    +0.000 OA
ENDBRANCH  23  24
ENDBRANCH  19  23
ENDBRANCH  10  13
BRANCH   1  28
ATOM     27  C   UNL     1      -2.043  14.169  23.790  0.00  0.00    +0.000 C 
ATOM     28  O   UNL     1      -0.711  13.897  23.374  0.00  0.00    +0.000 OA
ENDBRANCH   1  28
BRANCH   6  29
ATOM     29  O   UNL     1      -0.157  14.677  20.657  0.00  0.00    +0.000 OA
ATOM     30  C   UNL     1       0.645  15.046  19.545  0.00  0.00    +0.000 C 
ENDBRANCH   6  29
TORSDOF 5
ENDMDL
MODEL 6
REMARK VINA RESULT:      -7.6      2.042      9.707
REMARK  Name = 
REMARK  8 active torsions:
REMARK  status: ('A' for Active; 'I' for Inactive)
REMARK    1  A    between atoms: C_1  and  O_2
REMARK    2  A    between atoms: O_2  and  C_3
REMARK    3  A    between atoms: C_8  and  O_9
REMARK    4  A    between atoms: O_9  and  C_10
REMARK    5  A    between atoms: N_14  and  C_15
REMARK    6  A    between atoms: C_21  and  O_22
REMARK    7  A    between atoms: O_22  and  C_23
REMARK    8  A    between atoms: C_23  and  C_24
REMARK                            x       y       z     vdW  Elec       q    Type
REMARK                         _______ _______ _______ _____ _____    ______ ____
ROOT
ATOM      1  C   UNL     1       9.921  14.391  20.288  0.00  0.00    +0.000 A 
ATOM      2  C   UNL     1      10.278  13.695  19.124  0.00  0.00    +0.000 A 
ATOM      3  C   UNL     1      10.057  12.322  19.017  0.00  0.00    +0.000 A 
ATOM      4  C   UNL     1       9.484  11.621  20.084  0.00  0.00    +0.000 A 
ATOM      5  C   UNL     1       9.143  12.312  21.258  0.00  0.00    +0.000 A 
ATOM      6  C   UNL     1       9.339  13.699  21.366  0.00  0.00    +0.000 A 
ATOM      7  C   UNL     1       9.288  10.127  19.959  0.00  0.00    +0.000 C 
ATOM      8  N   UNL     1       8.898   9.717  18.610  0.00  0.00    +0.000 N 
ATOM      9  C   UNL     1       8.105   8.609  18.413  0.00  0.00    +0.000 C 
ATOM     10  N   UNL     1       7.628   8.216  17.277  0.00  0.00    +0.000 NA
ATOM     11  C   UNL     1       9.256  10.569  17.467  0.00  0.00    +0.000 C 
ATOM     12  C   UNL     1      10.397  11.540  17.780  0.00  0.00    +0.000 C 
ENDROOT
BRANCH  10  13
ATOM     13  C   UNL     1       6.828   7.061  17.220  0.00  0.00    +0.000 A 
ATOM     14  C   UNL     1       7.342   5.947  16.554  0.00  0.00    +0.000 A 
ATOM     15  C   UNL     1       6.589   4.778  16.413  0.00  0.00    +0.000 A 
ATOM     16  C   UNL     1       5.298   4.699  16.948  0.00  0.00    +0.000 A 
ATOM     17  C   UNL     1       4.753   5.817  17.604  0.00  0.00    +0.000 A 
ATOM     18  C   UNL     1       5.525   6.988  17.725  0.00  0.00    +0.000 A 
ATOM     19  C   UNL     1       3.360   5.795  18.204  0.00  0.00    +0.000 C 
ATOM     20  C   UNL     1       2.509   4.647  17.650  0.00  0.00    +0.000 C 
ATOM     21  C   UNL     1       3.290   3.336  17.665  0.00  0.00    +0.000 C 
ATOM     22  C   UNL     1       4.496   3.436  16.737  0.00  0.00    +0.000 C 
BRANCH  19  23
ATOM     23  O   UNL     1       3.508   5.620  19.631  0.00  0.00    +0.000 OA
BRANCH  23  24
ATOM     24  C   UNL     1       2.387   5.757  20.387  0.00  0.00    +0.000 C 
ATOM     25  C   UNL     1       2.109   4.507  21.167  0.00  0.00    +0.000 C 
ATOM     26  O   UNL     1       1.710   6.766  20.473  0.00  0.00    +0.000 OA
ENDBRANCH  23  24
ENDBRANCH  19  23
ENDBRANCH  10  13
BRANCH   1  28
ATOM     27  C   UNL     1       9.195  16.497  19.427  0.00  0.00    +0.000 C 
ATOM     28  O   UNL     1      10.132  15.744  20.185  0.00  0.00    +0.000 OA
ENDBRANCH   1  28
BRANCH   6  29
ATOM     29  O   UNL     1       8.960  14.426  22.463  0.00  0.00    +0.000 OA
ATOM     30  C   UNL     1       7.604  14.370  22.882  0.00  0.00    +0.000 C 
ENDBRANCH   6  29
TORSDOF 5
ENDMDL
MODEL 7
REMARK VINA RESULT:      -7.5      6.505     11.105
REMARK  Name = 
REMARK  8 active torsions:
REMARK  status: ('A' for Active; 'I' for Inactive)
REMARK    1  A    between atoms: C_1  and  O_2
REMARK    2  A    between atoms: O_2  and  C_3
REMARK    3  A    between atoms: C_8  and  O_9
REMARK    4  A    between atoms: O_9  and  C_10
REMARK    5  A    between atoms: N_14  and  C_15
REMARK    6  A    between atoms: C_21  and  O_22
REMARK    7  A    between atoms: O_22  and  C_23
REMARK    8  A    between atoms: C_23  and  C_24
REMARK                            x       y       z     vdW  Elec       q    Type
REMARK                         _______ _______ _______ _____ _____    ______ ____
ROOT
ATOM      1  C   UNL     1      -3.142  13.847  21.657  0.00  0.00    +0.000 A 
ATOM      2  C   UNL     1      -2.003  13.785  20.841  0.00  0.00    +0.000 A 
ATOM      3  C   UNL     1      -1.035  12.800  21.040  0.00  0.00    +0.000 A 
ATOM      4  C   UNL     1      -1.190  11.867  22.071  0.00  0.00    +0.000 A 
ATOM      5  C   UNL     1      -2.320  11.939  22.901  0.00  0.00    +0.000 A 
ATOM      6  C   UNL     1      -3.312  12.911  22.693  0.00  0.00    +0.000 A 
ATOM      7  C   UNL     1      -0.110  10.831  22.291  0.00  0.00    +0.000 C 
ATOM      8  N   UNL     1       0.475  10.349  21.040  0.00  0.00    +0.000 N 
ATOM      9  C   UNL     1       0.964   9.065  20.941  0.00  0.00    +0.000 C 
ATOM     10  N   UNL     1       1.414   8.510  19.864  0.00  0.00    +0.000 NA
ATOM     11  C   UNL     1       0.426  11.202  19.845  0.00  0.00    +0.000 C 
ATOM     12  C   UNL     1       0.188  12.678  20.174  0.00  0.00    +0.000 C 
ENDROOT
BRANCH  10  13
ATOM     13  C   UNL     1       1.886   7.186  19.907  0.00  0.00    +0.000 A 
ATOM     14  C   UNL     1       1.275   6.307  20.802  0.00  0.00    +0.000 A 
ATOM     15  C   UNL     1       1.719   4.989  20.937  0.00  0.00    +0.000 A 
ATOM     16  C   UNL     1       2.788   4.519  20.166  0.00  0.00    +0.000 A 
ATOM     17  C   UNL     1       3.433   5.395  19.274  0.00  0.00    +0.000 A 
ATOM     18  C   UNL     1       2.977   6.722  19.162  0.00  0.00    +0.000 A 
ATOM     19  C   UNL     1       4.597   4.948  18.412  0.00  0.00    +0.000 C 
ATOM     20  C   UNL     1       5.234   3.651  18.926  0.00  0.00    +0.000 C 
ATOM     21  C   UNL     1       4.164   2.609  19.240  0.00  0.00    +0.000 C 
ATOM     22  C   UNL     1       3.270   3.102  20.373  0.00  0.00    +0.000 C 
BRANCH  19  23
ATOM     23  O   UNL     1       4.085   4.720  17.080  0.00  0.00    +0.000 OA
BRANCH  23  24
ATOM     24  C   UNL     1       4.912   5.017  16.044  0.00  0.00    +0.000 C 
ATOM     25  C   UNL     1       5.171   6.493  15.969  0.00  0.00    +0.000 C 
ATOM     26  O   UNL     1       5.426   4.208  15.292  0.00  0.00    +0.000 OA
ENDBRANCH  23  24
ENDBRANCH  19  23
ENDBRANCH  10  13
BRANCH   1  28
ATOM     27  C   UNL     1      -5.120  14.428  20.451  0.00  0.00    +0.000 C 
ATOM     28  O   UNL     1      -4.024  14.824  21.265  0.00  0.00    +0.000 OA
ENDBRANCH   1  28
BRANCH   6  29
ATOM     29  O   UNL     1      -4.463  12.978  23.432  0.00  0.00    +0.000 OA
ATOM     30  C   UNL     1      -4.468  12.417  24.737  0.00  0.00    +0.000 C 
ENDBRANCH   6  29
TORSDOF 5
ENDMDL
MODEL 8
REMARK VINA RESULT:      -7.4      5.907     10.980
REMARK  Name = 
REMARK  8 active torsions:
REMARK  status: ('A' for Active; 'I' for Inactive)
REMARK    1  A    between atoms: C_1  and  O_2
REMARK    2  A    between atoms: O_2  and  C_3
REMARK    3  A    between atoms: C_8  and  O_9
REMARK    4  A    between atoms: O_9  and  C_10
REMARK    5  A    between atoms: N_14  and  C_15
REMARK    6  A    between atoms: C_21  and  O_22
REMARK    7  A    between atoms: O_22  and  C_23
REMARK    8  A    between atoms: C_23  and  C_24
REMARK                            x       y       z     vdW  Elec       q    Type
REMARK                         _______ _______ _______ _____ _____    ______ ____
ROOT
ATOM      1  C   UNL     1      -1.712  14.353  21.872  0.00  0.00    +0.000 A 
ATOM      2  C   UNL     1      -2.117  13.583  20.772  0.00  0.00    +0.000 A 
ATOM      3  C   UNL     1      -1.183  12.888  20.004  0.00  0.00    +0.000 A 
ATOM      4  C   UNL     1       0.178  12.964  20.321  0.00  0.00    +0.000 A 
ATOM      5  C   UNL     1       0.588  13.749  21.411  0.00  0.00    +0.000 A 
ATOM      6  C   UNL     1      -0.347  14.432  22.205  0.00  0.00    +0.000 A 
ATOM      7  C   UNL     1       1.176  12.232  19.453  0.00  0.00    +0.000 C 
ATOM      8  N   UNL     1       0.675  10.941  18.979  0.00  0.00    +0.000 N 
ATOM      9  C   UNL     1       1.540   9.896  18.739  0.00  0.00    +0.000 C 
ATOM     10  N   UNL     1       1.196   8.694  18.411  0.00  0.00    +0.000 NA
ATOM     11  C   UNL     1      -0.774  10.724  18.878  0.00  0.00    +0.000 C 
ATOM     12  C   UNL     1      -1.572  12.030  18.833  0.00  0.00    +0.000 C 
ENDROOT
BRANCH  10  13
ATOM     13  C   UNL     1       2.188   7.721  18.195  0.00  0.00    +0.000 A 
ATOM     14  C   UNL     1       3.325   8.100  17.479  0.00  0.00    +0.000 A 
ATOM     15  C   UNL     1       4.332   7.177  17.182  0.00  0.00    +0.000 A 
ATOM     16  C   UNL     1       4.223   5.848  17.607  0.00  0.00    +0.000 A 
ATOM     17  C   UNL     1       3.075   5.440  18.310  0.00  0.00    +0.000 A 
ATOM     18  C   UNL     1       2.067   6.383  18.588  0.00  0.00    +0.000 A 
ATOM     19  C   UNL     1       2.896   4.015  18.795  0.00  0.00    +0.000 C 
ATOM     20  C   UNL     1       3.838   3.037  18.082  0.00  0.00    +0.000 C 
ATOM     21  C   UNL     1       5.262   3.584  18.048  0.00  0.00    +0.000 C 
ATOM     22  C   UNL     1       5.309   4.869  17.228  0.00  0.00    +0.000 C 
BRANCH  19  23
ATOM     23  O   UNL     1       3.193   4.001  20.209  0.00  0.00    +0.000 OA
BRANCH  23  24
ATOM     24  C   UNL     1       2.326   3.332  21.013  0.00  0.00    +0.000 C 
ATOM     25  C   UNL     1       0.951   3.302  20.414  0.00  0.00    +0.000 C 
ATOM     26  O   UNL     1       2.612   2.781  22.062  0.00  0.00    +0.000 OA
ENDBRANCH  23  24
ENDBRANCH  19  23
ENDBRANCH  10  13
BRANCH   1  28
ATOM     27  C   UNL     1      -3.170  16.215  22.209  0.00  0.00    +0.000 C 
ATOM     28  O   UNL     1      -2.769  14.896  22.559  0.00  0.00    +0.000 OA
ENDBRANCH   1  28
BRANCH   6  29
ATOM     29  O   UNL     1      -0.002  15.154  23.317  0.00  0.00    +0.000 OA
ATOM     30  C   UNL     1       0.433  16.495  23.150  0.00  0.00    +0.000 C 
ENDBRANCH   6  29
TORSDOF 5
ENDMDL
MODEL 9
REMARK VINA RESULT:      -7.4      6.351     10.282
REMARK  Name = 
REMARK  8 active torsions:
REMARK  status: ('A' for Active; 'I' for Inactive)
REMARK    1  A    between atoms: C_1  and  O_2
REMARK    2  A    between atoms: O_2  and  C_3
REMARK    3  A    between atoms: C_8  and  O_9
REMARK    4  A    between atoms: O_9  and  C_10
REMARK    5  A    between atoms: N_14  and  C_15
REMARK    6  A    between atoms: C_21  and  O_22
REMARK    7  A    between atoms: O_22  and  C_23
REMARK    8  A    between atoms: C_23  and  C_24
REMARK                            x       y       z     vdW  Elec       q    Type
REMARK                         _______ _______ _______ _____ _____    ______ ____
ROOT
ATOM      1  C   UNL     1      -3.859  12.617  20.164  0.00  0.00    +0.000 A 
ATOM      2  C   UNL     1      -3.444  12.154  18.907  0.00  0.00    +0.000 A 
ATOM      3  C   UNL     1      -2.134  11.722  18.703  0.00  0.00    +0.000 A 
ATOM      4  C   UNL     1      -1.214  11.758  19.756  0.00  0.00    +0.000 A 
ATOM      5  C   UNL     1      -1.622  12.239  21.010  0.00  0.00    +0.000 A 
ATOM      6  C   UNL     1      -2.945  12.653  21.233  0.00  0.00    +0.000 A 
ATOM      7  C   UNL     1       0.211  11.318  19.502  0.00  0.00    +0.000 C 
ATOM      8  N   UNL     1       0.298  10.183  18.582  0.00  0.00    +0.000 N 
ATOM      9  C   UNL     1       1.324   9.271  18.687  0.00  0.00    +0.000 C 
ATOM     10  N   UNL     1       1.443   8.188  17.991  0.00  0.00    +0.000 NA
ATOM     11  C   UNL     1      -0.788   9.950  17.621  0.00  0.00    +0.000 C 
ATOM     12  C   UNL     1      -1.651  11.192  17.381  0.00  0.00    +0.000 C 
ENDROOT
BRANCH  10  13
ATOM     13  C   UNL     1       2.547   7.343  18.202  0.00  0.00    +0.000 A 
ATOM     14  C   UNL     1       2.577   6.596  19.381  0.00  0.00    +0.000 A 
ATOM     15  C   UNL     1       3.663   5.770  19.684  0.00  0.00    +0.000 A 
ATOM     16  C   UNL     1       4.745   5.668  18.802  0.00  0.00    +0.000 A 
ATOM     17  C   UNL     1       4.745   6.430  17.619  0.00  0.00    +0.000 A 
ATOM     18  C   UNL     1       3.646   7.265  17.338  0.00  0.00    +0.000 A 
ATOM     19  C   UNL     1       5.887   6.367  16.625  0.00  0.00    +0.000 C 
ATOM     20  C   UNL     1       7.157   5.766  17.237  0.00  0.00    +0.000 C 
ATOM     21  C   UNL     1       6.836   4.486  18.006  0.00  0.00    +0.000 C 
ATOM     22  C   UNL     1       5.921   4.801  19.185  0.00  0.00    +0.000 C 
BRANCH  19  23
ATOM     23  O   UNL     1       5.457   5.528  15.528  0.00  0.00    +0.000 OA
BRANCH  23  24
ATOM     24  C   UNL     1       6.420   5.090  14.675  0.00  0.00    +0.000 C 
ATOM     25  C   UNL     1       5.952   3.890  13.907  0.00  0.00    +0.000 C 
ATOM     26  O   UNL     1       7.508   5.612  14.505  0.00  0.00    +0.000 OA
ENDBRANCH  23  24
ENDBRANCH  19  23
ENDBRANCH  10  13
BRANCH   1  28
ATOM     27  C   UNL     1      -5.561  14.292  20.104  0.00  0.00    +0.000 C 
ATOM     28  O   UNL     1      -5.198  12.921  20.203  0.00  0.00    +0.000 OA
ENDBRANCH   1  28
BRANCH   6  29
ATOM     29  O   UNL     1      -3.407  13.065  22.454  0.00  0.00    +0.000 OA
ATOM     30  C   UNL     1      -2.898  14.272  23.003  0.00  0.00    +0.000 C 
ENDBRANCH   6  29
TORSDOF 5
ENDMDL
