MODEL 1
REMARK VINA RESULT:      -6.3      0.000      0.000
REMARK  Name = 
REMARK  6 active torsions:
REMARK  status: ('A' for Active; 'I' for Inactive)
REMARK    1  A    between atoms: N_1  and  C_2
REMARK    2  A    between atoms: C_2  and  C_3
REMARK    3  A    between atoms: C_5  and  C_6
REMARK    4  A    between atoms: C_13  and  O_14
REMARK    5  A    between atoms: O_14  and  C_15
REMARK    6  A    between atoms: C_15  and  C_16
REMARK                            x       y       z     vdW  Elec       q    Type
REMARK                         _______ _______ _______ _____ _____    ______ ____
ROOT
ATOM      1  C   UNL     1       3.859   5.582  17.940  0.00  0.00    +0.000 A 
ATOM      2  C   UNL     1       3.193   6.831  17.883  0.00  0.00    +0.000 A 
ATOM      3  C   UNL     1       2.360   7.276  18.906  0.00  0.00    +0.000 A 
ATOM      4  F   UNL     1       1.750   8.463  18.790  0.00  0.00    +0.000 F 
ATOM      5  C   UNL     1       2.168   6.497  20.031  0.00  0.00    +0.000 A 
ATOM      6  F   UNL     1       1.366   6.912  21.016  0.00  0.00    +0.000 F 
ATOM      7  C   UNL     1       2.821   5.276  20.136  0.00  0.00    +0.000 A 
ATOM      8  C   UNL     1       3.681   4.822  19.119  0.00  0.00    +0.000 A 
ENDROOT
BRANCH   1  11
ATOM      9  C   UNL     1       6.208   5.528  16.801  0.00  0.00    +0.000 C 
ATOM     10  C   UNL     1       5.321   6.213  15.801  0.00  0.00    +0.000 C 
ATOM     11  C   UNL     1       4.715   5.206  16.745  0.00  0.00    +0.000 C 
BRANCH   9  12
ATOM     12  C   UNL     1       7.195   4.469  16.430  0.00  0.00    +0.000 C 
BRANCH  12  13
ATOM     13  N   UNL     1       8.031   4.159  17.576  0.00  0.00    +0.000 NA
ATOM     14  H   UNL     1       8.551   4.995  17.842  0.00  0.00    +0.000 HD
ATOM     15  H   UNL     1       8.729   3.467  17.314  0.00  0.00    +0.000 HD
ENDBRANCH  12  13
ENDBRANCH   9  12
ENDBRANCH   1  11
BRANCH   8  16
ATOM     16  O   UNL     1       4.228   3.602  19.420  0.00  0.00    +0.000 OA
BRANCH  16  17
ATOM     17  C   UNL     1       3.363   2.469  19.453  0.00  0.00    +0.000 C 
BRANCH  17  18
ATOM     18  C   UNL     1       3.410   1.759  18.108  0.00  0.00    +0.000 C 
ATOM     19  F   UNL     1       2.436   2.267  17.305  0.00  0.00    +0.000 F 
ENDBRANCH  17  18
ENDBRANCH  16  17
ENDBRANCH   8  16
TORSDOF 6
ENDMDL
MODEL 2
REMARK VINA RESULT:      -6.2      2.950      4.033
REMARK  Name = 
REMARK  6 active torsions:
REMARK  status: ('A' for Active; 'I' for Inactive)
REMARK    1  A    between atoms: N_1  and  C_2
REMARK    2  A    between atoms: C_2  and  C_3
REMARK    3  A    between atoms: C_5  and  C_6
REMARK    4  A    between atoms: C_13  and  O_14
REMARK    5  A    between atoms: O_14  and  C_15
REMARK    6  A    between atoms: C_15  and  C_16
REMARK                            x       y       z     vdW  Elec       q    Type
REMARK                         _______ _______ _______ _____ _____    ______ ____
ROOT
ATOM      1  C   UNL     1       4.772   4.255  17.031  0.00  0.00    +0.000 A 
ATOM      2  C   UNL     1       3.404   3.896  16.949  0.00  0.00    +0.000 A 
ATOM      3  C   UNL     1       2.706   3.378  18.036  0.00  0.00    +0.000 A 
ATOM      4  F   UNL     1       1.416   3.047  17.893  0.00  0.00    +0.000 F 
ATOM      5  C   UNL     1       3.343   3.209  19.251  0.00  0.00    +0.000 A 
ATOM      6  F   UNL     1       2.684   2.706  20.299  0.00  0.00    +0.000 F 
ATOM      7  C   UNL     1       4.677   3.571  19.379  0.00  0.00    +0.000 A 
ATOM      8  C   UNL     1       5.391   4.114  18.295  0.00  0.00    +0.000 A 
ENDROOT
BRANCH   1  11
ATOM      9  C   UNL     1       5.971   3.767  14.763  0.00  0.00    +0.000 C 
ATOM     10  C   UNL     1       6.900   4.700  15.485  0.00  0.00    +0.000 C 
ATOM     11  C   UNL     1       5.421   4.782  15.763  0.00  0.00    +0.000 C 
BRANCH   9  12
ATOM     12  C   UNL     1       5.627   3.913  13.315  0.00  0.00    +0.000 C 
BRANCH  12  13
ATOM     13  N   UNL     1       6.390   2.955  12.535  0.00  0.00    +0.000 NA
ATOM     14  H   UNL     1       6.357   2.048  12.999  0.00  0.00    +0.000 HD
ATOM     15  H   UNL     1       7.370   3.227  12.520  0.00  0.00    +0.000 HD
ENDBRANCH  12  13
ENDBRANCH   9  12
ENDBRANCH   1  11
BRANCH   8  16
ATOM     16  O   UNL     1       6.686   4.408  18.631  0.00  0.00    +0.000 OA
BRANCH  16  17
ATOM     17  C   UNL     1       6.939   5.628  19.325  0.00  0.00    +0.000 C 
BRANCH  17  18
ATOM     18  C   UNL     1       7.758   6.553  18.438  0.00  0.00    +0.000 C 
ATOM     19  F   UNL     1       6.914   7.299  17.676  0.00  0.00    +0.000 F 
ENDBRANCH  17  18
ENDBRANCH  16  17
ENDBRANCH   8  16
TORSDOF 6
ENDMDL
MODEL 3
REMARK VINA RESULT:      -6.0      3.084      5.329
REMARK  Name = 
REMARK  6 active torsions:
REMARK  status: ('A' for Active; 'I' for Inactive)
REMARK    1  A    between atoms: N_1  and  C_2
REMARK    2  A    between atoms: C_2  and  C_3
REMARK    3  A    between atoms: C_5  and  C_6
REMARK    4  A    between atoms: C_13  and  O_14
REMARK    5  A    between atoms: O_14  and  C_15
REMARK    6  A    between atoms: C_15  and  C_16
REMARK                            x       y       z     vdW  Elec       q    Type
REMARK                         _______ _______ _______ _____ _____    ______ ____
ROOT
ATOM      1  C   UNL     1       3.885   4.354  17.328  0.00  0.00    +0.000 A 
ATOM      2  C   UNL     1       5.205   3.965  16.993  0.00  0.00    +0.000 A 
ATOM      3  C   UNL     1       6.241   4.886  16.868  0.00  0.00    +0.000 A 
ATOM      4  F   UNL     1       7.467   4.457  16.539  0.00  0.00    +0.000 F 
ATOM      5  C   UNL     1       6.004   6.229  17.085  0.00  0.00    +0.000 A 
ATOM      6  F   UNL     1       6.990   7.123  16.962  0.00  0.00    +0.000 F 
ATOM      7  C   UNL     1       4.728   6.649  17.439  0.00  0.00    +0.000 A 
ATOM      8  C   UNL     1       3.675   5.728  17.587  0.00  0.00    +0.000 A 
ENDROOT
BRANCH   1  11
ATOM      9  C   UNL     1       2.361   2.813  18.786  0.00  0.00    +0.000 C 
ATOM     10  C   UNL     1       3.131   1.864  17.914  0.00  0.00    +0.000 C 
ATOM     11  C   UNL     1       2.843   3.252  17.404  0.00  0.00    +0.000 C 
BRANCH   9  12
ATOM     12  C   UNL     1       0.893   2.687  19.038  0.00  0.00    +0.000 C 
BRANCH  12  13
ATOM     13  N   UNL     1       0.547   3.383  20.264  0.00  0.00    +0.000 NA
ATOM     14  H   UNL     1       1.300   3.257  20.940  0.00  0.00    +0.000 HD
ATOM     15  H   UNL     1      -0.278   2.957  20.680  0.00  0.00    +0.000 HD
ENDBRANCH  12  13
ENDBRANCH   9  12
ENDBRANCH   1  11
BRANCH   8  16
ATOM     16  O   UNL     1       2.504   6.344  17.945  0.00  0.00    +0.000 OA
BRANCH  16  17
ATOM     17  C   UNL     1       2.512   7.185  19.096  0.00  0.00    +0.000 C 
BRANCH  17  18
ATOM     18  C   UNL     1       1.858   8.515  18.755  0.00  0.00    +0.000 C 
ATOM     19  F   UNL     1       1.914   8.705  17.409  0.00  0.00    +0.000 F 
ENDBRANCH  17  18
ENDBRANCH  16  17
ENDBRANCH   8  16
TORSDOF 6
ENDMDL
MODEL 4
REMARK VINA RESULT:      -6.0      2.877      3.693
REMARK  Name = 
REMARK  6 active torsions:
REMARK  status: ('A' for Active; 'I' for Inactive)
REMARK    1  A    between atoms: N_1  and  C_2
REMARK    2  A    between atoms: C_2  and  C_3
REMARK    3  A    between atoms: C_5  and  C_6
REMARK    4  A    between atoms: C_13  and  O_14
REMARK    5  A    between atoms: O_14  and  C_15
REMARK    6  A    between atoms: C_15  and  C_16
REMARK                            x       y       z     vdW  Elec       q    Type
REMARK                         _______ _______ _______ _____ _____    ______ ____
ROOT
ATOM      1  C   UNL     1       3.883   3.969  17.378  0.00  0.00    +0.000 A 
ATOM      2  C   UNL     1       2.522   3.575  17.367  0.00  0.00    +0.000 A 
ATOM      3  C   UNL     1       1.916   2.967  18.463  0.00  0.00    +0.000 A 
ATOM      4  F   UNL     1       0.628   2.609  18.389  0.00  0.00    +0.000 F 
ATOM      5  C   UNL     1       2.641   2.739  19.617  0.00  0.00    +0.000 A 
ATOM      6  F   UNL     1       2.072   2.150  20.673  0.00  0.00    +0.000 F 
ATOM      7  C   UNL     1       3.973   3.131  19.677  0.00  0.00    +0.000 A 
ATOM      8  C   UNL     1       4.593   3.764  18.584  0.00  0.00    +0.000 A 
ENDROOT
BRANCH   1  11
ATOM      9  C   UNL     1       5.930   4.507  15.848  0.00  0.00    +0.000 C 
ATOM     10  C   UNL     1       5.277   5.839  16.086  0.00  0.00    +0.000 C 
ATOM     11  C   UNL     1       4.426   4.595  16.107  0.00  0.00    +0.000 C 
BRANCH   9  12
ATOM     12  C   UNL     1       6.412   4.060  14.506  0.00  0.00    +0.000 C 
BRANCH  12  13
ATOM     13  N   UNL     1       7.241   5.096  13.916  0.00  0.00    +0.000 NA
ATOM     14  H   UNL     1       6.923   6.005  14.250  0.00  0.00    +0.000 HD
ATOM     15  H   UNL     1       7.111   5.106  12.907  0.00  0.00    +0.000 HD
ENDBRANCH  12  13
ENDBRANCH   9  12
ENDBRANCH   1  11
BRANCH   8  16
ATOM     16  O   UNL     1       5.902   4.074  18.848  0.00  0.00    +0.000 OA
BRANCH  16  17
ATOM     17  C   UNL     1       6.188   5.352  19.411  0.00  0.00    +0.000 C 
BRANCH  17  18
ATOM     18  C   UNL     1       7.622   5.738  19.086  0.00  0.00    +0.000 C 
ATOM     19  F   UNL     1       8.164   4.790  18.274  0.00  0.00    +0.000 F 
ENDBRANCH  17  18
ENDBRANCH  16  17
ENDBRANCH   8  16
TORSDOF 6
ENDMDL
MODEL 5
REMARK VINA RESULT:      -6.0      2.655      3.594
REMARK  Name = 
REMARK  6 active torsions:
REMARK  status: ('A' for Active; 'I' for Inactive)
REMARK    1  A    between atoms: N_1  and  C_2
REMARK    2  A    between atoms: C_2  and  C_3
REMARK    3  A    between atoms: C_5  and  C_6
REMARK    4  A    between atoms: C_13  and  O_14
REMARK    5  A    between atoms: O_14  and  C_15
REMARK    6  A    between atoms: C_15  and  C_16
REMARK                            x       y       z     vdW  Elec       q    Type
REMARK                         _______ _______ _______ _____ _____    ______ ____
ROOT
ATOM      1  C   UNL     1       4.375   3.798  17.393  0.00  0.00    +0.000 A 
ATOM      2  C   UNL     1       2.989   3.630  17.152  0.00  0.00    +0.000 A 
ATOM      3  C   UNL     1       2.050   3.637  18.179  0.00  0.00    +0.000 A 
ATOM      4  F   UNL     1       0.754   3.464  17.888  0.00  0.00    +0.000 F 
ATOM      5  C   UNL     1       2.456   3.822  19.487  0.00  0.00    +0.000 A 
ATOM      6  F   UNL     1       1.564   3.824  20.482  0.00  0.00    +0.000 F 
ATOM      7  C   UNL     1       3.803   4.013  19.764  0.00  0.00    +0.000 A 
ATOM      8  C   UNL     1       4.762   4.029  18.734  0.00  0.00    +0.000 A 
ENDROOT
BRANCH   1  11
ATOM      9  C   UNL     1       5.989   5.032  15.753  0.00  0.00    +0.000 C 
ATOM     10  C   UNL     1       4.971   4.382  14.861  0.00  0.00    +0.000 C 
ATOM     11  C   UNL     1       5.294   3.742  16.187  0.00  0.00    +0.000 C 
BRANCH   9  12
ATOM     12  C   UNL     1       7.457   5.008  15.474  0.00  0.00    +0.000 C 
BRANCH  12  13
ATOM     13  N   UNL     1       7.704   5.487  14.125  0.00  0.00    +0.000 NA
ATOM     14  H   UNL     1       8.539   5.031  13.759  0.00  0.00    +0.000 HD
ATOM     15  H   UNL     1       7.914   6.482  14.147  0.00  0.00    +0.000 HD
ENDBRANCH  12  13
ENDBRANCH   9  12
ENDBRANCH   1  11
BRANCH   8  16
ATOM     16  O   UNL     1       6.028   4.237  19.217  0.00  0.00    +0.000 OA
BRANCH  16  17
ATOM     17  C   UNL     1       6.485   5.581  19.344  0.00  0.00    +0.000 C 
BRANCH  17  18
ATOM     18  C   UNL     1       7.981   5.632  19.075  0.00  0.00    +0.000 C 
ATOM     19  F   UNL     1       8.340   6.917  18.808  0.00  0.00    +0.000 F 
ENDBRANCH  17  18
ENDBRANCH  16  17
ENDBRANCH   8  16
TORSDOF 6
ENDMDL
MODEL 6
REMARK VINA RESULT:      -6.0      1.718      3.755
REMARK  Name = 
REMARK  6 active torsions:
REMARK  status: ('A' for Active; 'I' for Inactive)
REMARK    1  A    between atoms: N_1  and  C_2
REMARK    2  A    between atoms: C_2  and  C_3
REMARK    3  A    between atoms: C_5  and  C_6
REMARK    4  A    between atoms: C_13  and  O_14
REMARK    5  A    between atoms: O_14  and  C_15
REMARK    6  A    between atoms: C_15  and  C_16
REMARK                            x       y       z     vdW  Elec       q    Type
REMARK                         _______ _______ _______ _____ _____    ______ ____
ROOT
ATOM      1  C   UNL     1       3.280   4.561  18.256  0.00  0.00    +0.000 A 
ATOM      2  C   UNL     1       2.801   3.228  18.260  0.00  0.00    +0.000 A 
ATOM      3  C   UNL     1       1.982   2.736  19.272  0.00  0.00    +0.000 A 
ATOM      4  F   UNL     1       1.568   1.463  19.226  0.00  0.00    +0.000 F 
ATOM      5  C   UNL     1       1.599   3.559  20.314  0.00  0.00    +0.000 A 
ATOM      6  F   UNL     1       0.817   3.096  21.295  0.00  0.00    +0.000 F 
ATOM      7  C   UNL     1       2.028   4.880  20.335  0.00  0.00    +0.000 A 
ATOM      8  C   UNL     1       2.840   5.397  19.309  0.00  0.00    +0.000 A 
ENDROOT
BRANCH   1  11
ATOM      9  C   UNL     1       5.685   5.093  17.388  0.00  0.00    +0.000 C 
ATOM     10  C   UNL     1       4.874   6.299  17.011  0.00  0.00    +0.000 C 
ATOM     11  C   UNL     1       4.188   4.960  17.108  0.00  0.00    +0.000 C 
BRANCH   9  12
ATOM     12  C   UNL     1       6.659   4.439  16.461  0.00  0.00    +0.000 C 
BRANCH  12  13
ATOM     13  N   UNL     1       7.918   4.222  17.152  0.00  0.00    +0.000 NA
ATOM     14  H   UNL     1       8.520   3.643  16.568  0.00  0.00    +0.000 HD
ATOM     15  H   UNL     1       7.754   3.688  18.003  0.00  0.00    +0.000 HD
ENDBRANCH  12  13
ENDBRANCH   9  12
ENDBRANCH   1  11
BRANCH   8  16
ATOM     16  O   UNL     1       3.146   6.716  19.515  0.00  0.00    +0.000 OA
BRANCH  16  17
ATOM     17  C   UNL     1       2.082   7.665  19.483  0.00  0.00    +0.000 C 
BRANCH  17  18
ATOM     18  C   UNL     1       2.254   8.577  18.279  0.00  0.00    +0.000 C 
ATOM     19  F   UNL     1       1.260   8.325  17.385  0.00  0.00    +0.000 F 
ENDBRANCH  17  18
ENDBRANCH  16  17
ENDBRANCH   8  16
TORSDOF 6
ENDMDL
MODEL 7
REMARK VINA RESULT:      -6.0      3.087      5.186
REMARK  Name = 
REMARK  6 active torsions:
REMARK  status: ('A' for Active; 'I' for Inactive)
REMARK    1  A    between atoms: N_1  and  C_2
REMARK    2  A    between atoms: C_2  and  C_3
REMARK    3  A    between atoms: C_5  and  C_6
REMARK    4  A    between atoms: C_13  and  O_14
REMARK    5  A    between atoms: O_14  and  C_15
REMARK    6  A    between atoms: C_15  and  C_16
REMARK                            x       y       z     vdW  Elec       q    Type
REMARK                         _______ _______ _______ _____ _____    ______ ____
ROOT
ATOM      1  C   UNL     1       4.005   4.336  17.344  0.00  0.00    +0.000 A 
ATOM      2  C   UNL     1       5.341   3.931  17.100  0.00  0.00    +0.000 A 
ATOM      3  C   UNL     1       6.389   4.842  17.011  0.00  0.00    +0.000 A 
ATOM      4  F   UNL     1       7.629   4.397  16.769  0.00  0.00    +0.000 F 
ATOM      5  C   UNL     1       6.148   6.193  17.175  0.00  0.00    +0.000 A 
ATOM      6  F   UNL     1       7.147   7.077  17.085  0.00  0.00    +0.000 F 
ATOM      7  C   UNL     1       4.857   6.630  17.439  0.00  0.00    +0.000 A 
ATOM      8  C   UNL     1       3.790   5.719  17.550  0.00  0.00    +0.000 A 
ENDROOT
BRANCH   1  11
ATOM      9  C   UNL     1       2.376   2.858  18.750  0.00  0.00    +0.000 C 
ATOM     10  C   UNL     1       3.196   1.873  17.967  0.00  0.00    +0.000 C 
ATOM     11  C   UNL     1       2.953   3.244  17.389  0.00  0.00    +0.000 C 
BRANCH   9  12
ATOM     12  C   UNL     1       0.894   2.747  18.906  0.00  0.00    +0.000 C 
BRANCH  12  13
ATOM     13  N   UNL     1       0.520   3.092  20.266  0.00  0.00    +0.000 NA
ATOM     14  H   UNL     1      -0.461   2.853  20.411  0.00  0.00    +0.000 HD
ATOM     15  H   UNL     1       0.586   4.099  20.396  0.00  0.00    +0.000 HD
ENDBRANCH  12  13
ENDBRANCH   9  12
ENDBRANCH   1  11
BRANCH   8  16
ATOM     16  O   UNL     1       2.604   6.352  17.819  0.00  0.00    +0.000 OA
BRANCH  16  17
ATOM     17  C   UNL     1       2.520   7.147  18.999  0.00  0.00    +0.000 C 
BRANCH  17  18
ATOM     18  C   UNL     1       2.248   6.249  20.195  0.00  0.00    +0.000 C 
ATOM     19  F   UNL     1       1.254   6.797  20.945  0.00  0.00    +0.000 F 
ENDBRANCH  17  18
ENDBRANCH  16  17
ENDBRANCH   8  16
TORSDOF 6
ENDMDL
MODEL 8
REMARK VINA RESULT:      -6.0      3.341      5.709
REMARK  Name = 
REMARK  6 active torsions:
REMARK  status: ('A' for Active; 'I' for Inactive)
REMARK    1  A    between atoms: N_1  and  C_2
REMARK    2  A    between atoms: C_2  and  C_3
REMARK    3  A    between atoms: C_5  and  C_6
REMARK    4  A    between atoms: C_13  and  O_14
REMARK    5  A    between atoms: O_14  and  C_15
REMARK    6  A    between atoms: C_15  and  C_16
REMARK                            x       y       z     vdW  Elec       q    Type
REMARK                         _______ _______ _______ _____ _____    ______ ____
ROOT
ATOM      1  C   UNL     1       5.104   4.684  16.444  0.00  0.00    +0.000 A 
ATOM      2  C   UNL     1       5.141   3.836  15.310  0.00  0.00    +0.000 A 
ATOM      3  C   UNL     1       6.052   4.023  14.273  0.00  0.00    +0.000 A 
ATOM      4  F   UNL     1       6.032   3.193  13.222  0.00  0.00    +0.000 F 
ATOM      5  C   UNL     1       6.968   5.055  14.334  0.00  0.00    +0.000 A 
ATOM      6  F   UNL     1       7.842   5.247  13.341  0.00  0.00    +0.000 F 
ATOM      7  C   UNL     1       6.979   5.895  15.439  0.00  0.00    +0.000 A 
ATOM      8  C   UNL     1       6.078   5.708  16.504  0.00  0.00    +0.000 A 
ENDROOT
BRANCH   1  11
ATOM      9  C   UNL     1       4.056   3.012  18.154  0.00  0.00    +0.000 C 
ATOM     10  C   UNL     1       2.909   3.418  17.274  0.00  0.00    +0.000 C 
ATOM     11  C   UNL     1       4.043   4.387  17.488  0.00  0.00    +0.000 C 
BRANCH   9  12
ATOM     12  C   UNL     1       3.955   2.924  19.643  0.00  0.00    +0.000 C 
BRANCH  12  13
ATOM     13  N   UNL     1       4.983   2.032  20.149  0.00  0.00    +0.000 NA
ATOM     14  H   UNL     1       5.040   1.214  19.542  0.00  0.00    +0.000 HD
ATOM     15  H   UNL     1       4.713   1.683  21.066  0.00  0.00    +0.000 HD
ENDBRANCH  12  13
ENDBRANCH   9  12
ENDBRANCH   1  11
BRANCH   8  16
ATOM     16  O   UNL     1       6.259   6.636  17.496  0.00  0.00    +0.000 OA
BRANCH  16  17
ATOM     17  C   UNL     1       7.531   6.695  18.136  0.00  0.00    +0.000 C 
BRANCH  17  18
ATOM     18  C   UNL     1       7.626   5.586  19.173  0.00  0.00    +0.000 C 
ATOM     19  F   UNL     1       6.405   5.405  19.744  0.00  0.00    +0.000 F 
ENDBRANCH  17  18
ENDBRANCH  16  17
ENDBRANCH   8  16
TORSDOF 6
ENDMDL
MODEL 9
REMARK VINA RESULT:      -5.9      3.453      5.152
REMARK  Name = 
REMARK  6 active torsions:
REMARK  status: ('A' for Active; 'I' for Inactive)
REMARK    1  A    between atoms: N_1  and  C_2
REMARK    2  A    between atoms: C_2  and  C_3
REMARK    3  A    between atoms: C_5  and  C_6
REMARK    4  A    between atoms: C_13  and  O_14
REMARK    5  A    between atoms: O_14  and  C_15
REMARK    6  A    between atoms: C_15  and  C_16
REMARK                            x       y       z     vdW  Elec       q    Type
REMARK                         _______ _______ _______ _____ _____    ______ ____
ROOT
ATOM      1  C   UNL     1       5.635   4.765  15.892  0.00  0.00    +0.000 A 
ATOM      2  C   UNL     1       4.606   3.874  16.285  0.00  0.00    +0.000 A 
ATOM      3  C   UNL     1       4.329   3.603  17.622  0.00  0.00    +0.000 A 
ATOM      4  F   UNL     1       3.348   2.744  17.930  0.00  0.00    +0.000 F 
ATOM      5  C   UNL     1       5.060   4.219  18.619  0.00  0.00    +0.000 A 
ATOM      6  F   UNL     1       4.808   3.961  19.906  0.00  0.00    +0.000 F 
ATOM      7  C   UNL     1       6.063   5.116  18.277  0.00  0.00    +0.000 A 
ATOM      8  C   UNL     1       6.342   5.415  16.930  0.00  0.00    +0.000 A 
ENDROOT
BRANCH   1  11
ATOM      9  C   UNL     1       6.306   3.740  13.585  0.00  0.00    +0.000 C 
ATOM     10  C   UNL     1       7.207   4.931  13.744  0.00  0.00    +0.000 C 
ATOM     11  C   UNL     1       5.850   4.950  14.401  0.00  0.00    +0.000 C 
BRANCH   9  12
ATOM     12  C   UNL     1       5.597   3.414  12.311  0.00  0.00    +0.000 C 
BRANCH  12  13
ATOM     13  N   UNL     1       6.036   2.118  11.827  0.00  0.00    +0.000 NA
ATOM     14  H   UNL     1       6.657   2.254  11.030  0.00  0.00    +0.000 HD
ATOM     15  H   UNL     1       5.238   1.595  11.473  0.00  0.00    +0.000 HD
ENDBRANCH  12  13
ENDBRANCH   9  12
ENDBRANCH   1  11
BRANCH   8  16
ATOM     16  O   UNL     1       7.359   6.326  16.809  0.00  0.00    +0.000 OA
BRANCH  16  17
ATOM     17  C   UNL     1       7.803   6.997  17.985  0.00  0.00    +0.000 C 
BRANCH  17  18
ATOM     18  C   UNL     1       7.934   8.485  17.699  0.00  0.00    +0.000 C 
ATOM     19  F   UNL     1       8.735   9.050  18.643  0.00  0.00    +0.000 F 
ENDBRANCH  17  18
ENDBRANCH  16  17
ENDBRANCH   8  16
TORSDOF 6
ENDMDL
