MODEL 1
REMARK VINA RESULT:      -6.9      0.000      0.000
REMARK  Name = 
REMARK  8 active torsions:
REMARK  status: ('A' for Active; 'I' for Inactive)
REMARK    1  A    between atoms: C_1  and  C_2
REMARK    2  A    between atoms: C_5  and  C_6
REMARK    3  A    between atoms: C_6  and  C_7
REMARK    4  A    between atoms: C_7  and  N_8
REMARK    5  A    between atoms: C_9  and  C_11
REMARK    6  A    between atoms: N_16  and  C_17
REMARK    7  A    between atoms: C_17  and  C_18
REMARK    8  A    between atoms: C_17  and  C_19
REMARK                            x       y       z     vdW  Elec       q    Type
REMARK                         _______ _______ _______ _____ _____    ______ ____
ROOT
ATOM      1  C   UNL     1       5.668   5.336  18.910  0.00  0.00    +0.000 C 
ENDROOT
BRANCH   1   6
ATOM      2  C   UNL     1       1.625   2.542  20.182  0.00  0.00    +0.000 C 
ATOM      3  C   UNL     1       3.005   2.976  19.863  0.00  0.00    +0.000 A 
ATOM      4  C   UNL     1       4.148   2.209  19.828  0.00  0.00    +0.000 A 
ATOM      5  N   UNL     1       5.237   2.959  19.522  0.00  0.00    +0.000 NA
ATOM      6  C   UNL     1       4.796   4.184  19.324  0.00  0.00    +0.000 A 
ATOM      7  N   UNL     1       3.422   4.253  19.533  0.00  0.00    +0.000 N 
BRANCH   7   8
ATOM      8  C   UNL     1       2.614   5.462  19.362  0.00  0.00    +0.000 C 
ATOM      9  C   UNL     1       1.843   5.437  18.041  0.00  0.00    +0.000 C 
ATOM     10  C   UNL     1       1.672   5.800  20.523  0.00  0.00    +0.000 C 
ENDBRANCH   7   8
ENDBRANCH   1   6
BRANCH   1  11
ATOM     11  C   UNL     1       6.999   4.840  18.327  0.00  0.00    +0.000 C 
BRANCH  11  12
ATOM     12  N   UNL     1       6.882   4.360  16.957  0.00  0.00    +0.000 N 
ATOM     13  C   UNL     1       7.117   5.198  15.885  0.00  0.00    +0.000 C 
ATOM     14  O   UNL     1       7.547   6.338  16.016  0.00  0.00    +0.000 OA
ATOM     15  H   UNL     1       6.489   3.448  16.804  0.00  0.00    +0.000 HD
BRANCH  13  16
ATOM     16  C   UNL     1       6.821   4.633  14.577  0.00  0.00    +0.000 A 
ATOM     17  C   UNL     1       5.839   3.693  14.143  0.00  0.00    +0.000 A 
ATOM     18  C   UNL     1       6.026   3.522  12.790  0.00  0.00    +0.000 A 
ATOM     19  O   UNL     1       7.048   4.296  12.352  0.00  0.00    +0.000 OA
ATOM     20  C   UNL     1       7.522   4.966  13.432  0.00  0.00    +0.000 A 
ENDBRANCH  13  16
ENDBRANCH  11  12
ENDBRANCH   1  11
TORSDOF 5
ENDMDL
MODEL 2
REMARK VINA RESULT:      -6.6      1.417      1.637
REMARK  Name = 
REMARK  8 active torsions:
REMARK  status: ('A' for Active; 'I' for Inactive)
REMARK    1  A    between atoms: C_1  and  C_2
REMARK    2  A    between atoms: C_5  and  C_6
REMARK    3  A    between atoms: C_6  and  C_7
REMARK    4  A    between atoms: C_7  and  N_8
REMARK    5  A    between atoms: C_9  and  C_11
REMARK    6  A    between atoms: N_16  and  C_17
REMARK    7  A    between atoms: C_17  and  C_18
REMARK    8  A    between atoms: C_17  and  C_19
REMARK                            x       y       z     vdW  Elec       q    Type
REMARK                         _______ _______ _______ _____ _____    ______ ____
ROOT
ATOM      1  C   UNL     1       5.285   4.627  19.147  0.00  0.00    +0.000 C 
ENDROOT
BRANCH   1   6
ATOM      2  C   UNL     1       0.680   2.503  18.928  0.00  0.00    +0.000 C 
ATOM      3  C   UNL     1       2.060   2.931  18.604  0.00  0.00    +0.000 A 
ATOM      4  C   UNL     1       2.785   2.665  17.464  0.00  0.00    +0.000 A 
ATOM      5  N   UNL     1       4.030   3.203  17.534  0.00  0.00    +0.000 NA
ATOM      6  C   UNL     1       4.092   3.839  18.684  0.00  0.00    +0.000 A 
ATOM      7  N   UNL     1       2.903   3.694  19.393  0.00  0.00    +0.000 N 
BRANCH   7   8
ATOM      8  C   UNL     1       2.629   4.307  20.694  0.00  0.00    +0.000 C 
ATOM      9  C   UNL     1       1.681   5.501  20.562  0.00  0.00    +0.000 C 
ATOM     10  C   UNL     1       2.135   3.352  21.786  0.00  0.00    +0.000 C 
ENDBRANCH   7   8
ENDBRANCH   1   6
BRANCH   1  11
ATOM     11  C   UNL     1       5.690   5.680  18.105  0.00  0.00    +0.000 C 
BRANCH  11  12
ATOM     12  N   UNL     1       6.102   5.100  16.834  0.00  0.00    +0.000 N 
ATOM     13  C   UNL     1       5.754   5.688  15.635  0.00  0.00    +0.000 C 
ATOM     14  O   UNL     1       5.194   6.776  15.568  0.00  0.00    +0.000 OA
ATOM     15  H   UNL     1       6.522   4.187  16.842  0.00  0.00    +0.000 HD
BRANCH  13  16
ATOM     16  C   UNL     1       6.101   4.927  14.444  0.00  0.00    +0.000 A 
ATOM     17  C   UNL     1       5.408   3.907  13.728  0.00  0.00    +0.000 A 
ATOM     18  C   UNL     1       6.219   3.542  12.676  0.00  0.00    +0.000 A 
ATOM     19  O   UNL     1       7.361   4.270  12.685  0.00  0.00    +0.000 OA
ATOM     20  C   UNL     1       7.284   5.105  13.750  0.00  0.00    +0.000 A 
ENDBRANCH  13  16
ENDBRANCH  11  12
ENDBRANCH   1  11
TORSDOF 5
ENDMDL
MODEL 3
REMARK VINA RESULT:      -6.6      1.210      2.387
REMARK  Name = 
REMARK  8 active torsions:
REMARK  status: ('A' for Active; 'I' for Inactive)
REMARK    1  A    between atoms: C_1  and  C_2
REMARK    2  A    between atoms: C_5  and  C_6
REMARK    3  A    between atoms: C_6  and  C_7
REMARK    4  A    between atoms: C_7  and  N_8
REMARK    5  A    between atoms: C_9  and  C_11
REMARK    6  A    between atoms: N_16  and  C_17
REMARK    7  A    between atoms: C_17  and  C_18
REMARK    8  A    between atoms: C_17  and  C_19
REMARK                            x       y       z     vdW  Elec       q    Type
REMARK                         _______ _______ _______ _____ _____    ______ ____
ROOT
ATOM      1  C   UNL     1       5.167   5.594  18.494  0.00  0.00    +0.000 C 
ENDROOT
BRANCH   1   6
ATOM      2  C   UNL     1       1.172   3.201  20.514  0.00  0.00    +0.000 C 
ATOM      3  C   UNL     1       2.120   4.247  20.066  0.00  0.00    +0.000 A 
ATOM      4  C   UNL     1       2.020   5.610  20.234  0.00  0.00    +0.000 A 
ATOM      5  N   UNL     1       3.070   6.256  19.665  0.00  0.00    +0.000 NA
ATOM      6  C   UNL     1       3.854   5.321  19.172  0.00  0.00    +0.000 A 
ATOM      7  N   UNL     1       3.308   4.058  19.383  0.00  0.00    +0.000 N 
BRANCH   7   8
ATOM      8  C   UNL     1       3.944   2.799  18.989  0.00  0.00    +0.000 C 
ATOM      9  C   UNL     1       4.482   2.041  20.205  0.00  0.00    +0.000 C 
ATOM     10  C   UNL     1       3.095   1.871  18.114  0.00  0.00    +0.000 C 
ENDBRANCH   7   8
ENDBRANCH   1   6
BRANCH   1  11
ATOM     11  C   UNL     1       4.963   6.380  17.190  0.00  0.00    +0.000 C 
BRANCH  11  12
ATOM     12  N   UNL     1       5.181   5.576  15.996  0.00  0.00    +0.000 N 
ATOM     13  C   UNL     1       6.441   5.441  15.447  0.00  0.00    +0.000 C 
ATOM     14  O   UNL     1       7.450   5.879  15.988  0.00  0.00    +0.000 OA
ATOM     15  H   UNL     1       4.378   5.238  15.497  0.00  0.00    +0.000 HD
BRANCH  13  16
ATOM     16  C   UNL     1       6.494   4.736  14.175  0.00  0.00    +0.000 A 
ATOM     17  C   UNL     1       5.674   3.710  13.619  0.00  0.00    +0.000 A 
ATOM     18  C   UNL     1       6.197   3.416  12.379  0.00  0.00    +0.000 A 
ATOM     19  O   UNL     1       7.277   4.193  12.125  0.00  0.00    +0.000 OA
ATOM     20  C   UNL     1       7.450   4.989  13.208  0.00  0.00    +0.000 A 
ENDBRANCH  13  16
ENDBRANCH  11  12
ENDBRANCH   1  11
TORSDOF 5
ENDMDL
MODEL 4
REMARK VINA RESULT:      -6.5      1.205      2.137
REMARK  Name = 
REMARK  8 active torsions:
REMARK  status: ('A' for Active; 'I' for Inactive)
REMARK    1  A    between atoms: C_1  and  C_2
REMARK    2  A    between atoms: C_5  and  C_6
REMARK    3  A    between atoms: C_6  and  C_7
REMARK    4  A    between atoms: C_7  and  N_8
REMARK    5  A    between atoms: C_9  and  C_11
REMARK    6  A    between atoms: N_16  and  C_17
REMARK    7  A    between atoms: C_17  and  C_18
REMARK    8  A    between atoms: C_17  and  C_19
REMARK                            x       y       z     vdW  Elec       q    Type
REMARK                         _______ _______ _______ _____ _____    ______ ____
ROOT
ATOM      1  C   UNL     1       5.039   5.456  19.091  0.00  0.00    +0.000 C 
ENDROOT
BRANCH   1   6
ATOM      2  C   UNL     1       1.135   2.229  18.745  0.00  0.00    +0.000 C 
ATOM      3  C   UNL     1       2.109   3.312  18.470  0.00  0.00    +0.000 A 
ATOM      4  C   UNL     1       2.128   4.184  17.405  0.00  0.00    +0.000 A 
ATOM      5  N   UNL     1       3.191   5.026  17.476  0.00  0.00    +0.000 NA
ATOM      6  C   UNL     1       3.823   4.727  18.591  0.00  0.00    +0.000 A 
ATOM      7  N   UNL     1       3.202   3.664  19.241  0.00  0.00    +0.000 N 
BRANCH   7   8
ATOM      8  C   UNL     1       3.632   3.108  20.525  0.00  0.00    +0.000 C 
ATOM      9  C   UNL     1       2.446   2.895  21.468  0.00  0.00    +0.000 C 
ATOM     10  C   UNL     1       4.485   1.837  20.445  0.00  0.00    +0.000 C 
ENDBRANCH   7   8
ENDBRANCH   1   6
BRANCH   1  11
ATOM     11  C   UNL     1       6.328   4.738  18.664  0.00  0.00    +0.000 C 
BRANCH  11  12
ATOM     12  N   UNL     1       6.312   4.312  17.272  0.00  0.00    +0.000 N 
ATOM     13  C   UNL     1       6.841   5.108  16.276  0.00  0.00    +0.000 C 
ATOM     14  O   UNL     1       7.452   6.145  16.509  0.00  0.00    +0.000 OA
ATOM     15  H   UNL     1       5.782   3.493  17.031  0.00  0.00    +0.000 HD
BRANCH  13  16
ATOM     16  C   UNL     1       6.627   4.631  14.917  0.00  0.00    +0.000 A 
ATOM     17  C   UNL     1       5.635   3.776  14.352  0.00  0.00    +0.000 A 
ATOM     18  C   UNL     1       5.928   3.664  13.011  0.00  0.00    +0.000 A 
ATOM     19  O   UNL     1       7.025   4.397  12.704  0.00  0.00    +0.000 OA
ATOM     20  C   UNL     1       7.441   4.980  13.855  0.00  0.00    +0.000 A 
ENDBRANCH  13  16
ENDBRANCH  11  12
ENDBRANCH   1  11
TORSDOF 5
ENDMDL
MODEL 5
REMARK VINA RESULT:      -6.5      0.952      1.418
REMARK  Name = 
REMARK  8 active torsions:
REMARK  status: ('A' for Active; 'I' for Inactive)
REMARK    1  A    between atoms: C_1  and  C_2
REMARK    2  A    between atoms: C_5  and  C_6
REMARK    3  A    between atoms: C_6  and  C_7
REMARK    4  A    between atoms: C_7  and  N_8
REMARK    5  A    between atoms: C_9  and  C_11
REMARK    6  A    between atoms: N_16  and  C_17
REMARK    7  A    between atoms: C_17  and  C_18
REMARK    8  A    between atoms: C_17  and  C_19
REMARK                            x       y       z     vdW  Elec       q    Type
REMARK                         _______ _______ _______ _____ _____    ______ ____
ROOT
ATOM      1  C   UNL     1       5.131   5.071  18.810  0.00  0.00    +0.000 C 
ENDROOT
BRANCH   1   6
ATOM      2  C   UNL     1       0.839   2.362  18.768  0.00  0.00    +0.000 C 
ATOM      3  C   UNL     1       2.264   2.761  18.704  0.00  0.00    +0.000 A 
ATOM      4  C   UNL     1       3.358   1.962  18.461  0.00  0.00    +0.000 A 
ATOM      5  N   UNL     1       4.511   2.677  18.506  0.00  0.00    +0.000 NA
ATOM      6  C   UNL     1       4.161   3.925  18.735  0.00  0.00    +0.000 A 
ATOM      7  N   UNL     1       2.781   4.032  18.877  0.00  0.00    +0.000 N 
BRANCH   7   8
ATOM      8  C   UNL     1       2.062   5.288  19.105  0.00  0.00    +0.000 C 
ATOM      9  C   UNL     1       2.048   5.663  20.588  0.00  0.00    +0.000 C 
ATOM     10  C   UNL     1       2.523   6.479  18.257  0.00  0.00    +0.000 C 
ENDBRANCH   7   8
ENDBRANCH   1   6
BRANCH   1  11
ATOM     11  C   UNL     1       6.527   4.646  18.332  0.00  0.00    +0.000 C 
BRANCH  11  12
ATOM     12  N   UNL     1       6.560   4.260  16.929  0.00  0.00    +0.000 N 
ATOM     13  C   UNL     1       6.971   5.146  15.954  0.00  0.00    +0.000 C 
ATOM     14  O   UNL     1       7.440   6.249  16.215  0.00  0.00    +0.000 OA
ATOM     15  H   UNL     1       6.143   3.384  16.666  0.00  0.00    +0.000 HD
BRANCH  13  16
ATOM     16  C   UNL     1       6.815   4.682  14.583  0.00  0.00    +0.000 A 
ATOM     17  C   UNL     1       7.562   4.945  13.397  0.00  0.00    +0.000 A 
ATOM     18  C   UNL     1       6.954   4.238  12.383  0.00  0.00    +0.000 A 
ATOM     19  O   UNL     1       5.889   3.549  12.860  0.00  0.00    +0.000 OA
ATOM     20  C   UNL     1       5.812   3.817  14.186  0.00  0.00    +0.000 A 
ENDBRANCH  13  16
ENDBRANCH  11  12
ENDBRANCH   1  11
TORSDOF 5
ENDMDL
MODEL 6
REMARK VINA RESULT:      -6.3      4.286      7.436
REMARK  Name = 
REMARK  8 active torsions:
REMARK  status: ('A' for Active; 'I' for Inactive)
REMARK    1  A    between atoms: C_1  and  C_2
REMARK    2  A    between atoms: C_5  and  C_6
REMARK    3  A    between atoms: C_6  and  C_7
REMARK    4  A    between atoms: C_7  and  N_8
REMARK    5  A    between atoms: C_9  and  C_11
REMARK    6  A    between atoms: N_16  and  C_17
REMARK    7  A    between atoms: C_17  and  C_18
REMARK    8  A    between atoms: C_17  and  C_19
REMARK                            x       y       z     vdW  Elec       q    Type
REMARK                         _______ _______ _______ _____ _____    ______ ____
ROOT
ATOM      1  C   UNL     1       2.179   6.297  18.133  0.00  0.00    +0.000 C 
ENDROOT
BRANCH   1   6
ATOM      2  C   UNL     1       4.373   2.177  20.125  0.00  0.00    +0.000 C 
ATOM      3  C   UNL     1       4.147   3.482  19.462  0.00  0.00    +0.000 A 
ATOM      4  C   UNL     1       5.086   4.336  18.929  0.00  0.00    +0.000 A 
ATOM      5  N   UNL     1       4.506   5.455  18.426  0.00  0.00    +0.000 NA
ATOM      6  C   UNL     1       3.209   5.306  18.597  0.00  0.00    +0.000 A 
ATOM      7  N   UNL     1       2.932   4.106  19.245  0.00  0.00    +0.000 N 
BRANCH   7   8
ATOM      8  C   UNL     1       1.586   3.619  19.556  0.00  0.00    +0.000 C 
ATOM      9  C   UNL     1       1.192   2.450  18.651  0.00  0.00    +0.000 C 
ATOM     10  C   UNL     1       1.332   3.266  21.025  0.00  0.00    +0.000 C 
ENDBRANCH   7   8
ENDBRANCH   1   6
BRANCH   1  11
ATOM     11  C   UNL     1       2.527   7.717  18.604  0.00  0.00    +0.000 C 
BRANCH  11  12
ATOM     12  N   UNL     1       1.853   8.095  19.837  0.00  0.00    +0.000 N 
ATOM     13  C   UNL     1       1.056   9.220  19.900  0.00  0.00    +0.000 C 
ATOM     14  O   UNL     1       0.774   9.889  18.912  0.00  0.00    +0.000 OA
ATOM     15  H   UNL     1       2.091   7.601  20.680  0.00  0.00    +0.000 HD
BRANCH  13  16
ATOM     16  C   UNL     1       0.564   9.562  21.226  0.00  0.00    +0.000 A 
ATOM     17  C   UNL     1      -0.591  10.278  21.659  0.00  0.00    +0.000 A 
ATOM     18  C   UNL     1      -0.547  10.303  23.035  0.00  0.00    +0.000 A 
ATOM     19  O   UNL     1       0.548   9.646  23.486  0.00  0.00    +0.000 OA
ATOM     20  C   UNL     1       1.213   9.198  22.392  0.00  0.00    +0.000 A 
ENDBRANCH  13  16
ENDBRANCH  11  12
ENDBRANCH   1  11
TORSDOF 5
ENDMDL
MODEL 7
REMARK VINA RESULT:      -6.3      2.674      4.054
REMARK  Name = 
REMARK  8 active torsions:
REMARK  status: ('A' for Active; 'I' for Inactive)
REMARK    1  A    between atoms: C_1  and  C_2
REMARK    2  A    between atoms: C_5  and  C_6
REMARK    3  A    between atoms: C_6  and  C_7
REMARK    4  A    between atoms: C_7  and  N_8
REMARK    5  A    between atoms: C_9  and  C_11
REMARK    6  A    between atoms: N_16  and  C_17
REMARK    7  A    between atoms: C_17  and  C_18
REMARK    8  A    between atoms: C_17  and  C_19
REMARK                            x       y       z     vdW  Elec       q    Type
REMARK                         _______ _______ _______ _____ _____    ______ ____
ROOT
ATOM      1  C   UNL     1       2.719   3.416  17.597  0.00  0.00    +0.000 C 
ENDROOT
BRANCH   1   6
ATOM      2  C   UNL     1       1.602   7.078  20.929  0.00  0.00    +0.000 C 
ATOM      3  C   UNL     1       2.042   6.352  19.716  0.00  0.00    +0.000 A 
ATOM      4  C   UNL     1       2.555   6.879  18.552  0.00  0.00    +0.000 A 
ATOM      5  N   UNL     1       2.823   5.905  17.644  0.00  0.00    +0.000 NA
ATOM      6  C   UNL     1       2.524   4.765  18.231  0.00  0.00    +0.000 A 
ATOM      7  N   UNL     1       2.026   4.984  19.512  0.00  0.00    +0.000 N 
BRANCH   7   8
ATOM      8  C   UNL     1       1.632   3.926  20.444  0.00  0.00    +0.000 C 
ATOM      9  C   UNL     1       0.587   2.995  19.826  0.00  0.00    +0.000 C 
ATOM     10  C   UNL     1       2.782   3.111  21.047  0.00  0.00    +0.000 C 
ENDBRANCH   7   8
ENDBRANCH   1   6
BRANCH   1  11
ATOM     11  C   UNL     1       4.193   2.987  17.653  0.00  0.00    +0.000 C 
BRANCH  11  12
ATOM     12  N   UNL     1       5.119   4.087  17.428  0.00  0.00    +0.000 N 
ATOM     13  C   UNL     1       5.877   4.605  18.460  0.00  0.00    +0.000 C 
ATOM     14  O   UNL     1       5.907   4.103  19.578  0.00  0.00    +0.000 OA
ATOM     15  H   UNL     1       5.093   4.557  16.540  0.00  0.00    +0.000 HD
BRANCH  13  16
ATOM     16  C   UNL     1       6.648   5.795  18.130  0.00  0.00    +0.000 A 
ATOM     17  C   UNL     1       7.801   6.381  18.732  0.00  0.00    +0.000 A 
ATOM     18  C   UNL     1       8.098   7.509  18.000  0.00  0.00    +0.000 A 
ATOM     19  O   UNL     1       7.216   7.658  16.982  0.00  0.00    +0.000 OA
ATOM     20  C   UNL     1       6.347   6.621  17.063  0.00  0.00    +0.000 A 
ENDBRANCH  13  16
ENDBRANCH  11  12
ENDBRANCH   1  11
TORSDOF 5
ENDMDL
MODEL 8
REMARK VINA RESULT:      -6.2      1.203      1.413
REMARK  Name = 
REMARK  8 active torsions:
REMARK  status: ('A' for Active; 'I' for Inactive)
REMARK    1  A    between atoms: C_1  and  C_2
REMARK    2  A    between atoms: C_5  and  C_6
REMARK    3  A    between atoms: C_6  and  C_7
REMARK    4  A    between atoms: C_7  and  N_8
REMARK    5  A    between atoms: C_9  and  C_11
REMARK    6  A    between atoms: N_16  and  C_17
REMARK    7  A    between atoms: C_17  and  C_18
REMARK    8  A    between atoms: C_17  and  C_19
REMARK                            x       y       z     vdW  Elec       q    Type
REMARK                         _______ _______ _______ _____ _____    ______ ____
ROOT
ATOM      1  C   UNL     1       5.814   4.101  19.276  0.00  0.00    +0.000 C 
ENDROOT
BRANCH   1   6
ATOM      2  C   UNL     1       1.081   4.463  17.478  0.00  0.00    +0.000 C 
ATOM      3  C   UNL     1       2.422   3.954  17.847  0.00  0.00    +0.000 A 
ATOM      4  C   UNL     1       2.951   2.706  17.605  0.00  0.00    +0.000 A 
ATOM      5  N   UNL     1       4.204   2.594  18.115  0.00  0.00    +0.000 NA
ATOM      6  C   UNL     1       4.493   3.765  18.642  0.00  0.00    +0.000 A 
ATOM      7  N   UNL     1       3.420   4.642  18.514  0.00  0.00    +0.000 N 
BRANCH   7   8
ATOM      8  C   UNL     1       3.425   6.035  18.963  0.00  0.00    +0.000 C 
ATOM      9  C   UNL     1       3.519   7.004  17.782  0.00  0.00    +0.000 C 
ATOM     10  C   UNL     1       2.274   6.437  19.892  0.00  0.00    +0.000 C 
ENDBRANCH   7   8
ENDBRANCH   1   6
BRANCH   1  11
ATOM     11  C   UNL     1       6.712   4.878  18.301  0.00  0.00    +0.000 C 
BRANCH  11  12
ATOM     12  N   UNL     1       6.639   4.382  16.934  0.00  0.00    +0.000 N 
ATOM     13  C   UNL     1       6.977   5.186  15.865  0.00  0.00    +0.000 C 
ATOM     14  O   UNL     1       7.465   6.302  16.002  0.00  0.00    +0.000 OA
ATOM     15  H   UNL     1       6.203   3.491  16.774  0.00  0.00    +0.000 HD
BRANCH  13  16
ATOM     16  C   UNL     1       6.717   4.617  14.551  0.00  0.00    +0.000 A 
ATOM     17  C   UNL     1       5.712   3.719  14.082  0.00  0.00    +0.000 A 
ATOM     18  C   UNL     1       5.957   3.518  12.741  0.00  0.00    +0.000 A 
ATOM     19  O   UNL     1       7.035   4.236  12.345  0.00  0.00    +0.000 OA
ATOM     20  C   UNL     1       7.488   4.898  13.437  0.00  0.00    +0.000 A 
ENDBRANCH  13  16
ENDBRANCH  11  12
ENDBRANCH   1  11
TORSDOF 5
ENDMDL
MODEL 9
REMARK VINA RESULT:      -6.2      1.376      2.491
REMARK  Name = 
REMARK  8 active torsions:
REMARK  status: ('A' for Active; 'I' for Inactive)
REMARK    1  A    between atoms: C_1  and  C_2
REMARK    2  A    between atoms: C_5  and  C_6
REMARK    3  A    between atoms: C_6  and  C_7
REMARK    4  A    between atoms: C_7  and  N_8
REMARK    5  A    between atoms: C_9  and  C_11
REMARK    6  A    between atoms: N_16  and  C_17
REMARK    7  A    between atoms: C_17  and  C_18
REMARK    8  A    between atoms: C_17  and  C_19
REMARK                            x       y       z     vdW  Elec       q    Type
REMARK                         _______ _______ _______ _____ _____    ______ ____
ROOT
ATOM      1  C   UNL     1       4.300   5.781  19.492  0.00  0.00    +0.000 C 
ENDROOT
BRANCH   1   6
ATOM      2  C   UNL     1       0.800   2.176  18.771  0.00  0.00    +0.000 C 
ATOM      3  C   UNL     1       1.636   3.389  18.623  0.00  0.00    +0.000 A 
ATOM      4  C   UNL     1       1.544   4.371  17.663  0.00  0.00    +0.000 A 
ATOM      5  N   UNL     1       2.501   5.319  17.831  0.00  0.00    +0.000 NA
ATOM      6  C   UNL     1       3.174   4.974  18.908  0.00  0.00    +0.000 A 
ATOM      7  N   UNL     1       2.688   3.780  19.433  0.00  0.00    +0.000 N 
BRANCH   7   8
ATOM      8  C   UNL     1       3.192   3.138  20.648  0.00  0.00    +0.000 C 
ATOM      9  C   UNL     1       2.049   2.714  21.572  0.00  0.00    +0.000 C 
ATOM     10  C   UNL     1       4.162   1.972  20.429  0.00  0.00    +0.000 C 
ENDBRANCH   7   8
ENDBRANCH   1   6
BRANCH   1  11
ATOM     11  C   UNL     1       5.661   5.257  19.011  0.00  0.00    +0.000 C 
BRANCH  11  12
ATOM     12  N   UNL     1       5.643   4.795  17.630  0.00  0.00    +0.000 N 
ATOM     13  C   UNL     1       6.649   5.139  16.749  0.00  0.00    +0.000 C 
ATOM     14  O   UNL     1       7.660   5.738  17.097  0.00  0.00    +0.000 OA
ATOM     15  H   UNL     1       4.813   4.340  17.292  0.00  0.00    +0.000 HD
BRANCH  13  16
ATOM     16  C   UNL     1       6.431   4.736  15.368  0.00  0.00    +0.000 A 
ATOM     17  C   UNL     1       7.301   4.699  14.237  0.00  0.00    +0.000 A 
ATOM     18  C   UNL     1       6.552   4.234  13.179  0.00  0.00    +0.000 A 
ATOM     19  O   UNL     1       5.284   3.971  13.576  0.00  0.00    +0.000 OA
ATOM     20  C   UNL     1       5.217   4.272  14.896  0.00  0.00    +0.000 A 
ENDBRANCH  13  16
ENDBRANCH  11  12
ENDBRANCH   1  11
TORSDOF 5
ENDMDL
