MODEL 1
REMARK VINA RESULT:      -7.8      0.000      0.000
REMARK  Name = 
REMARK  4 active torsions:
REMARK  status: ('A' for Active; 'I' for Inactive)
REMARK    1  A    between atoms: C_4  and  C_5
REMARK    2  A    between atoms: C_5  and  C_6
REMARK    3  A    between atoms: C_12  and  O_13
REMARK    4  A    between atoms: C_14  and  C_15
REMARK                            x       y       z     vdW  Elec       q    Type
REMARK                         _______ _______ _______ _____ _____    ______ ____
ROOT
ATOM      1  O   UNL     1       3.189   6.501  18.613  0.00  0.00    +0.000 OA
ATOM      2  C   UNL     1       3.757   5.622  17.977  0.00  0.00    +0.000 A 
ATOM      3  N   UNL     1       4.609   5.940  16.942  0.00  0.00    +0.000 N 
ATOM      4  C   UNL     1       5.276   5.030  16.159  0.00  0.00    +0.000 A 
ATOM      5  C   UNL     1       5.094   3.719  16.395  0.00  0.00    +0.000 A 
ATOM      6  C   UNL     1       4.247   3.283  17.482  0.00  0.00    +0.000 A 
ATOM      7  C   UNL     1       3.587   4.159  18.265  0.00  0.00    +0.000 A 
ATOM      8  H   UNL     1       4.702   6.935  16.765  0.00  0.00    +0.000 HD
ENDROOT
BRANCH   7   9
ATOM      9  C   UNL     1       2.745   3.712  19.384  0.00  0.00    +0.000 A 
ATOM     10  C   UNL     1       3.333   3.326  20.596  0.00  0.00    +0.000 A 
ATOM     11  C   UNL     1       2.537   2.884  21.655  0.00  0.00    +0.000 A 
ATOM     12  C   UNL     1       1.152   2.825  21.509  0.00  0.00    +0.000 A 
ATOM     13  C   UNL     1       0.560   3.205  20.306  0.00  0.00    +0.000 A 
ATOM     14  C   UNL     1       1.353   3.647  19.244  0.00  0.00    +0.000 A 
ENDBRANCH   7   9
BRANCH   6  15
ATOM     15  O   UNL     1       4.163   1.917  17.681  0.00  0.00    +0.000 OA
ATOM     16  H   UNL     1       4.057   1.468  16.828  0.00  0.00    +0.000 HD
ENDBRANCH   6  15
BRANCH   4  17
ATOM     17  C   UNL     1       6.144   5.559  15.043  0.00  0.00    +0.000 C 
BRANCH  17  18
ATOM     18  C   UNL     1       6.695   4.487  14.082  0.00  0.00    +0.000 C 
ATOM     19  C   UNL     1       5.608   3.736  13.315  0.00  0.00    +0.000 C 
ATOM     20  C   UNL     1       6.233   3.334  11.988  0.00  0.00    +0.000 C 
ATOM     21  C   UNL     1       7.390   4.288  11.735  0.00  0.00    +0.000 C 
ATOM     22  C   UNL     1       7.597   5.100  13.006  0.00  0.00    +0.000 C 
ENDBRANCH  17  18
ENDBRANCH   4  17
TORSDOF 4
ENDMDL
MODEL 2
REMARK VINA RESULT:      -7.8      0.039      1.081
REMARK  Name = 
REMARK  4 active torsions:
REMARK  status: ('A' for Active; 'I' for Inactive)
REMARK    1  A    between atoms: C_4  and  C_5
REMARK    2  A    between atoms: C_5  and  C_6
REMARK    3  A    between atoms: C_12  and  O_13
REMARK    4  A    between atoms: C_14  and  C_15
REMARK                            x       y       z     vdW  Elec       q    Type
REMARK                         _______ _______ _______ _____ _____    ______ ____
ROOT
ATOM      1  O   UNL     1       3.180   6.452  18.654  0.00  0.00    +0.000 OA
ATOM      2  C   UNL     1       3.745   5.582  18.005  0.00  0.00    +0.000 A 
ATOM      3  N   UNL     1       4.588   5.912  16.966  0.00  0.00    +0.000 N 
ATOM      4  C   UNL     1       5.252   5.010  16.170  0.00  0.00    +0.000 A 
ATOM      5  C   UNL     1       5.075   3.697  16.394  0.00  0.00    +0.000 A 
ATOM      6  C   UNL     1       4.237   3.249  17.484  0.00  0.00    +0.000 A 
ATOM      7  C   UNL     1       3.581   4.115  18.280  0.00  0.00    +0.000 A 
ATOM      8  H   UNL     1       4.678   6.908  16.798  0.00  0.00    +0.000 HD
ENDROOT
BRANCH   7   9
ATOM      9  C   UNL     1       2.749   3.656  19.401  0.00  0.00    +0.000 A 
ATOM     10  C   UNL     1       1.355   3.618  19.272  0.00  0.00    +0.000 A 
ATOM     11  C   UNL     1       0.560   3.199  20.341  0.00  0.00    +0.000 A 
ATOM     12  C   UNL     1       1.153   2.816  21.543  0.00  0.00    +0.000 A 
ATOM     13  C   UNL     1       2.539   2.854  21.680  0.00  0.00    +0.000 A 
ATOM     14  C   UNL     1       3.338   3.273  20.614  0.00  0.00    +0.000 A 
ENDBRANCH   7   9
BRANCH   6  15
ATOM     15  O   UNL     1       4.158   1.880  17.671  0.00  0.00    +0.000 OA
ATOM     16  H   UNL     1       4.784   1.607  18.359  0.00  0.00    +0.000 HD
ENDBRANCH   6  15
BRANCH   4  17
ATOM     17  C   UNL     1       6.111   5.552  15.052  0.00  0.00    +0.000 C 
BRANCH  17  18
ATOM     18  C   UNL     1       6.678   4.488  14.092  0.00  0.00    +0.000 C 
ATOM     19  C   UNL     1       5.603   3.733  13.311  0.00  0.00    +0.000 C 
ATOM     20  C   UNL     1       6.244   3.341  11.988  0.00  0.00    +0.000 C 
ATOM     21  C   UNL     1       7.397   4.305  11.751  0.00  0.00    +0.000 C 
ATOM     22  C   UNL     1       7.586   5.112  13.028  0.00  0.00    +0.000 C 
ENDBRANCH  17  18
ENDBRANCH   4  17
TORSDOF 4
ENDMDL
MODEL 3
REMARK VINA RESULT:      -7.7      1.311      6.949
REMARK  Name = 
REMARK  4 active torsions:
REMARK  status: ('A' for Active; 'I' for Inactive)
REMARK    1  A    between atoms: C_4  and  C_5
REMARK    2  A    between atoms: C_5  and  C_6
REMARK    3  A    between atoms: C_12  and  O_13
REMARK    4  A    between atoms: C_14  and  C_15
REMARK                            x       y       z     vdW  Elec       q    Type
REMARK                         _______ _______ _______ _____ _____    ______ ____
ROOT
ATOM      1  O   UNL     1       5.033   7.210  15.294  0.00  0.00    +0.000 OA
ATOM      2  C   UNL     1       4.911   6.259  16.055  0.00  0.00    +0.000 A 
ATOM      3  N   UNL     1       4.328   6.418  17.293  0.00  0.00    +0.000 N 
ATOM      4  C   UNL     1       4.164   5.420  18.223  0.00  0.00    +0.000 A 
ATOM      5  C   UNL     1       4.606   4.185  17.931  0.00  0.00    +0.000 A 
ATOM      6  C   UNL     1       5.201   3.908  16.643  0.00  0.00    +0.000 A 
ATOM      7  C   UNL     1       5.368   4.870  15.714  0.00  0.00    +0.000 A 
ATOM      8  H   UNL     1       4.033   7.366  17.501  0.00  0.00    +0.000 HD
ENDROOT
BRANCH   7   9
ATOM      9  C   UNL     1       5.952   4.580  14.397  0.00  0.00    +0.000 A 
ATOM     10  C   UNL     1       5.255   3.784  13.479  0.00  0.00    +0.000 A 
ATOM     11  C   UNL     1       5.815   3.491  12.234  0.00  0.00    +0.000 A 
ATOM     12  C   UNL     1       7.073   3.990  11.900  0.00  0.00    +0.000 A 
ATOM     13  C   UNL     1       7.774   4.781  12.810  0.00  0.00    +0.000 A 
ATOM     14  C   UNL     1       7.217   5.075  14.056  0.00  0.00    +0.000 A 
ENDBRANCH   7   9
BRANCH   6  15
ATOM     15  O   UNL     1       5.578   2.597  16.413  0.00  0.00    +0.000 OA
ATOM     16  H   UNL     1       5.505   2.397  15.467  0.00  0.00    +0.000 HD
ENDBRANCH   6  15
BRANCH   4  17
ATOM     17  C   UNL     1       3.532   5.784  19.546  0.00  0.00    +0.000 C 
BRANCH  17  18
ATOM     18  C   UNL     1       2.152   5.150  19.805  0.00  0.00    +0.000 C 
ATOM     19  C   UNL     1       1.692   4.208  18.693  0.00  0.00    +0.000 C 
ATOM     20  C   UNL     1       0.812   3.165  19.365  0.00  0.00    +0.000 C 
ATOM     21  C   UNL     1       1.208   3.128  20.833  0.00  0.00    +0.000 C 
ATOM     22  C   UNL     1       2.148   4.300  21.080  0.00  0.00    +0.000 C 
ENDBRANCH  17  18
ENDBRANCH   4  17
TORSDOF 4
ENDMDL
MODEL 4
REMARK VINA RESULT:      -7.7      1.286      6.869
REMARK  Name = 
REMARK  4 active torsions:
REMARK  status: ('A' for Active; 'I' for Inactive)
REMARK    1  A    between atoms: C_4  and  C_5
REMARK    2  A    between atoms: C_5  and  C_6
REMARK    3  A    between atoms: C_12  and  O_13
REMARK    4  A    between atoms: C_14  and  C_15
REMARK                            x       y       z     vdW  Elec       q    Type
REMARK                         _______ _______ _______ _____ _____    ______ ____
ROOT
ATOM      1  O   UNL     1       5.078   7.158  15.289  0.00  0.00    +0.000 OA
ATOM      2  C   UNL     1       4.929   6.197  16.032  0.00  0.00    +0.000 A 
ATOM      3  N   UNL     1       4.317   6.341  17.258  0.00  0.00    +0.000 N 
ATOM      4  C   UNL     1       4.120   5.330  18.167  0.00  0.00    +0.000 A 
ATOM      5  C   UNL     1       4.557   4.096  17.866  0.00  0.00    +0.000 A 
ATOM      6  C   UNL     1       5.180   3.834  16.588  0.00  0.00    +0.000 A 
ATOM      7  C   UNL     1       5.379   4.808  15.679  0.00  0.00    +0.000 A 
ATOM      8  H   UNL     1       4.026   7.289  17.474  0.00  0.00    +0.000 HD
ENDROOT
BRANCH   7   9
ATOM      9  C   UNL     1       5.992   4.533  14.372  0.00  0.00    +0.000 A 
ATOM     10  C   UNL     1       7.229   5.101  14.043  0.00  0.00    +0.000 A 
ATOM     11  C   UNL     1       7.806   4.856  12.795  0.00  0.00    +0.000 A 
ATOM     12  C   UNL     1       7.151   4.044  11.871  0.00  0.00    +0.000 A 
ATOM     13  C   UNL     1       5.918   3.478  12.191  0.00  0.00    +0.000 A 
ATOM     14  C   UNL     1       5.338   3.721  13.437  0.00  0.00    +0.000 A 
ENDBRANCH   7   9
BRANCH   6  15
ATOM     15  O   UNL     1       5.549   2.522  16.345  0.00  0.00    +0.000 OA
ATOM     16  H   UNL     1       5.869   2.436  15.434  0.00  0.00    +0.000 HD
ENDBRANCH   6  15
BRANCH   4  17
ATOM     17  C   UNL     1       3.461   5.679  19.481  0.00  0.00    +0.000 C 
BRANCH  17  18
ATOM     18  C   UNL     1       2.102   4.995  19.729  0.00  0.00    +0.000 C 
ATOM     19  C   UNL     1       1.609   4.164  18.545  0.00  0.00    +0.000 C 
ATOM     20  C   UNL     1       0.774   3.041  19.141  0.00  0.00    +0.000 C 
ATOM     21  C   UNL     1       1.233   2.862  20.580  0.00  0.00    +0.000 C 
ATOM     22  C   UNL     1       2.165   4.019  20.908  0.00  0.00    +0.000 C 
ENDBRANCH  17  18
ENDBRANCH   4  17
TORSDOF 4
ENDMDL
MODEL 5
REMARK VINA RESULT:      -7.6      1.400      1.684
REMARK  Name = 
REMARK  4 active torsions:
REMARK  status: ('A' for Active; 'I' for Inactive)
REMARK    1  A    between atoms: C_4  and  C_5
REMARK    2  A    between atoms: C_5  and  C_6
REMARK    3  A    between atoms: C_12  and  O_13
REMARK    4  A    between atoms: C_14  and  C_15
REMARK                            x       y       z     vdW  Elec       q    Type
REMARK                         _______ _______ _______ _____ _____    ______ ____
ROOT
ATOM      1  O   UNL     1       6.080   4.857  19.937  0.00  0.00    +0.000 OA
ATOM      2  C   UNL     1       5.698   4.607  18.801  0.00  0.00    +0.000 A 
ATOM      3  N   UNL     1       6.538   4.773  17.722  0.00  0.00    +0.000 N 
ATOM      4  C   UNL     1       6.198   4.538  16.412  0.00  0.00    +0.000 A 
ATOM      5  C   UNL     1       4.951   4.123  16.132  0.00  0.00    +0.000 A 
ATOM      6  C   UNL     1       4.004   3.885  17.199  0.00  0.00    +0.000 A 
ATOM      7  C   UNL     1       4.318   4.104  18.491  0.00  0.00    +0.000 A 
ATOM      8  H   UNL     1       7.462   5.118  17.958  0.00  0.00    +0.000 HD
ENDROOT
BRANCH   7   9
ATOM      9  C   UNL     1       3.360   3.839  19.573  0.00  0.00    +0.000 A 
ATOM     10  C   UNL     1       3.468   2.670  20.337  0.00  0.00    +0.000 A 
ATOM     11  C   UNL     1       2.548   2.406  21.355  0.00  0.00    +0.000 A 
ATOM     12  C   UNL     1       1.518   3.308  21.615  0.00  0.00    +0.000 A 
ATOM     13  C   UNL     1       1.402   4.472  20.857  0.00  0.00    +0.000 A 
ATOM     14  C   UNL     1       2.319   4.739  19.837  0.00  0.00    +0.000 A 
ENDBRANCH   7   9
BRANCH   6  15
ATOM     15  O   UNL     1       2.762   3.408  16.818  0.00  0.00    +0.000 OA
ATOM     16  H   UNL     1       2.631   3.557  15.869  0.00  0.00    +0.000 HD
ENDBRANCH   6  15
BRANCH   4  17
ATOM     17  C   UNL     1       7.240   4.807  15.352  0.00  0.00    +0.000 C 
BRANCH  17  18
ATOM     18  C   UNL     1       6.703   4.852  13.908  0.00  0.00    +0.000 C 
ATOM     19  C   UNL     1       7.762   5.226  12.872  0.00  0.00    +0.000 C 
ATOM     20  C   UNL     1       7.351   4.531  11.583  0.00  0.00    +0.000 C 
ATOM     21  C   UNL     1       6.468   3.356  11.974  0.00  0.00    +0.000 C 
ATOM     22  C   UNL     1       6.165   3.489  13.460  0.00  0.00    +0.000 C 
ENDBRANCH  17  18
ENDBRANCH   4  17
TORSDOF 4
ENDMDL
MODEL 6
REMARK VINA RESULT:      -7.6      5.041      7.230
REMARK  Name = 
REMARK  4 active torsions:
REMARK  status: ('A' for Active; 'I' for Inactive)
REMARK    1  A    between atoms: C_4  and  C_5
REMARK    2  A    between atoms: C_5  and  C_6
REMARK    3  A    between atoms: C_12  and  O_13
REMARK    4  A    between atoms: C_14  and  C_15
REMARK                            x       y       z     vdW  Elec       q    Type
REMARK                         _______ _______ _______ _____ _____    ______ ____
ROOT
ATOM      1  O   UNL     1       0.700   8.637  21.804  0.00  0.00    +0.000 OA
ATOM      2  C   UNL     1       1.213   8.433  20.711  0.00  0.00    +0.000 A 
ATOM      3  N   UNL     1       1.890   7.261  20.457  0.00  0.00    +0.000 N 
ATOM      4  C   UNL     1       2.513   6.949  19.274  0.00  0.00    +0.000 A 
ATOM      5  C   UNL     1       2.483   7.843  18.271  0.00  0.00    +0.000 A 
ATOM      6  C   UNL     1       1.766   9.089  18.426  0.00  0.00    +0.000 A 
ATOM      7  C   UNL     1       1.144   9.414  19.576  0.00  0.00    +0.000 A 
ATOM      8  H   UNL     1       1.926   6.618  21.241  0.00  0.00    +0.000 HD
ENDROOT
BRANCH   7   9
ATOM      9  C   UNL     1       0.397  10.672  19.722  0.00  0.00    +0.000 A 
ATOM     10  C   UNL     1       1.031  11.810  20.237  0.00  0.00    +0.000 A 
ATOM     11  C   UNL     1       0.320  13.001  20.394  0.00  0.00    +0.000 A 
ATOM     12  C   UNL     1      -1.026  13.062  20.037  0.00  0.00    +0.000 A 
ATOM     13  C   UNL     1      -1.664  11.933  19.526  0.00  0.00    +0.000 A 
ATOM     14  C   UNL     1      -0.957  10.739  19.369  0.00  0.00    +0.000 A 
ENDBRANCH   7   9
BRANCH   6  15
ATOM     15  O   UNL     1       1.745   9.923  17.323  0.00  0.00    +0.000 OA
ATOM     16  H   UNL     1       2.507   9.734  16.755  0.00  0.00    +0.000 HD
ENDBRANCH   6  15
BRANCH   4  17
ATOM     17  C   UNL     1       3.241   5.628  19.185  0.00  0.00    +0.000 C 
BRANCH  17  18
ATOM     18  C   UNL     1       2.553   4.563  18.308  0.00  0.00    +0.000 C 
ATOM     19  C   UNL     1       3.478   3.420  17.894  0.00  0.00    +0.000 C 
ATOM     20  C   UNL     1       2.587   2.196  17.740  0.00  0.00    +0.000 C 
ATOM     21  C   UNL     1       1.344   2.443  18.580  0.00  0.00    +0.000 C 
ATOM     22  C   UNL     1       1.386   3.893  19.041  0.00  0.00    +0.000 C 
ENDBRANCH  17  18
ENDBRANCH   4  17
TORSDOF 4
ENDMDL
MODEL 7
REMARK VINA RESULT:      -7.6      5.056      7.286
REMARK  Name = 
REMARK  4 active torsions:
REMARK  status: ('A' for Active; 'I' for Inactive)
REMARK    1  A    between atoms: C_4  and  C_5
REMARK    2  A    between atoms: C_5  and  C_6
REMARK    3  A    between atoms: C_12  and  O_13
REMARK    4  A    between atoms: C_14  and  C_15
REMARK                            x       y       z     vdW  Elec       q    Type
REMARK                         _______ _______ _______ _____ _____    ______ ____
ROOT
ATOM      1  O   UNL     1       0.783   8.573  21.838  0.00  0.00    +0.000 OA
ATOM      2  C   UNL     1       1.258   8.408  20.722  0.00  0.00    +0.000 A 
ATOM      3  N   UNL     1       1.939   7.251  20.409  0.00  0.00    +0.000 N 
ATOM      4  C   UNL     1       2.522   6.981  19.195  0.00  0.00    +0.000 A 
ATOM      5  C   UNL     1       2.446   7.905  18.222  0.00  0.00    +0.000 A 
ATOM      6  C   UNL     1       1.723   9.137  18.440  0.00  0.00    +0.000 A 
ATOM      7  C   UNL     1       1.139   9.421  19.620  0.00  0.00    +0.000 A 
ATOM      8  H   UNL     1       2.009   6.586  21.172  0.00  0.00    +0.000 HD
ENDROOT
BRANCH   7   9
ATOM      9  C   UNL     1       0.385  10.665  19.830  0.00  0.00    +0.000 A 
ATOM     10  C   UNL     1      -0.973  10.730  19.491  0.00  0.00    +0.000 A 
ATOM     11  C   UNL     1      -1.687  11.916  19.672  0.00  0.00    +0.000 A 
ATOM     12  C   UNL     1      -1.050  13.042  20.192  0.00  0.00    +0.000 A 
ATOM     13  C   UNL     1       0.301  12.986  20.528  0.00  0.00    +0.000 A 
ATOM     14  C   UNL     1       1.020  11.802  20.347  0.00  0.00    +0.000 A 
ENDBRANCH   7   9
BRANCH   6  15
ATOM     15  O   UNL     1       1.653  10.003  17.363  0.00  0.00    +0.000 OA
ATOM     16  H   UNL     1       1.153  10.795  17.612  0.00  0.00    +0.000 HD
ENDBRANCH   6  15
BRANCH   4  17
ATOM     17  C   UNL     1       3.259   5.672  19.041  0.00  0.00    +0.000 C 
BRANCH  17  18
ATOM     18  C   UNL     1       2.514   4.597  18.225  0.00  0.00    +0.000 C 
ATOM     19  C   UNL     1       3.408   3.444  17.772  0.00  0.00    +0.000 C 
ATOM     20  C   UNL     1       2.505   2.222  17.692  0.00  0.00    +0.000 C 
ATOM     21  C   UNL     1       1.318   2.486  18.604  0.00  0.00    +0.000 C 
ATOM     22  C   UNL     1       1.394   3.943  19.040  0.00  0.00    +0.000 C 
ENDBRANCH  17  18
ENDBRANCH   4  17
TORSDOF 4
ENDMDL
MODEL 8
REMARK VINA RESULT:      -7.5      1.131      2.138
REMARK  Name = 
REMARK  4 active torsions:
REMARK  status: ('A' for Active; 'I' for Inactive)
REMARK    1  A    between atoms: C_4  and  C_5
REMARK    2  A    between atoms: C_5  and  C_6
REMARK    3  A    between atoms: C_12  and  O_13
REMARK    4  A    between atoms: C_14  and  C_15
REMARK                            x       y       z     vdW  Elec       q    Type
REMARK                         _______ _______ _______ _____ _____    ______ ____
ROOT
ATOM      1  O   UNL     1       3.728   1.983  17.254  0.00  0.00    +0.000 OA
ATOM      2  C   UNL     1       4.391   2.991  17.458  0.00  0.00    +0.000 A 
ATOM      3  N   UNL     1       5.377   3.377  16.575  0.00  0.00    +0.000 N 
ATOM      4  C   UNL     1       6.184   4.478  16.725  0.00  0.00    +0.000 A 
ATOM      5  C   UNL     1       6.028   5.252  17.813  0.00  0.00    +0.000 A 
ATOM      6  C   UNL     1       4.997   4.951  18.780  0.00  0.00    +0.000 A 
ATOM      7  C   UNL     1       4.190   3.880  18.651  0.00  0.00    +0.000 A 
ATOM      8  H   UNL     1       5.495   2.758  15.781  0.00  0.00    +0.000 HD
ENDROOT
BRANCH   7   9
ATOM      9  C   UNL     1       3.128   3.591  19.625  0.00  0.00    +0.000 A 
ATOM     10  C   UNL     1       3.386   2.755  20.719  0.00  0.00    +0.000 A 
ATOM     11  C   UNL     1       2.374   2.464  21.636  0.00  0.00    +0.000 A 
ATOM     12  C   UNL     1       1.101   3.006  21.466  0.00  0.00    +0.000 A 
ATOM     13  C   UNL     1       0.836   3.836  20.378  0.00  0.00    +0.000 A 
ATOM     14  C   UNL     1       1.845   4.129  19.458  0.00  0.00    +0.000 A 
ENDBRANCH   7   9
BRANCH   6  15
ATOM     15  O   UNL     1       4.876   5.834  19.838  0.00  0.00    +0.000 OA
ATOM     16  H   UNL     1       4.121   6.424  19.688  0.00  0.00    +0.000 HD
ENDBRANCH   6  15
BRANCH   4  17
ATOM     17  C   UNL     1       7.239   4.729  15.673  0.00  0.00    +0.000 C 
BRANCH  17  18
ATOM     18  C   UNL     1       6.701   4.886  14.237  0.00  0.00    +0.000 C 
ATOM     19  C   UNL     1       7.783   5.220  13.211  0.00  0.00    +0.000 C 
ATOM     20  C   UNL     1       7.311   4.622  11.894  0.00  0.00    +0.000 C 
ATOM     21  C   UNL     1       6.336   3.507  12.238  0.00  0.00    +0.000 C 
ATOM     22  C   UNL     1       6.051   3.594  13.731  0.00  0.00    +0.000 C 
ENDBRANCH  17  18
ENDBRANCH   4  17
TORSDOF 4
ENDMDL
MODEL 9
REMARK VINA RESULT:      -7.5      0.620      1.855
REMARK  Name = 
REMARK  4 active torsions:
REMARK  status: ('A' for Active; 'I' for Inactive)
REMARK    1  A    between atoms: C_4  and  C_5
REMARK    2  A    between atoms: C_5  and  C_6
REMARK    3  A    between atoms: C_12  and  O_13
REMARK    4  A    between atoms: C_14  and  C_15
REMARK                            x       y       z     vdW  Elec       q    Type
REMARK                         _______ _______ _______ _____ _____    ______ ____
ROOT
ATOM      1  O   UNL     1       4.067   2.044  17.514  0.00  0.00    +0.000 OA
ATOM      2  C   UNL     1       4.177   3.259  17.408  0.00  0.00    +0.000 A 
ATOM      3  N   UNL     1       4.901   3.813  16.375  0.00  0.00    +0.000 N 
ATOM      4  C   UNL     1       5.098   5.159  16.182  0.00  0.00    +0.000 A 
ATOM      5  C   UNL     1       4.561   6.024  17.059  0.00  0.00    +0.000 A 
ATOM      6  C   UNL     1       3.753   5.542  18.158  0.00  0.00    +0.000 A 
ATOM      7  C   UNL     1       3.543   4.227  18.364  0.00  0.00    +0.000 A 
ATOM      8  H   UNL     1       5.323   3.138  15.747  0.00  0.00    +0.000 HD
ENDROOT
BRANCH   7   9
ATOM      9  C   UNL     1       2.703   3.743  19.468  0.00  0.00    +0.000 A 
ATOM     10  C   UNL     1       3.293   3.302  20.659  0.00  0.00    +0.000 A 
ATOM     11  C   UNL     1       2.499   2.824  21.704  0.00  0.00    +0.000 A 
ATOM     12  C   UNL     1       1.113   2.785  21.564  0.00  0.00    +0.000 A 
ATOM     13  C   UNL     1       0.518   3.219  20.381  0.00  0.00    +0.000 A 
ATOM     14  C   UNL     1       1.309   3.697  19.333  0.00  0.00    +0.000 A 
ENDBRANCH   7   9
BRANCH   6  15
ATOM     15  O   UNL     1       3.198   6.508  18.977  0.00  0.00    +0.000 OA
ATOM     16  H   UNL     1       3.530   6.400  19.882  0.00  0.00    +0.000 HD
ENDBRANCH   6  15
BRANCH   4  17
ATOM     17  C   UNL     1       5.951   5.588  15.012  0.00  0.00    +0.000 C 
BRANCH  17  18
ATOM     18  C   UNL     1       6.458   4.438  14.119  0.00  0.00    +0.000 C 
ATOM     19  C   UNL     1       5.353   3.755  13.314  0.00  0.00    +0.000 C 
ATOM     20  C   UNL     1       6.013   3.252  12.040  0.00  0.00    +0.000 C 
ATOM     21  C   UNL     1       7.262   4.093  11.824  0.00  0.00    +0.000 C 
ATOM     22  C   UNL     1       7.469   4.930  13.079  0.00  0.00    +0.000 C 
ENDBRANCH  17  18
ENDBRANCH   4  17
TORSDOF 4
ENDMDL
