MODEL 1
REMARK VINA RESULT:      -8.3      0.000      0.000
REMARK  Name = 
REMARK  7 active torsions:
REMARK  status: ('A' for Active; 'I' for Inactive)
REMARK    1  A    between atoms: C_1  and  O_2
REMARK    2  A    between atoms: O_2  and  C_3
REMARK    3  A    between atoms: C_6  and  C_7
REMARK    4  A    between atoms: C_8  and  C_9
REMARK    5  A    between atoms: C_8  and  C_22
REMARK    6  A    between atoms: C_25  and  C_26
REMARK    7  A    between atoms: C_27  and  C_28
REMARK                            x       y       z     vdW  Elec       q    Type
REMARK                         _______ _______ _______ _____ _____    ______ ____
ROOT
ATOM      1  C   UNL     1       3.993   8.058  17.548  0.00  0.00    +0.000 C 
ATOM      2  C   UNL     1       2.738   8.056  18.025  0.00  0.00    +0.000 C 
ENDROOT
BRANCH   2   3
ATOM      3  C   UNL     1       1.987   9.396  18.189  0.00  0.00    +0.000 C 
ATOM      4  O   UNL     1       2.266  10.223  17.301  0.00  0.00    +0.000 OA
ATOM      5  N   UNL     1       0.958   9.768  19.134  0.00  0.00    +0.000 N 
ATOM      6  C   UNL     1       0.139  10.866  18.570  0.00  0.00    +0.000 C 
ATOM      7  C   UNL     1      -1.276  10.759  19.063  0.00  0.00    +0.000 C 
ATOM      8  O   UNL     1      -2.247  10.420  18.372  0.00  0.00    +0.000 OA
ATOM      9  N   UNL     1      -1.381  10.989  20.398  0.00  0.00    +0.000 N 
ATOM     10  C   UNL     1      -0.424  10.333  21.183  0.00  0.00    +0.000 A 
ATOM     11  C   UNL     1      -0.727  10.371  22.570  0.00  0.00    +0.000 A 
ATOM     12  C   UNL     1       0.014   9.604  23.430  0.00  0.00    +0.000 A 
ATOM     13  C   UNL     1       1.055   8.838  22.908  0.00  0.00    +0.000 A 
ATOM     14  C   UNL     1       1.419   8.857  21.531  0.00  0.00    +0.000 A 
ATOM     15  C   UNL     1       0.677   9.589  20.591  0.00  0.00    +0.000 A 
ATOM     16  H   UNL     1      -1.524  11.963  20.672  0.00  0.00    +0.000 HD
ENDBRANCH   2   3
BRANCH   2  17
ATOM     17  C   UNL     1       2.124   6.677  18.431  0.00  0.00    +0.000 A 
ATOM     18  C   UNL     1       1.612   5.792  17.476  0.00  0.00    +0.000 A 
ATOM     19  C   UNL     1       1.328   4.434  17.787  0.00  0.00    +0.000 A 
ATOM     20  C   UNL     1       1.534   3.891  19.065  0.00  0.00    +0.000 A 
ATOM     21  C   UNL     1       1.360   2.404  19.294  0.00  0.00    +0.000 C 
ATOM     22  C   UNL     1       1.965   4.767  20.083  0.00  0.00    +0.000 A 
ATOM     23  C   UNL     1       2.265   4.242  21.471  0.00  0.00    +0.000 C 
ATOM     24  C   UNL     1       2.225   6.143  19.754  0.00  0.00    +0.000 A 
ENDBRANCH   2  17
BRANCH   1  28
ATOM     25  C   UNL     1       6.183   4.754  15.977  0.00  0.00    +0.000 A 
ATOM     26  C   UNL     1       5.479   5.608  15.130  0.00  0.00    +0.000 A 
ATOM     27  C   UNL     1       4.736   6.662  15.658  0.00  0.00    +0.000 A 
ATOM     28  C   UNL     1       4.694   6.874  17.042  0.00  0.00    +0.000 A 
ATOM     29  C   UNL     1       5.343   5.980  17.893  0.00  0.00    +0.000 A 
ATOM     30  C   UNL     1       6.087   4.920  17.360  0.00  0.00    +0.000 A 
BRANCH  25  32
ATOM     31  C   UNL     1       6.611   3.606  13.962  0.00  0.00    +0.000 C 
ATOM     32  O   UNL     1       6.893   3.768  15.349  0.00  0.00    +0.000 OA
ENDBRANCH  25  32
ENDBRANCH   1  28
TORSDOF 4
ENDMDL
MODEL 2
REMARK VINA RESULT:      -7.9      1.534      3.759
REMARK  Name = 
REMARK  7 active torsions:
REMARK  status: ('A' for Active; 'I' for Inactive)
REMARK    1  A    between atoms: C_1  and  O_2
REMARK    2  A    between atoms: O_2  and  C_3
REMARK    3  A    between atoms: C_6  and  C_7
REMARK    4  A    between atoms: C_8  and  C_9
REMARK    5  A    between atoms: C_8  and  C_22
REMARK    6  A    between atoms: C_25  and  C_26
REMARK    7  A    between atoms: C_27  and  C_28
REMARK                            x       y       z     vdW  Elec       q    Type
REMARK                         _______ _______ _______ _____ _____    ______ ____
ROOT
ATOM      1  C   UNL     1       1.468   6.447  18.226  0.00  0.00    +0.000 C 
ATOM      2  C   UNL     1       2.423   7.383  18.105  0.00  0.00    +0.000 C 
ENDROOT
BRANCH   2   3
ATOM      3  C   UNL     1       2.032   8.877  18.136  0.00  0.00    +0.000 C 
ATOM      4  O   UNL     1       2.600   9.548  17.254  0.00  0.00    +0.000 OA
ATOM      5  N   UNL     1       1.048   9.557  18.947  0.00  0.00    +0.000 N 
ATOM      6  C   UNL     1       0.599  10.788  18.257  0.00  0.00    +0.000 C 
ATOM      7  C   UNL     1      -0.836  11.074  18.595  0.00  0.00    +0.000 C 
ATOM      8  O   UNL     1      -1.790  10.949  17.815  0.00  0.00    +0.000 OA
ATOM      9  N   UNL     1      -1.006  11.409  19.902  0.00  0.00    +0.000 N 
ATOM     10  C   UNL     1      -0.332  10.583  20.811  0.00  0.00    +0.000 A 
ATOM     11  C   UNL     1      -0.747  10.786  22.153  0.00  0.00    +0.000 A 
ATOM     12  C   UNL     1      -0.316   9.913  23.117  0.00  0.00    +0.000 A 
ATOM     13  C   UNL     1       0.537   8.876  22.741  0.00  0.00    +0.000 A 
ATOM     14  C   UNL     1       1.025   8.714  21.413  0.00  0.00    +0.000 A 
ATOM     15  C   UNL     1       0.591   9.548  20.371  0.00  0.00    +0.000 A 
ATOM     16  H   UNL     1      -0.919  12.403  20.122  0.00  0.00    +0.000 HD
ENDBRANCH   2   3
BRANCH   2  17
ATOM     17  C   UNL     1       3.892   6.889  17.891  0.00  0.00    +0.000 A 
ATOM     18  C   UNL     1       4.695   6.491  18.965  0.00  0.00    +0.000 A 
ATOM     19  C   UNL     1       5.905   5.770  18.770  0.00  0.00    +0.000 A 
ATOM     20  C   UNL     1       6.378   5.415  17.496  0.00  0.00    +0.000 A 
ATOM     21  C   UNL     1       7.590   4.516  17.362  0.00  0.00    +0.000 C 
ATOM     22  C   UNL     1       5.647   5.872  16.380  0.00  0.00    +0.000 A 
ATOM     23  C   UNL     1       6.063   5.479  14.979  0.00  0.00    +0.000 C 
ATOM     24  C   UNL     1       4.438   6.620  16.597  0.00  0.00    +0.000 A 
ENDBRANCH   2  17
BRANCH   1  28
ATOM     25  C   UNL     1       2.410   2.372  19.052  0.00  0.00    +0.000 A 
ATOM     26  C   UNL     1       2.330   2.831  17.738  0.00  0.00    +0.000 A 
ATOM     27  C   UNL     1       1.985   4.156  17.480  0.00  0.00    +0.000 A 
ATOM     28  C   UNL     1       1.718   5.036  18.536  0.00  0.00    +0.000 A 
ATOM     29  C   UNL     1       1.731   4.560  19.847  0.00  0.00    +0.000 A 
ATOM     30  C   UNL     1       2.077   3.227  20.103  0.00  0.00    +0.000 A 
BRANCH  25  32
ATOM     31  C   UNL     1       4.102   0.755  18.766  0.00  0.00    +0.000 C 
ATOM     32  O   UNL     1       2.776   1.061  19.187  0.00  0.00    +0.000 OA
ENDBRANCH  25  32
ENDBRANCH   1  28
TORSDOF 4
ENDMDL
MODEL 3
REMARK VINA RESULT:      -7.7      2.459      8.061
REMARK  Name = 
REMARK  7 active torsions:
REMARK  status: ('A' for Active; 'I' for Inactive)
REMARK    1  A    between atoms: C_1  and  O_2
REMARK    2  A    between atoms: O_2  and  C_3
REMARK    3  A    between atoms: C_6  and  C_7
REMARK    4  A    between atoms: C_8  and  C_9
REMARK    5  A    between atoms: C_8  and  C_22
REMARK    6  A    between atoms: C_25  and  C_26
REMARK    7  A    between atoms: C_27  and  C_28
REMARK                            x       y       z     vdW  Elec       q    Type
REMARK                         _______ _______ _______ _____ _____    ______ ____
ROOT
ATOM      1  C   UNL     1       2.189   7.706  20.004  0.00  0.00    +0.000 C 
ATOM      2  C   UNL     1       2.245   8.075  18.714  0.00  0.00    +0.000 C 
ENDROOT
BRANCH   2   3
ATOM      3  C   UNL     1       2.960   7.163  17.693  0.00  0.00    +0.000 C 
ATOM      4  O   UNL     1       3.342   7.774  16.677  0.00  0.00    +0.000 OA
ATOM      5  N   UNL     1       3.331   5.770  17.800  0.00  0.00    +0.000 N 
ATOM      6  C   UNL     1       4.471   5.488  16.897  0.00  0.00    +0.000 C 
ATOM      7  C   UNL     1       5.341   4.414  17.486  0.00  0.00    +0.000 C 
ATOM      8  O   UNL     1       6.472   4.594  17.958  0.00  0.00    +0.000 OA
ATOM      9  N   UNL     1       4.717   3.208  17.534  0.00  0.00    +0.000 N 
ATOM     10  C   UNL     1       3.404   3.245  18.020  0.00  0.00    +0.000 A 
ATOM     11  C   UNL     1       2.887   1.956  18.314  0.00  0.00    +0.000 A 
ATOM     12  C   UNL     1       1.694   1.858  18.979  0.00  0.00    +0.000 A 
ATOM     13  C   UNL     1       1.021   3.033  19.314  0.00  0.00    +0.000 A 
ATOM     14  C   UNL     1       1.491   4.327  18.950  0.00  0.00    +0.000 A 
ATOM     15  C   UNL     1       2.726   4.499  18.306  0.00  0.00    +0.000 A 
ATOM     16  H   UNL     1       4.821   2.619  16.704  0.00  0.00    +0.000 HD
ENDBRANCH   2   3
BRANCH   2  17
ATOM     17  C   UNL     1       1.610   9.452  18.331  0.00  0.00    +0.000 A 
ATOM     18  C   UNL     1       0.230   9.601  18.159  0.00  0.00    +0.000 A 
ATOM     19  C   UNL     1      -0.386  10.881  18.106  0.00  0.00    +0.000 A 
ATOM     20  C   UNL     1       0.343  12.077  18.217  0.00  0.00    +0.000 A 
ATOM     21  C   UNL     1      -0.386  13.402  18.309  0.00  0.00    +0.000 C 
ATOM     22  C   UNL     1       1.746  11.978  18.303  0.00  0.00    +0.000 A 
ATOM     23  C   UNL     1       2.593  13.220  18.484  0.00  0.00    +0.000 C 
ATOM     24  C   UNL     1       2.353  10.675  18.331  0.00  0.00    +0.000 A 
ENDBRANCH   2  17
BRANCH   1  28
ATOM     25  C   UNL     1      -0.436   9.601  22.778  0.00  0.00    +0.000 A 
ATOM     26  C   UNL     1       0.891  10.011  22.660  0.00  0.00    +0.000 A 
ATOM     27  C   UNL     1       1.750   9.359  21.777  0.00  0.00    +0.000 A 
ATOM     28  C   UNL     1       1.286   8.291  21.000  0.00  0.00    +0.000 A 
ATOM     29  C   UNL     1      -0.023   7.837  21.166  0.00  0.00    +0.000 A 
ATOM     30  C   UNL     1      -0.882   8.493  22.056  0.00  0.00    +0.000 A 
BRANCH  25  32
ATOM     31  C   UNL     1      -1.761  11.519  23.132  0.00  0.00    +0.000 C 
ATOM     32  O   UNL     1      -1.191  10.325  23.659  0.00  0.00    +0.000 OA
ENDBRANCH  25  32
ENDBRANCH   1  28
TORSDOF 4
ENDMDL
MODEL 4
REMARK VINA RESULT:      -7.5      6.338      9.989
REMARK  Name = 
REMARK  7 active torsions:
REMARK  status: ('A' for Active; 'I' for Inactive)
REMARK    1  A    between atoms: C_1  and  O_2
REMARK    2  A    between atoms: O_2  and  C_3
REMARK    3  A    between atoms: C_6  and  C_7
REMARK    4  A    between atoms: C_8  and  C_9
REMARK    5  A    between atoms: C_8  and  C_22
REMARK    6  A    between atoms: C_25  and  C_26
REMARK    7  A    between atoms: C_27  and  C_28
REMARK                            x       y       z     vdW  Elec       q    Type
REMARK                         _______ _______ _______ _____ _____    ______ ____
ROOT
ATOM      1  C   UNL     1      -3.620  14.183  22.428  0.00  0.00    +0.000 C 
ATOM      2  C   UNL     1      -3.503  12.985  21.834  0.00  0.00    +0.000 C 
ENDROOT
BRANCH   2   3
ATOM      3  C   UNL     1      -4.681  12.431  21.002  0.00  0.00    +0.000 C 
ATOM      4  O   UNL     1      -5.705  12.230  21.682  0.00  0.00    +0.000 OA
ATOM      5  N   UNL     1      -4.789  12.226  19.575  0.00  0.00    +0.000 N 
ATOM      6  C   UNL     1      -6.214  12.261  19.174  0.00  0.00    +0.000 C 
ATOM      7  C   UNL     1      -6.346  12.819  17.786  0.00  0.00    +0.000 C 
ATOM      8  O   UNL     1      -6.810  13.933  17.507  0.00  0.00    +0.000 OA
ATOM      9  N   UNL     1      -5.810  11.999  16.844  0.00  0.00    +0.000 N 
ATOM     10  C   UNL     1      -4.547  11.484  17.163  0.00  0.00    +0.000 A 
ATOM     11  C   UNL     1      -3.907  10.866  16.057  0.00  0.00    +0.000 A 
ATOM     12  C   UNL     1      -2.593  10.498  16.175  0.00  0.00    +0.000 A 
ATOM     13  C   UNL     1      -1.947  10.720  17.391  0.00  0.00    +0.000 A 
ATOM     14  C   UNL     1      -2.605  11.263  18.532  0.00  0.00    +0.000 A 
ATOM     15  C   UNL     1      -3.937  11.699  18.466  0.00  0.00    +0.000 A 
ATOM     16  H   UNL     1      -6.442  11.297  16.453  0.00  0.00    +0.000 HD
ENDBRANCH   2   3
BRANCH   2  17
ATOM     17  C   UNL     1      -2.173  12.195  22.063  0.00  0.00    +0.000 A 
ATOM     18  C   UNL     1      -2.012  11.328  23.148  0.00  0.00    +0.000 A 
ATOM     19  C   UNL     1      -0.944  10.391  23.209  0.00  0.00    +0.000 A 
ATOM     20  C   UNL     1       0.020  10.276  22.195  0.00  0.00    +0.000 A 
ATOM     21  C   UNL     1       1.041   9.157  22.244  0.00  0.00    +0.000 C 
ATOM     22  C   UNL     1      -0.050  11.189  21.124  0.00  0.00    +0.000 A 
ATOM     23  C   UNL     1       0.920  11.088  19.965  0.00  0.00    +0.000 C 
ATOM     24  C   UNL     1      -1.124  12.145  21.091  0.00  0.00    +0.000 A 
ENDBRANCH   2  17
BRANCH   1  28
ATOM     25  C   UNL     1      -0.253  16.252  24.029  0.00  0.00    +0.000 A 
ATOM     26  C   UNL     1      -1.106  15.531  24.862  0.00  0.00    +0.000 A 
ATOM     27  C   UNL     1      -2.225  14.890  24.332  0.00  0.00    +0.000 A 
ATOM     28  C   UNL     1      -2.498  14.963  22.961  0.00  0.00    +0.000 A 
ATOM     29  C   UNL     1      -1.683  15.740  22.138  0.00  0.00    +0.000 A 
ATOM     30  C   UNL     1      -0.561  16.385  22.673  0.00  0.00    +0.000 A 
BRANCH  25  32
ATOM     31  C   UNL     1       0.542  18.017  25.375  0.00  0.00    +0.000 C 
ATOM     32  O   UNL     1       0.823  16.823  24.652  0.00  0.00    +0.000 OA
ENDBRANCH  25  32
ENDBRANCH   1  28
TORSDOF 4
ENDMDL
MODEL 5
REMARK VINA RESULT:      -7.1      4.593      8.058
REMARK  Name = 
REMARK  7 active torsions:
REMARK  status: ('A' for Active; 'I' for Inactive)
REMARK    1  A    between atoms: C_1  and  O_2
REMARK    2  A    between atoms: O_2  and  C_3
REMARK    3  A    between atoms: C_6  and  C_7
REMARK    4  A    between atoms: C_8  and  C_9
REMARK    5  A    between atoms: C_8  and  C_22
REMARK    6  A    between atoms: C_25  and  C_26
REMARK    7  A    between atoms: C_27  and  C_28
REMARK                            x       y       z     vdW  Elec       q    Type
REMARK                         _______ _______ _______ _____ _____    ______ ____
ROOT
ATOM      1  C   UNL     1      -2.228  13.446  20.073  0.00  0.00    +0.000 C 
ATOM      2  C   UNL     1      -2.703  12.294  19.573  0.00  0.00    +0.000 C 
ENDROOT
BRANCH   2   3
ATOM      3  C   UNL     1      -4.217  12.151  19.302  0.00  0.00    +0.000 C 
ATOM      4  O   UNL     1      -4.487  12.050  18.090  0.00  0.00    +0.000 OA
ATOM      5  N   UNL     1      -5.313  12.012  20.233  0.00  0.00    +0.000 N 
ATOM      6  C   UNL     1      -6.446  11.327  19.569  0.00  0.00    +0.000 C 
ATOM      7  C   UNL     1      -7.208  10.504  20.568  0.00  0.00    +0.000 C 
ATOM      8  O   UNL     1      -7.208   9.267  20.620  0.00  0.00    +0.000 OA
ATOM      9  N   UNL     1      -7.847  11.269  21.493  0.00  0.00    +0.000 N 
ATOM     10  C   UNL     1      -7.072  12.302  22.036  0.00  0.00    +0.000 A 
ATOM     11  C   UNL     1      -7.668  12.896  23.179  0.00  0.00    +0.000 A 
ATOM     12  C   UNL     1      -6.932  13.779  23.925  0.00  0.00    +0.000 A 
ATOM     13  C   UNL     1      -5.634  14.078  23.511  0.00  0.00    +0.000 A 
ATOM     14  C   UNL     1      -5.058  13.550  22.320  0.00  0.00    +0.000 A 
ATOM     15  C   UNL     1      -5.742  12.610  21.535  0.00  0.00    +0.000 A 
ATOM     16  H   UNL     1      -8.794  11.565  21.248  0.00  0.00    +0.000 HD
ENDBRANCH   2   3
BRANCH   2  17
ATOM     17  C   UNL     1      -1.679  11.136  19.335  0.00  0.00    +0.000 A 
ATOM     18  C   UNL     1      -1.271  10.771  18.048  0.00  0.00    +0.000 A 
ATOM     19  C   UNL     1      -0.138   9.940  17.828  0.00  0.00    +0.000 A 
ATOM     20  C   UNL     1       0.639   9.426  18.878  0.00  0.00    +0.000 A 
ATOM     21  C   UNL     1       1.920   8.675  18.575  0.00  0.00    +0.000 C 
ATOM     22  C   UNL     1       0.214   9.694  20.195  0.00  0.00    +0.000 A 
ATOM     23  C   UNL     1       1.034   9.223  21.377  0.00  0.00    +0.000 C 
ATOM     24  C   UNL     1      -0.947  10.518  20.398  0.00  0.00    +0.000 A 
ENDBRANCH   2  17
BRANCH   1  28
ATOM     25  C   UNL     1       1.936  14.360  20.133  0.00  0.00    +0.000 A 
ATOM     26  C   UNL     1       1.255  14.070  21.314  0.00  0.00    +0.000 A 
ATOM     27  C   UNL     1      -0.114  13.810  21.286  0.00  0.00    +0.000 A 
ATOM     28  C   UNL     1      -0.814  13.834  20.073  0.00  0.00    +0.000 A 
ATOM     29  C   UNL     1      -0.146  14.191  18.902  0.00  0.00    +0.000 A 
ATOM     30  C   UNL     1       1.229  14.454  18.933  0.00  0.00    +0.000 A 
BRANCH  25  32
ATOM     31  C   UNL     1       4.001  14.735  19.058  0.00  0.00    +0.000 C 
ATOM     32  O   UNL     1       3.279  14.578  20.275  0.00  0.00    +0.000 OA
ENDBRANCH  25  32
ENDBRANCH   1  28
TORSDOF 4
ENDMDL
MODEL 6
REMARK VINA RESULT:      -7.1      5.202      9.801
REMARK  Name = 
REMARK  7 active torsions:
REMARK  status: ('A' for Active; 'I' for Inactive)
REMARK    1  A    between atoms: C_1  and  O_2
REMARK    2  A    between atoms: O_2  and  C_3
REMARK    3  A    between atoms: C_6  and  C_7
REMARK    4  A    between atoms: C_8  and  C_9
REMARK    5  A    between atoms: C_8  and  C_22
REMARK    6  A    between atoms: C_25  and  C_26
REMARK    7  A    between atoms: C_27  and  C_28
REMARK                            x       y       z     vdW  Elec       q    Type
REMARK                         _______ _______ _______ _____ _____    ______ ____
ROOT
ATOM      1  C   UNL     1      -1.504  14.368  20.706  0.00  0.00    +0.000 C 
ATOM      2  C   UNL     1      -0.297  13.780  20.725  0.00  0.00    +0.000 C 
ENDROOT
BRANCH   2   3
ATOM      3  C   UNL     1       0.974  14.653  20.643  0.00  0.00    +0.000 C 
ATOM      4  O   UNL     1       1.714  14.530  21.638  0.00  0.00    +0.000 OA
ATOM      5  N   UNL     1       1.460  15.478  19.561  0.00  0.00    +0.000 N 
ATOM      6  C   UNL     1       2.929  15.633  19.674  0.00  0.00    +0.000 C 
ATOM      7  C   UNL     1       3.541  15.760  18.308  0.00  0.00    +0.000 C 
ATOM      8  O   UNL     1       4.228  14.893  17.752  0.00  0.00    +0.000 OA
ATOM      9  N   UNL     1       3.185  16.915  17.685  0.00  0.00    +0.000 N 
ATOM     10  C   UNL     1       1.821  17.226  17.760  0.00  0.00    +0.000 A 
ATOM     11  C   UNL     1       1.445  18.273  16.878  0.00  0.00    +0.000 A 
ATOM     12  C   UNL     1       0.113  18.544  16.705  0.00  0.00    +0.000 A 
ATOM     13  C   UNL     1      -0.817  17.796  17.425  0.00  0.00    +0.000 A 
ATOM     14  C   UNL     1      -0.445  16.800  18.374  0.00  0.00    +0.000 A 
ATOM     15  C   UNL     1       0.898  16.446  18.569  0.00  0.00    +0.000 A 
ATOM     16  H   UNL     1       3.790  17.720  17.860  0.00  0.00    +0.000 HD
ENDBRANCH   2   3
BRANCH   2  17
ATOM     17  C   UNL     1      -0.259  12.218  20.785  0.00  0.00    +0.000 A 
ATOM     18  C   UNL     1       0.059  11.448  19.661  0.00  0.00    +0.000 A 
ATOM     19  C   UNL     1       0.385  10.068  19.765  0.00  0.00    +0.000 A 
ATOM     20  C   UNL     1       0.406   9.385  20.991  0.00  0.00    +0.000 A 
ATOM     21  C   UNL     1       0.911   7.958  21.055  0.00  0.00    +0.000 C 
ATOM     22  C   UNL     1       0.007  10.098  22.140  0.00  0.00    +0.000 A 
ATOM     23  C   UNL     1       0.060   9.445  23.505  0.00  0.00    +0.000 C 
ATOM     24  C   UNL     1      -0.343  11.487  22.012  0.00  0.00    +0.000 A 
ENDBRANCH   2  17
BRANCH   1  28
ATOM     25  C   UNL     1      -5.230  12.671  21.895  0.00  0.00    +0.000 A 
ATOM     26  C   UNL     1      -4.376  13.241  22.837  0.00  0.00    +0.000 A 
ATOM     27  C   UNL     1      -3.144  13.759  22.442  0.00  0.00    +0.000 A 
ATOM     28  C   UNL     1      -2.757  13.714  21.097  0.00  0.00    +0.000 A 
ATOM     29  C   UNL     1      -3.582  13.083  20.165  0.00  0.00    +0.000 A 
ATOM     30  C   UNL     1      -4.818  12.561  20.566  0.00  0.00    +0.000 A 
BRANCH  25  32
ATOM     31  C   UNL     1      -7.289  13.217  22.907  0.00  0.00    +0.000 C 
ATOM     32  O   UNL     1      -6.420  12.213  22.392  0.00  0.00    +0.000 OA
ENDBRANCH  25  32
ENDBRANCH   1  28
TORSDOF 4
ENDMDL
MODEL 7
REMARK VINA RESULT:      -7.1      7.418     11.055
REMARK  Name = 
REMARK  7 active torsions:
REMARK  status: ('A' for Active; 'I' for Inactive)
REMARK    1  A    between atoms: C_1  and  O_2
REMARK    2  A    between atoms: O_2  and  C_3
REMARK    3  A    between atoms: C_6  and  C_7
REMARK    4  A    between atoms: C_8  and  C_9
REMARK    5  A    between atoms: C_8  and  C_22
REMARK    6  A    between atoms: C_25  and  C_26
REMARK    7  A    between atoms: C_27  and  C_28
REMARK                            x       y       z     vdW  Elec       q    Type
REMARK                         _______ _______ _______ _____ _____    ______ ____
ROOT
ATOM      1  C   UNL     1      -4.751  13.839  23.189  0.00  0.00    +0.000 C 
ATOM      2  C   UNL     1      -4.333  13.160  22.109  0.00  0.00    +0.000 C 
ENDROOT
BRANCH   2   3
ATOM      3  C   UNL     1      -5.362  12.395  21.247  0.00  0.00    +0.000 C 
ATOM      4  O   UNL     1      -6.333  11.977  21.906  0.00  0.00    +0.000 OA
ATOM      5  N   UNL     1      -5.405  12.201  19.816  0.00  0.00    +0.000 N 
ATOM      6  C   UNL     1      -6.802  11.953  19.390  0.00  0.00    +0.000 C 
ATOM      7  C   UNL     1      -7.024  12.500  18.009  0.00  0.00    +0.000 C 
ATOM      8  O   UNL     1      -7.702  13.501  17.740  0.00  0.00    +0.000 OA
ATOM      9  N   UNL     1      -6.320  11.825  17.063  0.00  0.00    +0.000 N 
ATOM     10  C   UNL     1      -4.983  11.571  17.397  0.00  0.00    +0.000 A 
ATOM     11  C   UNL     1      -4.215  11.118  16.292  0.00  0.00    +0.000 A 
ATOM     12  C   UNL     1      -2.855  11.022  16.428  0.00  0.00    +0.000 A 
ATOM     13  C   UNL     1      -2.285  11.347  17.658  0.00  0.00    +0.000 A 
ATOM     14  C   UNL     1      -3.056  11.723  18.796  0.00  0.00    +0.000 A 
ATOM     15  C   UNL     1      -4.448  11.880  18.713  0.00  0.00    +0.000 A 
ATOM     16  H   UNL     1      -6.790  11.017  16.650  0.00  0.00    +0.000 HD
ENDBRANCH   2   3
BRANCH   2  17
ATOM     17  C   UNL     1      -2.797  13.153  21.814  0.00  0.00    +0.000 A 
ATOM     18  C   UNL     1      -1.973  12.107  22.244  0.00  0.00    +0.000 A 
ATOM     19  C   UNL     1      -0.655  11.936  21.739  0.00  0.00    +0.000 A 
ATOM     20  C   UNL     1      -0.090  12.799  20.786  0.00  0.00    +0.000 A 
ATOM     21  C   UNL     1       1.257  12.475  20.174  0.00  0.00    +0.000 C 
ATOM     22  C   UNL     1      -0.851  13.918  20.390  0.00  0.00    +0.000 A 
ATOM     23  C   UNL     1      -0.332  14.859  19.324  0.00  0.00    +0.000 C 
ATOM     24  C   UNL     1      -2.173  14.088  20.929  0.00  0.00    +0.000 A 
ENDBRANCH   2  17
BRANCH   1  28
ATOM     25  C   UNL     1      -2.263  16.680  25.168  0.00  0.00    +0.000 A 
ATOM     26  C   UNL     1      -2.339  15.364  25.621  0.00  0.00    +0.000 A 
ATOM     27  C   UNL     1      -3.184  14.454  24.989  0.00  0.00    +0.000 A 
ATOM     28  C   UNL     1      -3.961  14.853  23.894  0.00  0.00    +0.000 A 
ATOM     29  C   UNL     1      -3.936  16.186  23.484  0.00  0.00    +0.000 A 
ATOM     30  C   UNL     1      -3.087  17.099  24.122  0.00  0.00    +0.000 A 
BRANCH  25  32
ATOM     31  C   UNL     1      -0.055  17.489  25.345  0.00  0.00    +0.000 C 
ATOM     32  O   UNL     1      -1.387  17.480  25.850  0.00  0.00    +0.000 OA
ENDBRANCH  25  32
ENDBRANCH   1  28
TORSDOF 4
ENDMDL
MODEL 8
REMARK VINA RESULT:      -7.1      4.262      7.527
REMARK  Name = 
REMARK  7 active torsions:
REMARK  status: ('A' for Active; 'I' for Inactive)
REMARK    1  A    between atoms: C_1  and  O_2
REMARK    2  A    between atoms: O_2  and  C_3
REMARK    3  A    between atoms: C_6  and  C_7
REMARK    4  A    between atoms: C_8  and  C_9
REMARK    5  A    between atoms: C_8  and  C_22
REMARK    6  A    between atoms: C_25  and  C_26
REMARK    7  A    between atoms: C_27  and  C_28
REMARK                            x       y       z     vdW  Elec       q    Type
REMARK                         _______ _______ _______ _____ _____    ______ ____
ROOT
ATOM      1  C   UNL     1      -1.712  13.020  19.507  0.00  0.00    +0.000 C 
ATOM      2  C   UNL     1      -2.162  11.854  19.017  0.00  0.00    +0.000 C 
ENDROOT
BRANCH   2   3
ATOM      3  C   UNL     1      -3.625  11.749  18.531  0.00  0.00    +0.000 C 
ATOM      4  O   UNL     1      -3.722  11.688  17.290  0.00  0.00    +0.000 OA
ATOM      5  N   UNL     1      -4.844  11.606  19.294  0.00  0.00    +0.000 N 
ATOM      6  C   UNL     1      -5.883  10.963  18.456  0.00  0.00    +0.000 C 
ATOM      7  C   UNL     1      -6.791  10.128  19.312  0.00  0.00    +0.000 C 
ATOM      8  O   UNL     1      -6.818   8.890  19.326  0.00  0.00    +0.000 OA
ATOM      9  N   UNL     1      -7.542  10.880  20.160  0.00  0.00    +0.000 N 
ATOM     10  C   UNL     1      -6.835  11.881  20.839  0.00  0.00    +0.000 A 
ATOM     11  C   UNL     1      -7.578  12.455  21.904  0.00  0.00    +0.000 A 
ATOM     12  C   UNL     1      -6.940  13.301  22.773  0.00  0.00    +0.000 A 
ATOM     13  C   UNL     1      -5.593  13.586  22.556  0.00  0.00    +0.000 A 
ATOM     14  C   UNL     1      -4.862  13.080  21.442  0.00  0.00    +0.000 A 
ATOM     15  C   UNL     1      -5.443  12.176  20.540  0.00  0.00    +0.000 A 
ATOM     16  H   UNL     1      -8.440  11.202  19.793  0.00  0.00    +0.000 HD
ENDBRANCH   2   3
BRANCH   2  17
ATOM     17  C   UNL     1      -1.171  10.644  19.012  0.00  0.00    +0.000 A 
ATOM     18  C   UNL     1      -0.614  10.158  17.825  0.00  0.00    +0.000 A 
ATOM     19  C   UNL     1       0.498   9.271  17.826  0.00  0.00    +0.000 A 
ATOM     20  C   UNL     1       1.104   8.819  19.009  0.00  0.00    +0.000 A 
ATOM     21  C   UNL     1       2.378   8.001  18.943  0.00  0.00    +0.000 C 
ATOM     22  C   UNL     1       0.521   9.213  20.231  0.00  0.00    +0.000 A 
ATOM     23  C   UNL     1       1.155   8.814  21.547  0.00  0.00    +0.000 C 
ATOM     24  C   UNL     1      -0.617  10.091  20.209  0.00  0.00    +0.000 A 
ENDBRANCH   2  17
BRANCH   1  28
ATOM     25  C   UNL     1       2.360  14.199  19.969  0.00  0.00    +0.000 A 
ATOM     26  C   UNL     1       1.808  14.029  18.701  0.00  0.00    +0.000 A 
ATOM     27  C   UNL     1       0.487  13.607  18.562  0.00  0.00    +0.000 A 
ATOM     28  C   UNL     1      -0.296  13.354  19.695  0.00  0.00    +0.000 A 
ATOM     29  C   UNL     1       0.275  13.458  20.963  0.00  0.00    +0.000 A 
ATOM     30  C   UNL     1       1.604  13.880  21.099  0.00  0.00    +0.000 A 
BRANCH  25  32
ATOM     31  C   UNL     1       4.078  15.329  18.816  0.00  0.00    +0.000 C 
ATOM     32  O   UNL     1       3.656  14.635  19.986  0.00  0.00    +0.000 OA
ENDBRANCH  25  32
ENDBRANCH   1  28
TORSDOF 4
ENDMDL
MODEL 9
REMARK VINA RESULT:      -7.1      4.598      8.154
REMARK  Name = 
REMARK  7 active torsions:
REMARK  status: ('A' for Active; 'I' for Inactive)
REMARK    1  A    between atoms: C_1  and  O_2
REMARK    2  A    between atoms: O_2  and  C_3
REMARK    3  A    between atoms: C_6  and  C_7
REMARK    4  A    between atoms: C_8  and  C_9
REMARK    5  A    between atoms: C_8  and  C_22
REMARK    6  A    between atoms: C_25  and  C_26
REMARK    7  A    between atoms: C_27  and  C_28
REMARK                            x       y       z     vdW  Elec       q    Type
REMARK                         _______ _______ _______ _____ _____    ______ ____
ROOT
ATOM      1  C   UNL     1      -1.002  13.684  21.540  0.00  0.00    +0.000 C 
ATOM      2  C   UNL     1      -1.736  12.579  21.329  0.00  0.00    +0.000 C 
ENDROOT
BRANCH   2   3
ATOM      3  C   UNL     1      -3.136  12.463  21.972  0.00  0.00    +0.000 C 
ATOM      4  O   UNL     1      -3.093  12.170  23.182  0.00  0.00    +0.000 OA
ATOM      5  N   UNL     1      -4.437  12.747  21.411  0.00  0.00    +0.000 N 
ATOM      6  C   UNL     1      -5.388  13.072  22.498  0.00  0.00    +0.000 C 
ATOM      7  C   UNL     1      -6.408  14.061  22.013  0.00  0.00    +0.000 C 
ATOM      8  O   UNL     1      -6.466  15.250  22.354  0.00  0.00    +0.000 OA
ATOM      9  N   UNL     1      -7.233  13.536  21.068  0.00  0.00    +0.000 N 
ATOM     10  C   UNL     1      -6.584  12.806  20.064  0.00  0.00    +0.000 A 
ATOM     11  C   UNL     1      -7.430  12.512  18.962  0.00  0.00    +0.000 A 
ATOM     12  C   UNL     1      -6.876  11.979  17.828  0.00  0.00    +0.000 A 
ATOM     13  C   UNL     1      -5.506  11.720  17.816  0.00  0.00    +0.000 A 
ATOM     14  C   UNL     1      -4.665  11.933  18.946  0.00  0.00    +0.000 A 
ATOM     15  C   UNL     1      -5.161  12.515  20.123  0.00  0.00    +0.000 A 
ATOM     16  H   UNL     1      -8.075  13.076  21.418  0.00  0.00    +0.000 HD
ENDBRANCH   2   3
BRANCH   2  17
ATOM     17  C   UNL     1      -1.096  11.443  20.465  0.00  0.00    +0.000 A 
ATOM     18  C   UNL     1      -1.043  11.524  19.070  0.00  0.00    +0.000 A 
ATOM     19  C   UNL     1      -0.216  10.662  18.299  0.00  0.00    +0.000 A 
ATOM     20  C   UNL     1       0.595   9.673  18.879  0.00  0.00    +0.000 A 
ATOM     21  C   UNL     1       1.568   8.891  18.021  0.00  0.00    +0.000 C 
ATOM     22  C   UNL     1       0.508   9.496  20.275  0.00  0.00    +0.000 A 
ATOM     23  C   UNL     1       1.395   8.490  20.978  0.00  0.00    +0.000 C 
ATOM     24  C   UNL     1      -0.352  10.362  21.035  0.00  0.00    +0.000 A 
ENDBRANCH   2  17
BRANCH   1  28
ATOM     25  C   UNL     1       2.433  14.580  19.178  0.00  0.00    +0.000 A 
ATOM     26  C   UNL     1       2.546  13.807  20.332  0.00  0.00    +0.000 A 
ATOM     27  C   UNL     1       1.422  13.552  21.117  0.00  0.00    +0.000 A 
ATOM     28  C   UNL     1       0.172  14.067  20.750  0.00  0.00    +0.000 A 
ATOM     29  C   UNL     1       0.072  14.896  19.633  0.00  0.00    +0.000 A 
ATOM     30  C   UNL     1       1.203  15.152  18.848  0.00  0.00    +0.000 A 
BRANCH  25  32
ATOM     31  C   UNL     1       3.524  15.678  17.400  0.00  0.00    +0.000 C 
ATOM     32  O   UNL     1       3.595  14.748  18.476  0.00  0.00    +0.000 OA
ENDBRANCH  25  32
ENDBRANCH   1  28
TORSDOF 4
ENDMDL
