MODEL 1
REMARK VINA RESULT:      -7.6      0.000      0.000
REMARK  Name = 
REMARK  11 active torsions:
REMARK  status: ('A' for Active; 'I' for Inactive)
REMARK    1  A    between atoms: C_1  and  C_2
REMARK    2  A    between atoms: C_2  and  N_3
REMARK    3  A    between atoms: N_14  and  C_15
REMARK    4  A    between atoms: C_15  and  C_16
REMARK    5  A    between atoms: C_16  and  C_17
REMARK    6  A    between atoms: C_20  and  O_21
REMARK    7  A    between atoms: O_21  and  C_22
REMARK    8  A    between atoms: C_23  and  O_24
REMARK    9  A    between atoms: O_24  and  C_25
REMARK   10  A    between atoms: N_27  and  C_28
REMARK   11  A    between atoms: C_28  and  C_29
REMARK                            x       y       z     vdW  Elec       q    Type
REMARK                         _______ _______ _______ _____ _____    ______ ____
ROOT
ATOM      1  N   UNL     1       4.269   4.664  18.003  0.00  0.00    +0.000 N 
ATOM      2  C   UNL     1       3.926   5.992  17.744  0.00  0.00    +0.000 A 
ATOM      3  O   UNL     1       4.343   6.646  16.792  0.00  0.00    +0.000 OA
ATOM      4  C   UNL     1       3.030   6.525  18.706  0.00  0.00    +0.000 A 
ATOM      5  C   UNL     1       2.606   5.854  19.804  0.00  0.00    +0.000 A 
ATOM      6  N   UNL     1       1.749   6.610  20.554  0.00  0.00    +0.000 NA
ATOM      7  C   UNL     1       1.667   7.771  19.930  0.00  0.00    +0.000 A 
ATOM      8  N   UNL     1       2.400   7.727  18.762  0.00  0.00    +0.000 N 
ATOM      9  C   UNL     1       2.455   8.788  17.780  0.00  0.00    +0.000 C 
ATOM     10  C   UNL     1       1.346   9.804  17.998  0.00  0.00    +0.000 C 
ATOM     11  C   UNL     1       1.254  10.134  19.481  0.00  0.00    +0.000 C 
ATOM     12  N   UNL     1       1.013   8.919  20.267  0.00  0.00    +0.000 N 
ATOM     13  N   UNL     1       3.029   4.562  20.060  0.00  0.00    +0.000 N 
ATOM     14  C   UNL     1       3.899   3.938  19.154  0.00  0.00    +0.000 A 
ATOM     15  O   UNL     1       4.322   2.794  19.349  0.00  0.00    +0.000 OA
ENDROOT
BRANCH   1  17
ATOM     16  C   UNL     1       6.574   4.400  17.128  0.00  0.00    +0.000 C 
ATOM     17  C   UNL     1       5.109   4.005  17.010  0.00  0.00    +0.000 C 
ENDBRANCH   1  17
BRANCH  13  18
ATOM     18  C   UNL     1       2.560   3.827  21.230  0.00  0.00    +0.000 C 
ATOM     19  C   UNL     1       1.286   3.034  20.974  0.00  0.00    +0.000 C 
ENDBRANCH  13  18
BRANCH  12  20
ATOM     20  C   UNL     1      -0.115   8.950  21.207  0.00  0.00    +0.000 C 
BRANCH  20  21
ATOM     21  C   UNL     1      -0.017   9.995  22.322  0.00  0.00    +0.000 C 
BRANCH  21  22
ATOM     22  C   UNL     1      -1.067  11.076  22.187  0.00  0.00    +0.000 A 
ATOM     23  C   UNL     1      -1.383  11.591  20.929  0.00  0.00    +0.000 A 
ATOM     24  C   UNL     1      -2.372  12.565  20.804  0.00  0.00    +0.000 A 
ATOM     25  C   UNL     1      -3.060  13.051  21.925  0.00  0.00    +0.000 A 
ATOM     26  C   UNL     1      -2.740  12.552  23.201  0.00  0.00    +0.000 A 
ATOM     27  C   UNL     1      -1.740  11.570  23.314  0.00  0.00    +0.000 A 
BRANCH  25  28
ATOM     28  O   UNL     1      -3.995  13.994  21.580  0.00  0.00    +0.000 OA
ATOM     29  C   UNL     1      -3.606  15.356  21.523  0.00  0.00    +0.000 C 
ENDBRANCH  25  28
BRANCH  26  30
ATOM     30  O   UNL     1      -3.423  13.044  24.282  0.00  0.00    +0.000 OA
ATOM     31  C   UNL     1      -4.585  12.356  24.720  0.00  0.00    +0.000 C 
ENDBRANCH  26  30
ENDBRANCH  21  22
ENDBRANCH  20  21
ENDBRANCH  12  20
TORSDOF 7
ENDMDL
MODEL 2
REMARK VINA RESULT:      -7.5      0.956      1.759
REMARK  Name = 
REMARK  11 active torsions:
REMARK  status: ('A' for Active; 'I' for Inactive)
REMARK    1  A    between atoms: C_1  and  C_2
REMARK    2  A    between atoms: C_2  and  N_3
REMARK    3  A    between atoms: N_14  and  C_15
REMARK    4  A    between atoms: C_15  and  C_16
REMARK    5  A    between atoms: C_16  and  C_17
REMARK    6  A    between atoms: C_20  and  O_21
REMARK    7  A    between atoms: O_21  and  C_22
REMARK    8  A    between atoms: C_23  and  O_24
REMARK    9  A    between atoms: O_24  and  C_25
REMARK   10  A    between atoms: N_27  and  C_28
REMARK   11  A    between atoms: C_28  and  C_29
REMARK                            x       y       z     vdW  Elec       q    Type
REMARK                         _______ _______ _______ _____ _____    ______ ____
ROOT
ATOM      1  N   UNL     1       4.184   4.711  18.047  0.00  0.00    +0.000 N 
ATOM      2  C   UNL     1       3.844   6.041  17.796  0.00  0.00    +0.000 A 
ATOM      3  O   UNL     1       4.253   6.697  16.841  0.00  0.00    +0.000 OA
ATOM      4  C   UNL     1       2.961   6.574  18.770  0.00  0.00    +0.000 A 
ATOM      5  C   UNL     1       2.547   5.901  19.870  0.00  0.00    +0.000 A 
ATOM      6  N   UNL     1       1.701   6.658  20.632  0.00  0.00    +0.000 NA
ATOM      7  C   UNL     1       1.617   7.821  20.013  0.00  0.00    +0.000 A 
ATOM      8  N   UNL     1       2.337   7.778  18.837  0.00  0.00    +0.000 N 
ATOM      9  C   UNL     1       2.385   8.843  17.859  0.00  0.00    +0.000 C 
ATOM     10  C   UNL     1       1.282   9.862  18.092  0.00  0.00    +0.000 C 
ATOM     11  C   UNL     1       1.209  10.188  19.578  0.00  0.00    +0.000 C 
ATOM     12  N   UNL     1       0.972   8.971  20.361  0.00  0.00    +0.000 N 
ATOM     13  N   UNL     1       2.967   4.607  20.117  0.00  0.00    +0.000 N 
ATOM     14  C   UNL     1       3.824   3.982  19.199  0.00  0.00    +0.000 A 
ATOM     15  O   UNL     1       4.245   2.836  19.385  0.00  0.00    +0.000 OA
ENDROOT
BRANCH   1  17
ATOM     16  C   UNL     1       6.487   4.389  17.186  0.00  0.00    +0.000 C 
ATOM     17  C   UNL     1       5.010   4.052  17.041  0.00  0.00    +0.000 C 
ENDBRANCH   1  17
BRANCH  13  18
ATOM     18  C   UNL     1       2.508   3.869  21.289  0.00  0.00    +0.000 C 
ATOM     19  C   UNL     1       1.235   3.073  21.042  0.00  0.00    +0.000 C 
ENDBRANCH  13  18
BRANCH  12  20
ATOM     20  C   UNL     1      -0.146   9.003  21.314  0.00  0.00    +0.000 C 
BRANCH  20  21
ATOM     21  C   UNL     1       0.060   9.893  22.544  0.00  0.00    +0.000 C 
BRANCH  21  22
ATOM     22  C   UNL     1      -0.791  11.142  22.495  0.00  0.00    +0.000 A 
ATOM     23  C   UNL     1      -1.934  11.241  23.289  0.00  0.00    +0.000 A 
ATOM     24  C   UNL     1      -2.700  12.406  23.264  0.00  0.00    +0.000 A 
ATOM     25  C   UNL     1      -2.350  13.490  22.446  0.00  0.00    +0.000 A 
ATOM     26  C   UNL     1      -1.208  13.397  21.629  0.00  0.00    +0.000 A 
ATOM     27  C   UNL     1      -0.445  12.217  21.662  0.00  0.00    +0.000 A 
BRANCH  25  28
ATOM     28  O   UNL     1      -3.228  14.535  22.581  0.00  0.00    +0.000 OA
ATOM     29  C   UNL     1      -4.374  14.578  21.748  0.00  0.00    +0.000 C 
ENDBRANCH  25  28
BRANCH  26  30
ATOM     30  O   UNL     1      -0.887  14.467  20.836  0.00  0.00    +0.000 OA
ATOM     31  C   UNL     1      -0.279  14.221  19.577  0.00  0.00    +0.000 C 
ENDBRANCH  26  30
ENDBRANCH  21  22
ENDBRANCH  20  21
ENDBRANCH  12  20
TORSDOF 7
ENDMDL
MODEL 3
REMARK VINA RESULT:      -7.4      3.091      9.971
REMARK  Name = 
REMARK  11 active torsions:
REMARK  status: ('A' for Active; 'I' for Inactive)
REMARK    1  A    between atoms: C_1  and  C_2
REMARK    2  A    between atoms: C_2  and  N_3
REMARK    3  A    between atoms: N_14  and  C_15
REMARK    4  A    between atoms: C_15  and  C_16
REMARK    5  A    between atoms: C_16  and  C_17
REMARK    6  A    between atoms: C_20  and  O_21
REMARK    7  A    between atoms: O_21  and  C_22
REMARK    8  A    between atoms: C_23  and  O_24
REMARK    9  A    between atoms: O_24  and  C_25
REMARK   10  A    between atoms: N_27  and  C_28
REMARK   11  A    between atoms: C_28  and  C_29
REMARK                            x       y       z     vdW  Elec       q    Type
REMARK                         _______ _______ _______ _____ _____    ______ ____
ROOT
ATOM      1  N   UNL     1      -4.487  12.183  18.927  0.00  0.00    +0.000 N 
ATOM      2  C   UNL     1      -3.270  12.294  19.602  0.00  0.00    +0.000 A 
ATOM      3  O   UNL     1      -3.084  12.997  20.593  0.00  0.00    +0.000 OA
ATOM      4  C   UNL     1      -2.247  11.501  19.022  0.00  0.00    +0.000 A 
ATOM      5  C   UNL     1      -2.400  10.771  17.891  0.00  0.00    +0.000 A 
ATOM      6  N   UNL     1      -1.251  10.107  17.564  0.00  0.00    +0.000 NA
ATOM      7  C   UNL     1      -0.370  10.455  18.484  0.00  0.00    +0.000 A 
ATOM      8  N   UNL     1      -0.970  11.267  19.423  0.00  0.00    +0.000 N 
ATOM      9  C   UNL     1      -0.329  11.755  20.626  0.00  0.00    +0.000 C 
ATOM     10  C   UNL     1       0.952  10.992  20.920  0.00  0.00    +0.000 C 
ATOM     11  C   UNL     1       1.750  10.838  19.633  0.00  0.00    +0.000 C 
ATOM     12  N   UNL     1       0.953  10.150  18.612  0.00  0.00    +0.000 N 
ATOM     13  N   UNL     1      -3.605  10.746  17.214  0.00  0.00    +0.000 N 
ATOM     14  C   UNL     1      -4.687  11.480  17.721  0.00  0.00    +0.000 A 
ATOM     15  O   UNL     1      -5.777  11.509  17.141  0.00  0.00    +0.000 OA
ENDROOT
BRANCH   1  17
ATOM     16  C   UNL     1      -6.531  11.968  20.314  0.00  0.00    +0.000 C 
ATOM     17  C   UNL     1      -5.620  12.888  19.514  0.00  0.00    +0.000 C 
ENDBRANCH   1  17
BRANCH  13  18
ATOM     18  C   UNL     1      -3.782   9.945  16.007  0.00  0.00    +0.000 C 
ATOM     19  C   UNL     1      -3.143  10.565  14.772  0.00  0.00    +0.000 C 
ENDBRANCH  13  18
BRANCH  12  20
ATOM     20  C   UNL     1       1.571   8.986  17.962  0.00  0.00    +0.000 C 
BRANCH  20  21
ATOM     21  C   UNL     1       2.128   7.919  18.909  0.00  0.00    +0.000 C 
BRANCH  21  22
ATOM     22  C   UNL     1       3.008   6.919  18.192  0.00  0.00    +0.000 A 
ATOM     23  C   UNL     1       3.970   7.361  17.282  0.00  0.00    +0.000 A 
ATOM     24  C   UNL     1       4.799   6.439  16.645  0.00  0.00    +0.000 A 
ATOM     25  C   UNL     1       4.685   5.064  16.893  0.00  0.00    +0.000 A 
ATOM     26  C   UNL     1       3.708   4.605  17.796  0.00  0.00    +0.000 A 
ATOM     27  C   UNL     1       2.877   5.543  18.432  0.00  0.00    +0.000 A 
BRANCH  25  28
ATOM     28  O   UNL     1       5.600   4.339  16.173  0.00  0.00    +0.000 OA
ATOM     29  C   UNL     1       6.973   4.441  16.511  0.00  0.00    +0.000 C 
ENDBRANCH  25  28
BRANCH  26  30
ATOM     30  O   UNL     1       3.613   3.256  18.021  0.00  0.00    +0.000 OA
ATOM     31  C   UNL     1       2.427   2.584  17.621  0.00  0.00    +0.000 C 
ENDBRANCH  26  30
ENDBRANCH  21  22
ENDBRANCH  20  21
ENDBRANCH  12  20
TORSDOF 7
ENDMDL
MODEL 4
REMARK VINA RESULT:      -7.2      3.914     10.222
REMARK  Name = 
REMARK  11 active torsions:
REMARK  status: ('A' for Active; 'I' for Inactive)
REMARK    1  A    between atoms: C_1  and  C_2
REMARK    2  A    between atoms: C_2  and  N_3
REMARK    3  A    between atoms: N_14  and  C_15
REMARK    4  A    between atoms: C_15  and  C_16
REMARK    5  A    between atoms: C_16  and  C_17
REMARK    6  A    between atoms: C_20  and  O_21
REMARK    7  A    between atoms: O_21  and  C_22
REMARK    8  A    between atoms: C_23  and  O_24
REMARK    9  A    between atoms: O_24  and  C_25
REMARK   10  A    between atoms: N_27  and  C_28
REMARK   11  A    between atoms: C_28  and  C_29
REMARK                            x       y       z     vdW  Elec       q    Type
REMARK                         _______ _______ _______ _____ _____    ______ ____
ROOT
ATOM      1  N   UNL     1       0.793  16.311  18.827  0.00  0.00    +0.000 N 
ATOM      2  C   UNL     1       0.071  15.172  19.186  0.00  0.00    +0.000 A 
ATOM      3  O   UNL     1      -1.051  15.187  19.687  0.00  0.00    +0.000 OA
ATOM      4  C   UNL     1       0.772  13.970  18.913  0.00  0.00    +0.000 A 
ATOM      5  C   UNL     1       2.036  13.920  18.427  0.00  0.00    +0.000 A 
ATOM      6  N   UNL     1       2.459  12.631  18.260  0.00  0.00    +0.000 NA
ATOM      7  C   UNL     1       1.457  11.877  18.676  0.00  0.00    +0.000 A 
ATOM      8  N   UNL     1       0.388  12.672  19.030  0.00  0.00    +0.000 N 
ATOM      9  C   UNL     1      -0.910  12.179  19.437  0.00  0.00    +0.000 C 
ATOM     10  C   UNL     1      -1.079  10.709  19.092  0.00  0.00    +0.000 C 
ATOM     11  C   UNL     1       0.186   9.955  19.481  0.00  0.00    +0.000 C 
ATOM     12  N   UNL     1       1.355  10.523  18.801  0.00  0.00    +0.000 N 
ATOM     13  N   UNL     1       2.742  15.077  18.152  0.00  0.00    +0.000 N 
ATOM     14  C   UNL     1       2.127  16.319  18.368  0.00  0.00    +0.000 A 
ATOM     15  O   UNL     1       2.722  17.380  18.159  0.00  0.00    +0.000 OA
ENDROOT
BRANCH   1  17
ATOM     16  C   UNL     1      -0.657  17.999  17.733  0.00  0.00    +0.000 C 
ATOM     17  C   UNL     1       0.108  17.589  18.983  0.00  0.00    +0.000 C 
ENDBRANCH   1  17
BRANCH  13  18
ATOM     18  C   UNL     1       4.096  15.030  17.610  0.00  0.00    +0.000 C 
ATOM     19  C   UNL     1       5.174  14.972  18.683  0.00  0.00    +0.000 C 
ENDBRANCH  13  18
BRANCH  12  20
ATOM     20  C   UNL     1       2.215   9.585  18.068  0.00  0.00    +0.000 C 
BRANCH  20  21
ATOM     21  C   UNL     1       1.644   8.176  17.876  0.00  0.00    +0.000 C 
BRANCH  21  22
ATOM     22  C   UNL     1       2.726   7.119  17.846  0.00  0.00    +0.000 A 
ATOM     23  C   UNL     1       4.015   7.450  17.429  0.00  0.00    +0.000 A 
ATOM     24  C   UNL     1       5.018   6.481  17.431  0.00  0.00    +0.000 A 
ATOM     25  C   UNL     1       4.757   5.166  17.840  0.00  0.00    +0.000 A 
ATOM     26  C   UNL     1       3.457   4.815  18.248  0.00  0.00    +0.000 A 
ATOM     27  C   UNL     1       2.454   5.801  18.241  0.00  0.00    +0.000 A 
BRANCH  25  28
ATOM     28  O   UNL     1       5.879   4.380  17.775  0.00  0.00    +0.000 OA
ATOM     29  C   UNL     1       6.834   4.632  16.758  0.00  0.00    +0.000 C 
ENDBRANCH  25  28
BRANCH  26  30
ATOM     30  O   UNL     1       3.225   3.523  18.641  0.00  0.00    +0.000 OA
ATOM     31  C   UNL     1       3.423   3.183  20.005  0.00  0.00    +0.000 C 
ENDBRANCH  26  30
ENDBRANCH  21  22
ENDBRANCH  20  21
ENDBRANCH  12  20
TORSDOF 7
ENDMDL
MODEL 5
REMARK VINA RESULT:      -7.1      2.949      9.874
REMARK  Name = 
REMARK  11 active torsions:
REMARK  status: ('A' for Active; 'I' for Inactive)
REMARK    1  A    between atoms: C_1  and  C_2
REMARK    2  A    between atoms: C_2  and  N_3
REMARK    3  A    between atoms: N_14  and  C_15
REMARK    4  A    between atoms: C_15  and  C_16
REMARK    5  A    between atoms: C_16  and  C_17
REMARK    6  A    between atoms: C_20  and  O_21
REMARK    7  A    between atoms: O_21  and  C_22
REMARK    8  A    between atoms: C_23  and  O_24
REMARK    9  A    between atoms: O_24  and  C_25
REMARK   10  A    between atoms: N_27  and  C_28
REMARK   11  A    between atoms: C_28  and  C_29
REMARK                            x       y       z     vdW  Elec       q    Type
REMARK                         _______ _______ _______ _____ _____    ______ ____
ROOT
ATOM      1  N   UNL     1      -4.331  12.231  18.793  0.00  0.00    +0.000 N 
ATOM      2  C   UNL     1      -3.370  12.063  19.791  0.00  0.00    +0.000 A 
ATOM      3  O   UNL     1      -3.492  12.455  20.949  0.00  0.00    +0.000 OA
ATOM      4  C   UNL     1      -2.215  11.381  19.330  0.00  0.00    +0.000 A 
ATOM      5  C   UNL     1      -2.019  10.998  18.045  0.00  0.00    +0.000 A 
ATOM      6  N   UNL     1      -0.820  10.362  17.888  0.00  0.00    +0.000 NA
ATOM      7  C   UNL     1      -0.254  10.380  19.082  0.00  0.00    +0.000 A 
ATOM      8  N   UNL     1      -1.113  10.951  19.998  0.00  0.00    +0.000 N 
ATOM      9  C   UNL     1      -0.861  11.044  21.420  0.00  0.00    +0.000 C 
ATOM     10  C   UNL     1       0.281  10.135  21.842  0.00  0.00    +0.000 C 
ATOM     11  C   UNL     1       1.426  10.275  20.849  0.00  0.00    +0.000 C 
ATOM     12  N   UNL     1       0.974   9.952  19.492  0.00  0.00    +0.000 N 
ATOM     13  N   UNL     1      -2.969  11.250  17.072  0.00  0.00    +0.000 N 
ATOM     14  C   UNL     1      -4.159  11.900  17.433  0.00  0.00    +0.000 A 
ATOM     15  O   UNL     1      -5.028  12.167  16.597  0.00  0.00    +0.000 OA
ENDROOT
BRANCH   1  17
ATOM     16  C   UNL     1      -6.602  11.807  19.693  0.00  0.00    +0.000 C 
ATOM     17  C   UNL     1      -5.593  12.835  19.204  0.00  0.00    +0.000 C 
ENDBRANCH   1  17
BRANCH  13  18
ATOM     18  C   UNL     1      -2.774  10.822  15.691  0.00  0.00    +0.000 C 
ATOM     19  C   UNL     1      -3.450   9.497  15.368  0.00  0.00    +0.000 C 
ENDBRANCH  13  18
BRANCH  12  20
ATOM     20  C   UNL     1       1.766   8.965  18.747  0.00  0.00    +0.000 C 
BRANCH  20  21
ATOM     21  C   UNL     1       2.062   7.659  19.490  0.00  0.00    +0.000 C 
BRANCH  21  22
ATOM     22  C   UNL     1       3.132   6.839  18.803  0.00  0.00    +0.000 A 
ATOM     23  C   UNL     1       3.650   7.253  17.576  0.00  0.00    +0.000 A 
ATOM     24  C   UNL     1       4.657   6.511  16.959  0.00  0.00    +0.000 A 
ATOM     25  C   UNL     1       5.163   5.343  17.547  0.00  0.00    +0.000 A 
ATOM     26  C   UNL     1       4.638   4.906  18.777  0.00  0.00    +0.000 A 
ATOM     27  C   UNL     1       3.623   5.661  19.388  0.00  0.00    +0.000 A 
BRANCH  25  28
ATOM     28  O   UNL     1       6.151   4.776  16.783  0.00  0.00    +0.000 OA
ATOM     29  C   UNL     1       5.790   3.846  15.775  0.00  0.00    +0.000 C 
ENDBRANCH  25  28
BRANCH  26  30
ATOM     30  O   UNL     1       5.146   3.760  19.330  0.00  0.00    +0.000 OA
ATOM     31  C   UNL     1       4.242   2.815  19.883  0.00  0.00    +0.000 C 
ENDBRANCH  26  30
ENDBRANCH  21  22
ENDBRANCH  20  21
ENDBRANCH  12  20
TORSDOF 7
ENDMDL
MODEL 6
REMARK VINA RESULT:      -7.1      2.789      4.506
REMARK  Name = 
REMARK  11 active torsions:
REMARK  status: ('A' for Active; 'I' for Inactive)
REMARK    1  A    between atoms: C_1  and  C_2
REMARK    2  A    between atoms: C_2  and  N_3
REMARK    3  A    between atoms: N_14  and  C_15
REMARK    4  A    between atoms: C_15  and  C_16
REMARK    5  A    between atoms: C_16  and  C_17
REMARK    6  A    between atoms: C_20  and  O_21
REMARK    7  A    between atoms: O_21  and  C_22
REMARK    8  A    between atoms: C_23  and  O_24
REMARK    9  A    between atoms: O_24  and  C_25
REMARK   10  A    between atoms: N_27  and  C_28
REMARK   11  A    between atoms: C_28  and  C_29
REMARK                            x       y       z     vdW  Elec       q    Type
REMARK                         _______ _______ _______ _____ _____    ______ ____
ROOT
ATOM      1  N   UNL     1       3.728   4.334  19.407  0.00  0.00    +0.000 N 
ATOM      2  C   UNL     1       2.797   5.049  20.161  0.00  0.00    +0.000 A 
ATOM      3  O   UNL     1       2.250   4.625  21.177  0.00  0.00    +0.000 OA
ATOM      4  C   UNL     1       2.537   6.339  19.634  0.00  0.00    +0.000 A 
ATOM      5  C   UNL     1       3.070   6.810  18.480  0.00  0.00    +0.000 A 
ATOM      6  N   UNL     1       2.647   8.082  18.215  0.00  0.00    +0.000 NA
ATOM      7  C   UNL     1       1.820   8.389  19.198  0.00  0.00    +0.000 A 
ATOM      8  N   UNL     1       1.777   7.358  20.112  0.00  0.00    +0.000 N 
ATOM      9  C   UNL     1       1.052   7.393  21.364  0.00  0.00    +0.000 C 
ATOM     10  C   UNL     1       0.636   8.809  21.726  0.00  0.00    +0.000 C 
ATOM     11  C   UNL     1       0.070   9.496  20.491  0.00  0.00    +0.000 C 
ATOM     12  N   UNL     1       1.056   9.500  19.405  0.00  0.00    +0.000 N 
ATOM     13  N   UNL     1       3.934   6.038  17.725  0.00  0.00    +0.000 N 
ATOM     14  C   UNL     1       4.272   4.754  18.175  0.00  0.00    +0.000 A 
ATOM     15  O   UNL     1       5.021   4.018  17.526  0.00  0.00    +0.000 OA
ENDROOT
BRANCH   1  17
ATOM     16  C   UNL     1       3.278   1.895  19.387  0.00  0.00    +0.000 C 
ATOM     17  C   UNL     1       4.128   3.034  19.933  0.00  0.00    +0.000 C 
ENDBRANCH   1  17
BRANCH  13  18
ATOM     18  C   UNL     1       4.527   6.547  16.492  0.00  0.00    +0.000 C 
ATOM     19  C   UNL     1       5.957   7.038  16.668  0.00  0.00    +0.000 C 
ENDBRANCH  13  18
BRANCH  12  20
ATOM     20  C   UNL     1       1.341  10.795  18.773  0.00  0.00    +0.000 C 
BRANCH  20  21
ATOM     21  C   UNL     1       0.338  11.913  19.077  0.00  0.00    +0.000 C 
BRANCH  21  22
ATOM     22  C   UNL     1      -1.056  11.579  18.593  0.00  0.00    +0.000 A 
ATOM     23  C   UNL     1      -2.168  12.111  19.245  0.00  0.00    +0.000 A 
ATOM     24  C   UNL     1      -3.451  11.826  18.779  0.00  0.00    +0.000 A 
ATOM     25  C   UNL     1      -3.652  11.002  17.662  0.00  0.00    +0.000 A 
ATOM     26  C   UNL     1      -2.539  10.446  17.005  0.00  0.00    +0.000 A 
ATOM     27  C   UNL     1      -1.251  10.741  17.485  0.00  0.00    +0.000 A 
BRANCH  25  28
ATOM     28  O   UNL     1      -4.984  10.860  17.367  0.00  0.00    +0.000 OA
ATOM     29  C   UNL     1      -5.941  11.114  18.382  0.00  0.00    +0.000 C 
ENDBRANCH  25  28
BRANCH  26  30
ATOM     30  O   UNL     1      -2.760   9.642  15.917  0.00  0.00    +0.000 OA
ATOM     31  C   UNL     1      -2.984  10.254  14.656  0.00  0.00    +0.000 C 
ENDBRANCH  26  30
ENDBRANCH  21  22
ENDBRANCH  20  21
ENDBRANCH  12  20
TORSDOF 7
ENDMDL
MODEL 7
REMARK VINA RESULT:      -7.0      2.234     10.106
REMARK  Name = 
REMARK  11 active torsions:
REMARK  status: ('A' for Active; 'I' for Inactive)
REMARK    1  A    between atoms: C_1  and  C_2
REMARK    2  A    between atoms: C_2  and  N_3
REMARK    3  A    between atoms: N_14  and  C_15
REMARK    4  A    between atoms: C_15  and  C_16
REMARK    5  A    between atoms: C_16  and  C_17
REMARK    6  A    between atoms: C_20  and  O_21
REMARK    7  A    between atoms: O_21  and  C_22
REMARK    8  A    between atoms: C_23  and  O_24
REMARK    9  A    between atoms: O_24  and  C_25
REMARK   10  A    between atoms: N_27  and  C_28
REMARK   11  A    between atoms: C_28  and  C_29
REMARK                            x       y       z     vdW  Elec       q    Type
REMARK                         _______ _______ _______ _____ _____    ______ ____
ROOT
ATOM      1  N   UNL     1      -1.566  13.071  22.093  0.00  0.00    +0.000 N 
ATOM      2  C   UNL     1      -1.051  11.803  22.370  0.00  0.00    +0.000 A 
ATOM      3  O   UNL     1      -1.178  11.219  23.443  0.00  0.00    +0.000 OA
ATOM      4  C   UNL     1      -0.355  11.242  21.270  0.00  0.00    +0.000 A 
ATOM      5  C   UNL     1      -0.138  11.887  20.098  0.00  0.00    +0.000 A 
ATOM      6  N   UNL     1       0.560  11.107  19.218  0.00  0.00    +0.000 NA
ATOM      7  C   UNL     1       0.804   9.982  19.864  0.00  0.00    +0.000 A 
ATOM      8  N   UNL     1       0.206  10.016  21.106  0.00  0.00    +0.000 N 
ATOM      9  C   UNL     1       0.183   8.913  22.043  0.00  0.00    +0.000 C 
ATOM     10  C   UNL     1       0.576   7.607  21.373  0.00  0.00    +0.000 C 
ATOM     11  C   UNL     1       1.797   7.843  20.495  0.00  0.00    +0.000 C 
ATOM     12  N   UNL     1       1.522   8.881  19.496  0.00  0.00    +0.000 N 
ATOM     13  N   UNL     1      -0.604  13.172  19.893  0.00  0.00    +0.000 N 
ATOM     14  C   UNL     1      -1.327  13.807  20.914  0.00  0.00    +0.000 A 
ATOM     15  O   UNL     1      -1.745  14.962  20.788  0.00  0.00    +0.000 OA
ENDROOT
BRANCH   1  17
ATOM     16  C   UNL     1      -3.840  13.252  23.064  0.00  0.00    +0.000 C 
ATOM     17  C   UNL     1      -2.382  13.681  23.136  0.00  0.00    +0.000 C 
ENDBRANCH   1  17
BRANCH  13  18
ATOM     18  C   UNL     1      -0.392  13.865  18.626  0.00  0.00    +0.000 C 
ATOM     19  C   UNL     1       0.880  14.701  18.601  0.00  0.00    +0.000 C 
ENDBRANCH  13  18
BRANCH  12  20
ATOM     20  C   UNL     1       1.814   8.549  18.096  0.00  0.00    +0.000 C 
BRANCH  20  21
ATOM     21  C   UNL     1       3.241   8.070  17.814  0.00  0.00    +0.000 C 
BRANCH  21  22
ATOM     22  C   UNL     1       3.324   6.565  17.683  0.00  0.00    +0.000 A 
ATOM     23  C   UNL     1       2.219   5.774  17.998  0.00  0.00    +0.000 A 
ATOM     24  C   UNL     1       2.289   4.389  17.848  0.00  0.00    +0.000 A 
ATOM     25  C   UNL     1       3.459   3.766  17.390  0.00  0.00    +0.000 A 
ATOM     26  C   UNL     1       4.586   4.551  17.085  0.00  0.00    +0.000 A 
ATOM     27  C   UNL     1       4.503   5.946  17.241  0.00  0.00    +0.000 A 
BRANCH  25  28
ATOM     28  O   UNL     1       3.311   2.405  17.306  0.00  0.00    +0.000 OA
ATOM     29  C   UNL     1       3.385   1.633  18.493  0.00  0.00    +0.000 C 
ENDBRANCH  25  28
BRANCH  26  30
ATOM     30  O   UNL     1       5.719   3.919  16.643  0.00  0.00    +0.000 OA
ATOM     31  C   UNL     1       6.031   3.978  15.259  0.00  0.00    +0.000 C 
ENDBRANCH  26  30
ENDBRANCH  21  22
ENDBRANCH  20  21
ENDBRANCH  12  20
TORSDOF 7
ENDMDL
MODEL 8
REMARK VINA RESULT:      -7.0      3.749      5.383
REMARK  Name = 
REMARK  11 active torsions:
REMARK  status: ('A' for Active; 'I' for Inactive)
REMARK    1  A    between atoms: C_1  and  C_2
REMARK    2  A    between atoms: C_2  and  N_3
REMARK    3  A    between atoms: N_14  and  C_15
REMARK    4  A    between atoms: C_15  and  C_16
REMARK    5  A    between atoms: C_16  and  C_17
REMARK    6  A    between atoms: C_20  and  O_21
REMARK    7  A    between atoms: O_21  and  C_22
REMARK    8  A    between atoms: C_23  and  O_24
REMARK    9  A    between atoms: O_24  and  C_25
REMARK   10  A    between atoms: N_27  and  C_28
REMARK   11  A    between atoms: C_28  and  C_29
REMARK                            x       y       z     vdW  Elec       q    Type
REMARK                         _______ _______ _______ _____ _____    ______ ____
ROOT
ATOM      1  N   UNL     1       3.676   4.322  19.205  0.00  0.00    +0.000 N 
ATOM      2  C   UNL     1       2.754   5.088  19.920  0.00  0.00    +0.000 A 
ATOM      3  O   UNL     1       2.121   4.686  20.894  0.00  0.00    +0.000 OA
ATOM      4  C   UNL     1       2.614   6.401  19.405  0.00  0.00    +0.000 A 
ATOM      5  C   UNL     1       3.244   6.852  18.293  0.00  0.00    +0.000 A 
ATOM      6  N   UNL     1       2.925   8.155  18.030  0.00  0.00    +0.000 NA
ATOM      7  C   UNL     1       2.066   8.503  18.970  0.00  0.00    +0.000 A 
ATOM      8  N   UNL     1       1.899   7.463  19.860  0.00  0.00    +0.000 N 
ATOM      9  C   UNL     1       1.106   7.528  21.069  0.00  0.00    +0.000 C 
ATOM     10  C   UNL     1       0.769   8.963  21.435  0.00  0.00    +0.000 C 
ATOM     11  C   UNL     1       0.323   9.707  20.184  0.00  0.00    +0.000 C 
ATOM     12  N   UNL     1       1.369   9.660  19.156  0.00  0.00    +0.000 N 
ATOM     13  N   UNL     1       4.095   6.035  17.572  0.00  0.00    +0.000 N 
ATOM     14  C   UNL     1       4.318   4.723  18.015  0.00  0.00    +0.000 A 
ATOM     15  O   UNL     1       5.052   3.947  17.395  0.00  0.00    +0.000 OA
ENDROOT
BRANCH   1  17
ATOM     16  C   UNL     1       3.103   1.913  19.068  0.00  0.00    +0.000 C 
ATOM     17  C   UNL     1       3.955   2.989  19.727  0.00  0.00    +0.000 C 
ENDBRANCH   1  17
BRANCH  13  18
ATOM     18  C   UNL     1       4.792   6.521  16.386  0.00  0.00    +0.000 C 
ATOM     19  C   UNL     1       6.205   7.010  16.673  0.00  0.00    +0.000 C 
ENDBRANCH  13  18
BRANCH  12  20
ATOM     20  C   UNL     1       1.777  10.943  18.567  0.00  0.00    +0.000 C 
BRANCH  20  21
ATOM     21  C   UNL     1       0.774  12.089  18.720  0.00  0.00    +0.000 C 
BRANCH  21  22
ATOM     22  C   UNL     1       1.452  13.441  18.775  0.00  0.00    +0.000 A 
ATOM     23  C   UNL     1       0.917  14.459  19.564  0.00  0.00    +0.000 A 
ATOM     24  C   UNL     1       1.560  15.694  19.636  0.00  0.00    +0.000 A 
ATOM     25  C   UNL     1       2.741  15.942  18.922  0.00  0.00    +0.000 A 
ATOM     26  C   UNL     1       3.282  14.928  18.110  0.00  0.00    +0.000 A 
ATOM     27  C   UNL     1       2.624  13.688  18.045  0.00  0.00    +0.000 A 
BRANCH  25  28
ATOM     28  O   UNL     1       3.213  17.211  19.142  0.00  0.00    +0.000 OA
ATOM     29  C   UNL     1       4.118  17.430  20.211  0.00  0.00    +0.000 C 
ENDBRANCH  25  28
BRANCH  26  30
ATOM     30  O   UNL     1       4.436  15.194  17.419  0.00  0.00    +0.000 OA
ATOM     31  C   UNL     1       5.648  14.612  17.874  0.00  0.00    +0.000 C 
ENDBRANCH  26  30
ENDBRANCH  21  22
ENDBRANCH  20  21
ENDBRANCH  12  20
TORSDOF 7
ENDMDL
MODEL 9
REMARK VINA RESULT:      -7.0      3.637      5.098
REMARK  Name = 
REMARK  11 active torsions:
REMARK  status: ('A' for Active; 'I' for Inactive)
REMARK    1  A    between atoms: C_1  and  C_2
REMARK    2  A    between atoms: C_2  and  N_3
REMARK    3  A    between atoms: N_14  and  C_15
REMARK    4  A    between atoms: C_15  and  C_16
REMARK    5  A    between atoms: C_16  and  C_17
REMARK    6  A    between atoms: C_20  and  O_21
REMARK    7  A    between atoms: O_21  and  C_22
REMARK    8  A    between atoms: C_23  and  O_24
REMARK    9  A    between atoms: O_24  and  C_25
REMARK   10  A    between atoms: N_27  and  C_28
REMARK   11  A    between atoms: C_28  and  C_29
REMARK                            x       y       z     vdW  Elec       q    Type
REMARK                         _______ _______ _______ _____ _____    ______ ____
ROOT
ATOM      1  N   UNL     1       3.621   4.246  19.190  0.00  0.00    +0.000 N 
ATOM      2  C   UNL     1       2.717   5.039  19.898  0.00  0.00    +0.000 A 
ATOM      3  O   UNL     1       2.083   4.663  20.881  0.00  0.00    +0.000 OA
ATOM      4  C   UNL     1       2.597   6.346  19.363  0.00  0.00    +0.000 A 
ATOM      5  C   UNL     1       3.229   6.769  18.241  0.00  0.00    +0.000 A 
ATOM      6  N   UNL     1       2.931   8.073  17.959  0.00  0.00    +0.000 NA
ATOM      7  C   UNL     1       2.083   8.450  18.898  0.00  0.00    +0.000 A 
ATOM      8  N   UNL     1       1.903   7.427  19.805  0.00  0.00    +0.000 N 
ATOM      9  C   UNL     1       1.118   7.524  21.017  0.00  0.00    +0.000 C 
ATOM     10  C   UNL     1       0.807   8.971  21.363  0.00  0.00    +0.000 C 
ATOM     11  C   UNL     1       0.368   9.703  20.102  0.00  0.00    +0.000 C 
ATOM     12  N   UNL     1       1.407   9.622  19.070  0.00  0.00    +0.000 N 
ATOM     13  N   UNL     1       4.062   5.926  17.529  0.00  0.00    +0.000 N 
ATOM     14  C   UNL     1       4.264   4.617  17.991  0.00  0.00    +0.000 A 
ATOM     15  O   UNL     1       4.981   3.819  17.379  0.00  0.00    +0.000 OA
ENDROOT
BRANCH   1  17
ATOM     16  C   UNL     1       2.987   1.850  19.114  0.00  0.00    +0.000 C 
ATOM     17  C   UNL     1       3.880   2.916  19.731  0.00  0.00    +0.000 C 
ENDBRANCH   1  17
BRANCH  13  18
ATOM     18  C   UNL     1       4.760   6.381  16.331  0.00  0.00    +0.000 C 
ATOM     19  C   UNL     1       6.156   6.918  16.614  0.00  0.00    +0.000 C 
ENDBRANCH  13  18
BRANCH  12  20
ATOM     20  C   UNL     1       1.834  10.888  18.459  0.00  0.00    +0.000 C 
BRANCH  20  21
ATOM     21  C   UNL     1       0.930  12.093  18.735  0.00  0.00    +0.000 C 
BRANCH  21  22
ATOM     22  C   UNL     1       1.687  13.402  18.679  0.00  0.00    +0.000 A 
ATOM     23  C   UNL     1       2.992  13.434  18.185  0.00  0.00    +0.000 A 
ATOM     24  C   UNL     1       3.677  14.646  18.107  0.00  0.00    +0.000 A 
ATOM     25  C   UNL     1       3.082  15.845  18.524  0.00  0.00    +0.000 A 
ATOM     26  C   UNL     1       1.773  15.824  19.039  0.00  0.00    +0.000 A 
ATOM     27  C   UNL     1       1.093  14.596  19.113  0.00  0.00    +0.000 A 
BRANCH  25  28
ATOM     28  O   UNL     1       3.921  16.917  18.352  0.00  0.00    +0.000 OA
ATOM     29  C   UNL     1       5.110  16.986  19.123  0.00  0.00    +0.000 C 
ENDBRANCH  25  28
BRANCH  26  30
ATOM     30  O   UNL     1       1.213  17.008  19.443  0.00  0.00    +0.000 OA
ATOM     31  C   UNL     1       1.384  17.413  20.793  0.00  0.00    +0.000 C 
ENDBRANCH  26  30
ENDBRANCH  21  22
ENDBRANCH  20  21
ENDBRANCH  12  20
TORSDOF 7
ENDMDL
