MODEL 1
REMARK VINA RESULT:      -7.0      0.000      0.000
REMARK  Name = 
REMARK  0 active torsions:
REMARK  status: ('A' for Active; 'I' for Inactive)
REMARK                            x       y       z     vdW  Elec       q    Type
REMARK                         _______ _______ _______ _____ _____    ______ ____
ROOT
ATOM      1  C   UNL     1       4.134   2.119  19.826  0.00  0.00    +0.000 C 
ATOM      2  C   UNL     1       3.509   3.454  20.194  0.00  0.00    +0.000 C 
ATOM      3  C   UNL     1       2.194   3.499  19.493  0.00  0.00    +0.000 C 
ATOM      4  C   UNL     1       2.308   3.581  17.969  0.00  0.00    +0.000 C 
ATOM      5  C   UNL     1       2.549   2.076  17.659  0.00  0.00    +0.000 C 
ATOM      6  C   UNL     1       3.900   1.633  18.360  0.00  0.00    +0.000 C 
ATOM      7  O   UNL     1       1.083   4.298  17.711  0.00  0.00    +0.000 OA
ATOM      8  O   UNL     1       1.439   5.719  17.301  0.00  0.00    +0.000 OA
ATOM      9  C   UNL     1       1.940   6.643  18.333  0.00  0.00    +0.000 C 
ATOM     10  C   UNL     1       1.338   8.006  17.897  0.00  0.00    +0.000 C 
ATOM     11  C   UNL     1       1.749   9.188  18.792  0.00  0.00    +0.000 C 
ATOM     12  C   UNL     1       1.319   8.975  20.232  0.00  0.00    +0.000 C 
ATOM     13  C   UNL     1       1.864   7.663  20.748  0.00  0.00    +0.000 C 
ATOM     14  C   UNL     1       1.536   6.478  19.821  0.00  0.00    +0.000 C 
ATOM     15  O   UNL     1       3.385   6.809  18.403  0.00  0.00    +0.000 OA
ATOM     16  O   UNL     1       4.053   6.551  17.121  0.00  0.00    +0.000 OA
ATOM     17  C   UNL     1       5.085   5.570  17.406  0.00  0.00    +0.000 C 
ATOM     18  C   UNL     1       5.996   5.334  16.185  0.00  0.00    +0.000 C 
ATOM     19  C   UNL     1       7.080   4.276  16.471  0.00  0.00    +0.000 C 
ATOM     20  C   UNL     1       7.909   4.620  17.707  0.00  0.00    +0.000 C 
ATOM     21  C   UNL     1       7.030   4.925  18.919  0.00  0.00    +0.000 C 
ATOM     22  C   UNL     1       5.974   5.986  18.593  0.00  0.00    +0.000 C 
ATOM     23  O   UNL     1       4.536   4.304  17.784  0.00  0.00    +0.000 OA
ATOM     24  O   UNL     1       3.277   4.182  17.124  0.00  0.00    +0.000 OA
ENDROOT
TORSDOF 0
ENDMDL
MODEL 2
REMARK VINA RESULT:      -6.4      9.093     11.123
REMARK  Name = 
REMARK  0 active torsions:
REMARK  status: ('A' for Active; 'I' for Inactive)
REMARK                            x       y       z     vdW  Elec       q    Type
REMARK                         _______ _______ _______ _____ _____    ______ ____
ROOT
ATOM      1  C   UNL     1       8.095  15.377  18.138  0.00  0.00    +0.000 C 
ATOM      2  C   UNL     1       7.411  14.760  19.347  0.00  0.00    +0.000 C 
ATOM      3  C   UNL     1       7.740  15.646  20.500  0.00  0.00    +0.000 C 
ATOM      4  C   UNL     1       9.218  15.626  20.894  0.00  0.00    +0.000 C 
ATOM      5  C   UNL     1       9.769  16.617  19.830  0.00  0.00    +0.000 C 
ATOM      6  C   UNL     1       9.501  16.006  18.392  0.00  0.00    +0.000 C 
ATOM      7  O   UNL     1       9.060  15.915  22.298  0.00  0.00    +0.000 OA
ATOM      8  O   UNL     1       9.362  14.648  23.084  0.00  0.00    +0.000 OA
ATOM      9  C   UNL     1       8.383  13.547  23.045  0.00  0.00    +0.000 C 
ATOM     10  C   UNL     1       8.472  12.956  24.478  0.00  0.00    +0.000 C 
ATOM     11  C   UNL     1       7.569  11.732  24.709  0.00  0.00    +0.000 C 
ATOM     12  C   UNL     1       6.106  12.064  24.476  0.00  0.00    +0.000 C 
ATOM     13  C   UNL     1       5.920  12.649  23.095  0.00  0.00    +0.000 C 
ATOM     14  C   UNL     1       6.876  13.824  22.812  0.00  0.00    +0.000 C 
ATOM     15  O   UNL     1       8.666  12.467  22.111  0.00  0.00    +0.000 OA
ATOM     16  O   UNL     1      10.098  12.317  21.825  0.00  0.00    +0.000 OA
ATOM     17  C   UNL     1      10.216  12.350  20.378  0.00  0.00    +0.000 C 
ATOM     18  C   UNL     1      11.650  12.021  19.917  0.00  0.00    +0.000 C 
ATOM     19  C   UNL     1      11.789  12.078  18.383  0.00  0.00    +0.000 C 
ATOM     20  C   UNL     1      10.774  11.180  17.678  0.00  0.00    +0.000 C 
ATOM     21  C   UNL     1       9.348  11.438  18.165  0.00  0.00    +0.000 C 
ATOM     22  C   UNL     1       9.253  11.364  19.692  0.00  0.00    +0.000 C 
ATOM     23  O   UNL     1       9.875  13.631  19.839  0.00  0.00    +0.000 OA
ATOM     24  O   UNL     1      10.200  14.603  20.832  0.00  0.00    +0.000 OA
ENDROOT
TORSDOF 0
ENDMDL
MODEL 3
REMARK VINA RESULT:      -6.2      6.362      9.695
REMARK  Name = 
REMARK  0 active torsions:
REMARK  status: ('A' for Active; 'I' for Inactive)
REMARK                            x       y       z     vdW  Elec       q    Type
REMARK                         _______ _______ _______ _____ _____    ______ ____
ROOT
ATOM      1  C   UNL     1       1.489  14.223  18.453  0.00  0.00    +0.000 C 
ATOM      2  C   UNL     1       0.138  14.407  19.125  0.00  0.00    +0.000 C 
ATOM      3  C   UNL     1       0.430  14.916  20.496  0.00  0.00    +0.000 C 
ATOM      4  C   UNL     1       1.126  13.896  21.400  0.00  0.00    +0.000 C 
ATOM      5  C   UNL     1       2.587  14.082  20.899  0.00  0.00    +0.000 C 
ATOM      6  C   UNL     1       2.641  13.692  19.364  0.00  0.00    +0.000 C 
ATOM      7  O   UNL     1       0.614  14.361  22.666  0.00  0.00    +0.000 OA
ATOM      8  O   UNL     1      -0.401  13.348  23.171  0.00  0.00    +0.000 OA
ATOM      9  C   UNL     1      -1.710  13.271  22.499  0.00  0.00    +0.000 C 
ATOM     10  C   UNL     1      -2.680  12.949  23.668  0.00  0.00    +0.000 C 
ATOM     11  C   UNL     1      -4.144  12.762  23.236  0.00  0.00    +0.000 C 
ATOM     12  C   UNL     1      -4.691  14.005  22.559  0.00  0.00    +0.000 C 
ATOM     13  C   UNL     1      -3.806  14.396  21.397  0.00  0.00    +0.000 C 
ATOM     14  C   UNL     1      -2.322  14.507  21.792  0.00  0.00    +0.000 C 
ATOM     15  O   UNL     1      -1.863  12.217  21.506  0.00  0.00    +0.000 OA
ATOM     16  O   UNL     1      -0.985  11.066  21.753  0.00  0.00    +0.000 OA
ATOM     17  C   UNL     1      -0.262  10.850  20.512  0.00  0.00    +0.000 C 
ATOM     18  C   UNL     1       0.572   9.555  20.559  0.00  0.00    +0.000 C 
ATOM     19  C   UNL     1       1.362   9.331  19.254  0.00  0.00    +0.000 C 
ATOM     20  C   UNL     1       0.459   9.349  18.023  0.00  0.00    +0.000 C 
ATOM     21  C   UNL     1      -0.430  10.592  17.984  0.00  0.00    +0.000 C 
ATOM     22  C   UNL     1      -1.202  10.771  19.295  0.00  0.00    +0.000 C 
ATOM     23  O   UNL     1       0.633  11.927  20.216  0.00  0.00    +0.000 OA
ATOM     24  O   UNL     1       1.049  12.480  21.463  0.00  0.00    +0.000 OA
ENDROOT
TORSDOF 0
ENDMDL
MODEL 4
REMARK VINA RESULT:      -6.2      9.870     12.286
REMARK  Name = 
REMARK  0 active torsions:
REMARK  status: ('A' for Active; 'I' for Inactive)
REMARK                            x       y       z     vdW  Elec       q    Type
REMARK                         _______ _______ _______ _____ _____    ______ ____
ROOT
ATOM      1  C   UNL     1       7.861  18.263  20.361  0.00  0.00    +0.000 C 
ATOM      2  C   UNL     1       8.914  17.466  19.609  0.00  0.00    +0.000 C 
ATOM      3  C   UNL     1       8.221  16.893  18.420  0.00  0.00    +0.000 C 
ATOM      4  C   UNL     1       7.170  15.836  18.764  0.00  0.00    +0.000 C 
ATOM      5  C   UNL     1       5.990  16.777  19.140  0.00  0.00    +0.000 C 
ATOM      6  C   UNL     1       6.426  17.651  20.388  0.00  0.00    +0.000 C 
ATOM      7  O   UNL     1       7.261  15.055  17.555  0.00  0.00    +0.000 OA
ATOM      8  O   UNL     1       7.949  13.740  17.885  0.00  0.00    +0.000 OA
ATOM      9  C   UNL     1       9.396  13.754  18.164  0.00  0.00    +0.000 C 
ATOM     10  C   UNL     1       9.877  12.408  17.559  0.00  0.00    +0.000 C 
ATOM     11  C   UNL     1      11.377  12.133  17.754  0.00  0.00    +0.000 C 
ATOM     12  C   UNL     1      12.232  13.215  17.119  0.00  0.00    +0.000 C 
ATOM     13  C   UNL     1      11.834  14.572  17.653  0.00  0.00    +0.000 C 
ATOM     14  C   UNL     1      10.320  14.833  17.544  0.00  0.00    +0.000 C 
ATOM     15  O   UNL     1       9.781  13.761  19.568  0.00  0.00    +0.000 OA
ATOM     16  O   UNL     1       8.771  13.151  20.442  0.00  0.00    +0.000 OA
ATOM     17  C   UNL     1       8.497  14.136  21.473  0.00  0.00    +0.000 C 
ATOM     18  C   UNL     1       7.583  13.564  22.576  0.00  0.00    +0.000 C 
ATOM     19  C   UNL     1       7.267  14.611  23.662  0.00  0.00    +0.000 C 
ATOM     20  C   UNL     1       8.533  15.214  24.267  0.00  0.00    +0.000 C 
ATOM     21  C   UNL     1       9.491  15.730  23.193  0.00  0.00    +0.000 C 
ATOM     22  C   UNL     1       9.783  14.657  22.140  0.00  0.00    +0.000 C 
ATOM     23  O   UNL     1       7.857  15.303  20.948  0.00  0.00    +0.000 OA
ATOM     24  O   UNL     1       7.094  14.886  19.816  0.00  0.00    +0.000 OA
ENDROOT
TORSDOF 0
ENDMDL
MODEL 5
REMARK VINA RESULT:      -6.1      9.840     12.082
REMARK  Name = 
REMARK  0 active torsions:
REMARK  status: ('A' for Active; 'I' for Inactive)
REMARK                            x       y       z     vdW  Elec       q    Type
REMARK                         _______ _______ _______ _____ _____    ______ ____
ROOT
ATOM      1  C   UNL     1      11.415  16.363  17.054  0.00  0.00    +0.000 C 
ATOM      2  C   UNL     1       9.918  16.358  17.317  0.00  0.00    +0.000 C 
ATOM      3  C   UNL     1       9.698  17.307  18.446  0.00  0.00    +0.000 C 
ATOM      4  C   UNL     1      10.283  16.832  19.777  0.00  0.00    +0.000 C 
ATOM      5  C   UNL     1      11.764  17.256  19.560  0.00  0.00    +0.000 C 
ATOM      6  C   UNL     1      12.333  16.462  18.312  0.00  0.00    +0.000 C 
ATOM      7  O   UNL     1       9.349  17.490  20.658  0.00  0.00    +0.000 OA
ATOM      8  O   UNL     1       8.441  16.433  21.266  0.00  0.00    +0.000 OA
ATOM      9  C   UNL     1       7.421  15.804  20.408  0.00  0.00    +0.000 C 
ATOM     10  C   UNL     1       6.234  15.587  21.384  0.00  0.00    +0.000 C 
ATOM     11  C   UNL     1       5.021  14.886  20.751  0.00  0.00    +0.000 C 
ATOM     12  C   UNL     1       4.468  15.674  19.577  0.00  0.00    +0.000 C 
ATOM     13  C   UNL     1       5.561  15.933  18.565  0.00  0.00    +0.000 C 
ATOM     14  C   UNL     1       6.819  16.559  19.196  0.00  0.00    +0.000 C 
ATOM     15  O   UNL     1       7.764  14.504  19.847  0.00  0.00    +0.000 OA
ATOM     16  O   UNL     1       8.735  13.766  20.665  0.00  0.00    +0.000 OA
ATOM     17  C   UNL     1       9.813  13.402  19.763  0.00  0.00    +0.000 C 
ATOM     18  C   UNL     1      10.827  12.459  20.442  0.00  0.00    +0.000 C 
ATOM     19  C   UNL     1      11.988  12.087  19.498  0.00  0.00    +0.000 C 
ATOM     20  C   UNL     1      11.492  11.492  18.181  0.00  0.00    +0.000 C 
ATOM     21  C   UNL     1      10.434  12.374  17.518  0.00  0.00    +0.000 C 
ATOM     22  C   UNL     1       9.297  12.712  18.486  0.00  0.00    +0.000 C 
ATOM     23  O   UNL     1      10.535  14.546  19.297  0.00  0.00    +0.000 OA
ATOM     24  O   UNL     1      10.459  15.534  20.323  0.00  0.00    +0.000 OA
ENDROOT
TORSDOF 0
ENDMDL
MODEL 6
REMARK VINA RESULT:      -6.0      9.961     12.144
REMARK  Name = 
REMARK  0 active torsions:
REMARK  status: ('A' for Active; 'I' for Inactive)
REMARK                            x       y       z     vdW  Elec       q    Type
REMARK                         _______ _______ _______ _____ _____    ______ ____
ROOT
ATOM      1  C   UNL     1       8.362  11.696  18.088  0.00  0.00    +0.000 C 
ATOM      2  C   UNL     1       8.824  13.089  17.693  0.00  0.00    +0.000 C 
ATOM      3  C   UNL     1      10.308  13.007  17.567  0.00  0.00    +0.000 C 
ATOM      4  C   UNL     1      11.030  12.768  18.894  0.00  0.00    +0.000 C 
ATOM      5  C   UNL     1      10.842  11.228  19.002  0.00  0.00    +0.000 C 
ATOM      6  C   UNL     1       9.289  10.919  19.075  0.00  0.00    +0.000 C 
ATOM      7  O   UNL     1      12.269  13.435  18.577  0.00  0.00    +0.000 OA
ATOM      8  O   UNL     1      12.329  14.733  19.367  0.00  0.00    +0.000 OA
ATOM      9  C   UNL     1      11.450  15.844  18.960  0.00  0.00    +0.000 C 
ATOM     10  C   UNL     1      12.324  17.096  19.244  0.00  0.00    +0.000 C 
ATOM     11  C   UNL     1      11.621  18.432  18.949  0.00  0.00    +0.000 C 
ATOM     12  C   UNL     1      11.195  18.531  17.495  0.00  0.00    +0.000 C 
ATOM     13  C   UNL     1      10.332  17.346  17.124  0.00  0.00    +0.000 C 
ATOM     14  C   UNL     1      10.984  15.999  17.490  0.00  0.00    +0.000 C 
ATOM     15  O   UNL     1      10.214  15.997  19.714  0.00  0.00    +0.000 OA
ATOM     16  O   UNL     1      10.308  15.467  21.080  0.00  0.00    +0.000 OA
ATOM     17  C   UNL     1       9.191  14.551  21.224  0.00  0.00    +0.000 C 
ATOM     18  C   UNL     1       9.050  14.050  22.675  0.00  0.00    +0.000 C 
ATOM     19  C   UNL     1       7.881  13.058  22.831  0.00  0.00    +0.000 C 
ATOM     20  C   UNL     1       6.561  13.638  22.328  0.00  0.00    +0.000 C 
ATOM     21  C   UNL     1       6.687  14.204  20.914  0.00  0.00    +0.000 C 
ATOM     22  C   UNL     1       7.854  15.190  20.806  0.00  0.00    +0.000 C 
ATOM     23  O   UNL     1       9.326  13.400  20.384  0.00  0.00    +0.000 OA
ATOM     24  O   UNL     1      10.724  13.163  20.222  0.00  0.00    +0.000 OA
ENDROOT
TORSDOF 0
ENDMDL
MODEL 7
REMARK VINA RESULT:      -6.0     11.022     13.215
REMARK  Name = 
REMARK  0 active torsions:
REMARK  status: ('A' for Active; 'I' for Inactive)
REMARK                            x       y       z     vdW  Elec       q    Type
REMARK                         _______ _______ _______ _____ _____    ______ ____
ROOT
ATOM      1  C   UNL     1      -7.259  15.674  23.114  0.00  0.00    +0.000 C 
ATOM      2  C   UNL     1      -7.167  15.231  21.663  0.00  0.00    +0.000 C 
ATOM      3  C   UNL     1      -7.917  13.944  21.580  0.00  0.00    +0.000 C 
ATOM      4  C   UNL     1      -7.253  12.791  22.335  0.00  0.00    +0.000 C 
ATOM      5  C   UNL     1      -7.751  13.118  23.771  0.00  0.00    +0.000 C 
ATOM      6  C   UNL     1      -7.184  14.539  24.184  0.00  0.00    +0.000 C 
ATOM      7  O   UNL     1      -7.732  11.706  21.513  0.00  0.00    +0.000 OA
ATOM      8  O   UNL     1      -6.564  11.169  20.701  0.00  0.00    +0.000 OA
ATOM      9  C   UNL     1      -6.050  11.985  19.587  0.00  0.00    +0.000 C 
ATOM     10  C   UNL     1      -5.644  10.917  18.536  0.00  0.00    +0.000 C 
ATOM     11  C   UNL     1      -5.016  11.500  17.259  0.00  0.00    +0.000 C 
ATOM     12  C   UNL     1      -5.964  12.453  16.553  0.00  0.00    +0.000 C 
ATOM     13  C   UNL     1      -6.415  13.537  17.505  0.00  0.00    +0.000 C 
ATOM     14  C   UNL     1      -6.970  12.974  18.827  0.00  0.00    +0.000 C 
ATOM     15  O   UNL     1      -4.868  12.788  19.869  0.00  0.00    +0.000 OA
ATOM     16  O   UNL     1      -4.038  12.227  20.943  0.00  0.00    +0.000 OA
ATOM     17  C   UNL     1      -3.856  13.303  21.901  0.00  0.00    +0.000 C 
ATOM     18  C   UNL     1      -2.848  12.918  23.002  0.00  0.00    +0.000 C 
ATOM     19  C   UNL     1      -2.667  14.046  24.037  0.00  0.00    +0.000 C 
ATOM     20  C   UNL     1      -2.276  15.370  23.384  0.00  0.00    +0.000 C 
ATOM     21  C   UNL     1      -3.220  15.745  22.241  0.00  0.00    +0.000 C 
ATOM     22  C   UNL     1      -3.364  14.601  21.234  0.00  0.00    +0.000 C 
ATOM     23  O   UNL     1      -5.081  13.663  22.546  0.00  0.00    +0.000 OA
ATOM     24  O   UNL     1      -5.890  12.489  22.592  0.00  0.00    +0.000 OA
ENDROOT
TORSDOF 0
ENDMDL
MODEL 8
REMARK VINA RESULT:      -6.0      9.547     11.676
REMARK  Name = 
REMARK  0 active torsions:
REMARK  status: ('A' for Active; 'I' for Inactive)
REMARK                            x       y       z     vdW  Elec       q    Type
REMARK                         _______ _______ _______ _____ _____    ______ ____
ROOT
ATOM      1  C   UNL     1       9.267  16.011  17.791  0.00  0.00    +0.000 C 
ATOM      2  C   UNL     1       8.325  15.652  18.928  0.00  0.00    +0.000 C 
ATOM      3  C   UNL     1       8.762  16.469  20.096  0.00  0.00    +0.000 C 
ATOM      4  C   UNL     1      10.134  16.076  20.648  0.00  0.00    +0.000 C 
ATOM      5  C   UNL     1      11.034  16.837  19.635  0.00  0.00    +0.000 C 
ATOM      6  C   UNL     1      10.758  16.257  18.186  0.00  0.00    +0.000 C 
ATOM      7  O   UNL     1       9.918  16.458  22.023  0.00  0.00    +0.000 OA
ATOM      8  O   UNL     1       9.789  15.193  22.856  0.00  0.00    +0.000 OA
ATOM      9  C   UNL     1       8.560  14.390  22.729  0.00  0.00    +0.000 C 
ATOM     10  C   UNL     1       8.343  13.860  24.172  0.00  0.00    +0.000 C 
ATOM     11  C   UNL     1       7.127  12.931  24.323  0.00  0.00    +0.000 C 
ATOM     12  C   UNL     1       5.837  13.628  23.927  0.00  0.00    +0.000 C 
ATOM     13  C   UNL     1       5.954  14.180  22.525  0.00  0.00    +0.000 C 
ATOM     14  C   UNL     1       7.213  15.045  22.329  0.00  0.00    +0.000 C 
ATOM     15  O   UNL     1       8.635  13.233  21.848  0.00  0.00    +0.000 OA
ATOM     16  O   UNL     1       9.996  12.697  21.722  0.00  0.00    +0.000 OA
ATOM     17  C   UNL     1      10.263  12.633  20.296  0.00  0.00    +0.000 C 
ATOM     18  C   UNL     1      11.595  11.916  19.999  0.00  0.00    +0.000 C 
ATOM     19  C   UNL     1      11.897  11.866  18.488  0.00  0.00    +0.000 C 
ATOM     20  C   UNL     1      10.755  11.239  17.691  0.00  0.00    +0.000 C 
ATOM     21  C   UNL     1       9.409  11.886  18.016  0.00  0.00    +0.000 C 
ATOM     22  C   UNL     1       9.145  11.907  19.524  0.00  0.00    +0.000 C 
ATOM     23  O   UNL     1      10.334  13.934  19.702  0.00  0.00    +0.000 OA
ATOM     24  O   UNL     1      10.806  14.827  20.710  0.00  0.00    +0.000 OA
ENDROOT
TORSDOF 0
ENDMDL
MODEL 9
REMARK VINA RESULT:      -6.0      6.824     10.533
REMARK  Name = 
REMARK  0 active torsions:
REMARK  status: ('A' for Active; 'I' for Inactive)
REMARK                            x       y       z     vdW  Elec       q    Type
REMARK                         _______ _______ _______ _____ _____    ______ ____
ROOT
ATOM      1  C   UNL     1      -2.619  15.541  21.920  0.00  0.00    +0.000 C 
ATOM      2  C   UNL     1      -2.435  14.331  21.019  0.00  0.00    +0.000 C 
ATOM      3  C   UNL     1      -2.186  13.177  21.929  0.00  0.00    +0.000 C 
ATOM      4  C   UNL     1      -0.853  13.255  22.677  0.00  0.00    +0.000 C 
ATOM      5  C   UNL     1      -1.271  14.216  23.826  0.00  0.00    +0.000 C 
ATOM      6  C   UNL     1      -1.707  15.599  23.186  0.00  0.00    +0.000 C 
ATOM      7  O   UNL     1      -0.616  11.839  22.820  0.00  0.00    +0.000 OA
ATOM      8  O   UNL     1       0.518  11.448  21.884  0.00  0.00    +0.000 OA
ATOM      9  C   UNL     1       0.252  11.410  20.435  0.00  0.00    +0.000 C 
ATOM     10  C   UNL     1       1.122  10.217  19.956  0.00  0.00    +0.000 C 
ATOM     11  C   UNL     1       1.072   9.974  18.438  0.00  0.00    +0.000 C 
ATOM     12  C   UNL     1      -0.341   9.689  17.963  0.00  0.00    +0.000 C 
ATOM     13  C   UNL     1      -1.267  10.807  18.385  0.00  0.00    +0.000 C 
ATOM     14  C   UNL     1      -1.170  11.122  19.889  0.00  0.00    +0.000 C 
ATOM     15  O   UNL     1       0.664  12.581  19.674  0.00  0.00    +0.000 OA
ATOM     16  O   UNL     1       1.779  13.306  20.298  0.00  0.00    +0.000 OA
ATOM     17  C   UNL     1       1.338  14.685  20.409  0.00  0.00    +0.000 C 
ATOM     18  C   UNL     1       2.478  15.609  20.882  0.00  0.00    +0.000 C 
ATOM     19  C   UNL     1       2.012  17.071  21.026  0.00  0.00    +0.000 C 
ATOM     20  C   UNL     1       1.381  17.604  19.741  0.00  0.00    +0.000 C 
ATOM     21  C   UNL     1       0.290  16.673  19.210  0.00  0.00    +0.000 C 
ATOM     22  C   UNL     1       0.798  15.234  19.075  0.00  0.00    +0.000 C 
ATOM     23  O   UNL     1       0.255  14.832  21.332  0.00  0.00    +0.000 OA
ATOM     24  O   UNL     1       0.403  13.808  22.316  0.00  0.00    +0.000 OA
ENDROOT
TORSDOF 0
ENDMDL
