MODEL 1
REMARK VINA RESULT:      -7.0      0.000      0.000
REMARK  Name = 
REMARK  7 active torsions:
REMARK  status: ('A' for Active; 'I' for Inactive)
REMARK    1  A    between atoms: C_1  and  O_2
REMARK    2  A    between atoms: O_2  and  C_3
REMARK    3  A    between atoms: C_8  and  O_9
REMARK    4  A    between atoms: O_9  and  C_10
REMARK    5  A    between atoms: N_16  and  C_17
REMARK    6  A    between atoms: C_20  and  N_21
REMARK    7  A    between atoms: C_26  and  C_27
REMARK                            x       y       z     vdW  Elec       q    Type
REMARK                         _______ _______ _______ _____ _____    ______ ____
ROOT
ATOM      1  C   UNL     1       3.474  14.113  19.337  0.00  0.00    +0.000 A 
ATOM      2  C   UNL     1       4.374  14.427  18.290  0.00  0.00    +0.000 A 
ATOM      3  C   UNL     1       5.463  15.241  18.558  0.00  0.00    +0.000 A 
ATOM      4  C   UNL     1       5.589  15.761  19.845  0.00  0.00    +0.000 A 
ATOM      5  C   UNL     1       4.660  15.585  20.864  0.00  0.00    +0.000 A 
ATOM      6  C   UNL     1       3.611  14.699  20.619  0.00  0.00    +0.000 A 
ATOM      7  C   UNL     1       6.986  15.534  20.128  0.00  0.00    +0.000 C 
ATOM      8  N   UNL     1       7.690  15.841  21.157  0.00  0.00    +0.000 NA
ATOM      9  N   UNL     1       8.839  15.023  21.006  0.00  0.00    +0.000 N 
ATOM     10  C   UNL     1       8.851  13.938  21.968  0.00  0.00    +0.000 C 
ATOM     11  O   UNL     1       9.597  12.969  21.947  0.00  0.00    +0.000 OA
ATOM     12  N   UNL     1       7.791  14.099  22.866  0.00  0.00    +0.000 N 
ATOM     13  C   UNL     1       9.029  14.748  19.513  0.00  0.00    +0.000 C 
ATOM     14  C   UNL     1       7.572  14.596  19.115  0.00  0.00    +0.000 C 
ATOM     15  C   UNL     1       6.839  15.134  17.891  0.00  0.00    +0.000 C 
ATOM     16  H   UNL     1       7.201  14.871  22.579  0.00  0.00    +0.000 HD
ENDROOT
BRANCH  12  17
ATOM     17  C   UNL     1       7.313  13.194  23.820  0.00  0.00    +0.000 A 
ATOM     18  C   UNL     1       6.348  12.238  23.528  0.00  0.00    +0.000 A 
ATOM     19  C   UNL     1       5.879  11.379  24.531  0.00  0.00    +0.000 A 
ATOM     20  C   UNL     1       6.364  11.511  25.837  0.00  0.00    +0.000 A 
ATOM     21  C   UNL     1       7.356  12.451  26.138  0.00  0.00    +0.000 A 
ATOM     22  C   UNL     1       7.835  13.277  25.119  0.00  0.00    +0.000 A 
BRANCH  20  23
ATOM     23  N   UNL     1       5.813  10.673  26.905  0.00  0.00    +0.000 N 
ATOM     24  O   UNL     1       6.546  10.429  27.878  0.00  0.00    +0.000 OA
ATOM     25  O   UNL     1       4.650  10.271  26.785  0.00  0.00    +0.000 OA
ENDBRANCH  20  23
ENDBRANCH  12  17
BRANCH  13  26
ATOM     26  C   UNL     1       9.959  13.601  19.153  0.00  0.00    +0.000 A 
ATOM     27  C   UNL     1      11.356  13.671  19.300  0.00  0.00    +0.000 A 
ATOM     28  C   UNL     1      12.185  12.672  18.775  0.00  0.00    +0.000 A 
ATOM     29  C   UNL     1      11.631  11.577  18.121  0.00  0.00    +0.000 A 
ATOM     30  C   UNL     1      10.248  11.446  18.045  0.00  0.00    +0.000 A 
ATOM     31  C   UNL     1       9.419  12.436  18.579  0.00  0.00    +0.000 A 
ENDBRANCH  13  26
BRANCH   1  33
ATOM     32  C   UNL     1       1.367  13.408  18.451  0.00  0.00    +0.000 C 
ATOM     33  O   UNL     1       2.639  13.078  18.989  0.00  0.00    +0.000 OA
ENDBRANCH   1  33
BRANCH   6  34
ATOM     34  O   UNL     1       2.862  14.203  21.655  0.00  0.00    +0.000 OA
ATOM     35  C   UNL     1       1.616  14.840  21.909  0.00  0.00    +0.000 C 
ENDBRANCH   6  34
TORSDOF 5
ENDMDL
MODEL 2
REMARK VINA RESULT:      -6.9      0.247      1.011
REMARK  Name = 
REMARK  7 active torsions:
REMARK  status: ('A' for Active; 'I' for Inactive)
REMARK    1  A    between atoms: C_1  and  O_2
REMARK    2  A    between atoms: O_2  and  C_3
REMARK    3  A    between atoms: C_8  and  O_9
REMARK    4  A    between atoms: O_9  and  C_10
REMARK    5  A    between atoms: N_16  and  C_17
REMARK    6  A    between atoms: C_20  and  N_21
REMARK    7  A    between atoms: C_26  and  C_27
REMARK                            x       y       z     vdW  Elec       q    Type
REMARK                         _______ _______ _______ _____ _____    ______ ____
ROOT
ATOM      1  C   UNL     1       3.521  14.100  19.340  0.00  0.00    +0.000 A 
ATOM      2  C   UNL     1       4.437  14.432  18.313  0.00  0.00    +0.000 A 
ATOM      3  C   UNL     1       5.510  15.258  18.607  0.00  0.00    +0.000 A 
ATOM      4  C   UNL     1       5.604  15.772  19.900  0.00  0.00    +0.000 A 
ATOM      5  C   UNL     1       4.657  15.577  20.899  0.00  0.00    +0.000 A 
ATOM      6  C   UNL     1       3.625  14.680  20.628  0.00  0.00    +0.000 A 
ATOM      7  C   UNL     1       6.997  15.562  20.209  0.00  0.00    +0.000 C 
ATOM      8  N   UNL     1       7.677  15.871  21.253  0.00  0.00    +0.000 NA
ATOM      9  N   UNL     1       8.840  15.069  21.119  0.00  0.00    +0.000 N 
ATOM     10  C   UNL     1       8.847  13.978  22.075  0.00  0.00    +0.000 C 
ATOM     11  O   UNL     1       9.606  13.019  22.063  0.00  0.00    +0.000 OA
ATOM     12  N   UNL     1       7.768  14.120  22.953  0.00  0.00    +0.000 N 
ATOM     13  C   UNL     1       9.063  14.805  19.629  0.00  0.00    +0.000 C 
ATOM     14  C   UNL     1       7.615  14.637  19.202  0.00  0.00    +0.000 C 
ATOM     15  C   UNL     1       6.899  15.173  17.967  0.00  0.00    +0.000 C 
ATOM     16  H   UNL     1       7.173  14.886  22.659  0.00  0.00    +0.000 HD
ENDROOT
BRANCH  12  17
ATOM     17  C   UNL     1       7.282  13.203  23.892  0.00  0.00    +0.000 A 
ATOM     18  C   UNL     1       6.329  12.243  23.578  0.00  0.00    +0.000 A 
ATOM     19  C   UNL     1       5.852  11.372  24.566  0.00  0.00    +0.000 A 
ATOM     20  C   UNL     1       6.318  11.495  25.881  0.00  0.00    +0.000 A 
ATOM     21  C   UNL     1       7.299  12.439  26.204  0.00  0.00    +0.000 A 
ATOM     22  C   UNL     1       7.786  13.277  25.198  0.00  0.00    +0.000 A 
BRANCH  20  23
ATOM     23  N   UNL     1       5.758  10.643  26.933  0.00  0.00    +0.000 N 
ATOM     24  O   UNL     1       4.598  10.228  26.777  0.00  0.00    +0.000 OA
ATOM     25  O   UNL     1       6.475  10.372  27.903  0.00  0.00    +0.000 OA
ENDBRANCH  20  23
ENDBRANCH  12  17
BRANCH  13  26
ATOM     26  C   UNL     1      10.015  13.672  19.281  0.00  0.00    +0.000 A 
ATOM     27  C   UNL     1       9.579  12.426  18.799  0.00  0.00    +0.000 A 
ATOM     28  C   UNL     1      10.468  11.351  18.678  0.00  0.00    +0.000 A 
ATOM     29  C   UNL     1      11.809  11.512  19.012  0.00  0.00    +0.000 A 
ATOM     30  C   UNL     1      12.275  12.763  19.405  0.00  0.00    +0.000 A 
ATOM     31  C   UNL     1      11.391  13.840  19.515  0.00  0.00    +0.000 A 
ENDBRANCH  13  26
BRANCH   1  33
ATOM     32  C   UNL     1       1.435  13.373  18.422  0.00  0.00    +0.000 C 
ATOM     33  O   UNL     1       2.706  13.057  18.970  0.00  0.00    +0.000 OA
ENDBRANCH   1  33
BRANCH   6  34
ATOM     34  O   UNL     1       2.862  14.168  21.646  0.00  0.00    +0.000 OA
ATOM     35  C   UNL     1       1.606  14.791  21.883  0.00  0.00    +0.000 C 
ENDBRANCH   6  34
TORSDOF 5
ENDMDL
MODEL 3
REMARK VINA RESULT:      -6.8      1.012      1.150
REMARK  Name = 
REMARK  7 active torsions:
REMARK  status: ('A' for Active; 'I' for Inactive)
REMARK    1  A    between atoms: C_1  and  O_2
REMARK    2  A    between atoms: O_2  and  C_3
REMARK    3  A    between atoms: C_8  and  O_9
REMARK    4  A    between atoms: O_9  and  C_10
REMARK    5  A    between atoms: N_16  and  C_17
REMARK    6  A    between atoms: C_20  and  N_21
REMARK    7  A    between atoms: C_26  and  C_27
REMARK                            x       y       z     vdW  Elec       q    Type
REMARK                         _______ _______ _______ _____ _____    ______ ____
ROOT
ATOM      1  C   UNL     1       3.127  14.248  19.687  0.00  0.00    +0.000 A 
ATOM      2  C   UNL     1       4.120  14.549  18.724  0.00  0.00    +0.000 A 
ATOM      3  C   UNL     1       5.202  15.332  19.093  0.00  0.00    +0.000 A 
ATOM      4  C   UNL     1       5.231  15.836  20.393  0.00  0.00    +0.000 A 
ATOM      5  C   UNL     1       4.213  15.674  21.327  0.00  0.00    +0.000 A 
ATOM      6  C   UNL     1       3.167  14.819  20.983  0.00  0.00    +0.000 A 
ATOM      7  C   UNL     1       6.592  15.570  20.791  0.00  0.00    +0.000 C 
ATOM      8  N   UNL     1       7.213  15.849  21.880  0.00  0.00    +0.000 NA
ATOM      9  N   UNL     1       8.350  15.002  21.818  0.00  0.00    +0.000 N 
ATOM     10  C   UNL     1       8.252  13.909  22.765  0.00  0.00    +0.000 C 
ATOM     11  O   UNL     1       8.972  12.921  22.796  0.00  0.00    +0.000 OA
ATOM     12  N   UNL     1       7.124  14.089  23.571  0.00  0.00    +0.000 N 
ATOM     13  C   UNL     1       8.660  14.736  20.344  0.00  0.00    +0.000 C 
ATOM     14  C   UNL     1       7.238  14.626  19.821  0.00  0.00    +0.000 C 
ATOM     15  C   UNL     1       6.627  15.195  18.545  0.00  0.00    +0.000 C 
ATOM     16  H   UNL     1       6.580  14.879  23.243  0.00  0.00    +0.000 HD
ENDROOT
BRANCH  12  17
ATOM     17  C   UNL     1       6.543  13.188  24.470  0.00  0.00    +0.000 A 
ATOM     18  C   UNL     1       6.345  11.847  24.165  0.00  0.00    +0.000 A 
ATOM     19  C   UNL     1       5.726  10.996  25.090  0.00  0.00    +0.000 A 
ATOM     20  C   UNL     1       5.277  11.512  26.311  0.00  0.00    +0.000 A 
ATOM     21  C   UNL     1       5.494  12.854  26.642  0.00  0.00    +0.000 A 
ATOM     22  C   UNL     1       6.142  13.679  25.721  0.00  0.00    +0.000 A 
BRANCH  20  23
ATOM     23  N   UNL     1       4.552  10.644  27.243  0.00  0.00    +0.000 N 
ATOM     24  O   UNL     1       3.506  10.113  26.836  0.00  0.00    +0.000 OA
ATOM     25  O   UNL     1       5.030  10.477  28.371  0.00  0.00    +0.000 OA
ENDBRANCH  20  23
ENDBRANCH  12  17
BRANCH  13  26
ATOM     26  C   UNL     1       9.588  13.569  20.051  0.00  0.00    +0.000 A 
ATOM     27  C   UNL     1      10.964  13.592  20.340  0.00  0.00    +0.000 A 
ATOM     28  C   UNL     1      11.813  12.580  19.877  0.00  0.00    +0.000 A 
ATOM     29  C   UNL     1      11.297  11.517  19.143  0.00  0.00    +0.000 A 
ATOM     30  C   UNL     1       9.926  11.431  18.924  0.00  0.00    +0.000 A 
ATOM     31  C   UNL     1       9.076  12.435  19.396  0.00  0.00    +0.000 A 
ENDBRANCH  13  26
BRANCH   1  33
ATOM     32  C   UNL     1       2.702  12.490  18.121  0.00  0.00    +0.000 C 
ATOM     33  O   UNL     1       2.298  13.240  19.257  0.00  0.00    +0.000 OA
ENDBRANCH   1  33
BRANCH   6  34
ATOM     34  O   UNL     1       2.320  14.333  21.945  0.00  0.00    +0.000 OA
ATOM     35  C   UNL     1       1.024  14.914  22.011  0.00  0.00    +0.000 C 
ENDBRANCH   6  34
TORSDOF 5
ENDMDL
MODEL 4
REMARK VINA RESULT:      -6.6      0.909      1.165
REMARK  Name = 
REMARK  7 active torsions:
REMARK  status: ('A' for Active; 'I' for Inactive)
REMARK    1  A    between atoms: C_1  and  O_2
REMARK    2  A    between atoms: O_2  and  C_3
REMARK    3  A    between atoms: C_8  and  O_9
REMARK    4  A    between atoms: O_9  and  C_10
REMARK    5  A    between atoms: N_16  and  C_17
REMARK    6  A    between atoms: C_20  and  N_21
REMARK    7  A    between atoms: C_26  and  C_27
REMARK                            x       y       z     vdW  Elec       q    Type
REMARK                         _______ _______ _______ _____ _____    ______ ____
ROOT
ATOM      1  C   UNL     1       3.127  13.976  19.419  0.00  0.00    +0.000 A 
ATOM      2  C   UNL     1       4.141  14.259  18.472  0.00  0.00    +0.000 A 
ATOM      3  C   UNL     1       5.180  15.103  18.827  0.00  0.00    +0.000 A 
ATOM      4  C   UNL     1       5.147  15.684  20.095  0.00  0.00    +0.000 A 
ATOM      5  C   UNL     1       4.105  15.537  21.005  0.00  0.00    +0.000 A 
ATOM      6  C   UNL     1       3.104  14.623  20.680  0.00  0.00    +0.000 A 
ATOM      7  C   UNL     1       6.502  15.496  20.551  0.00  0.00    +0.000 C 
ATOM      8  N   UNL     1       7.076  15.861  21.640  0.00  0.00    +0.000 NA
ATOM      9  N   UNL     1       8.245  15.058  21.663  0.00  0.00    +0.000 N 
ATOM     10  C   UNL     1       8.156  14.019  22.671  0.00  0.00    +0.000 C 
ATOM     11  O   UNL     1       8.911  13.063  22.783  0.00  0.00    +0.000 OA
ATOM     12  N   UNL     1       6.996  14.202  23.429  0.00  0.00    +0.000 N 
ATOM     13  C   UNL     1       8.614  14.718  20.219  0.00  0.00    +0.000 C 
ATOM     14  C   UNL     1       7.216  14.522  19.659  0.00  0.00    +0.000 C 
ATOM     15  C   UNL     1       6.626  14.991  18.333  0.00  0.00    +0.000 C 
ATOM     16  H   UNL     1       6.434  14.949  23.038  0.00  0.00    +0.000 HD
ENDROOT
BRANCH  12  17
ATOM     17  C   UNL     1       6.419  13.332  24.362  0.00  0.00    +0.000 A 
ATOM     18  C   UNL     1       6.075  13.731  25.647  0.00  0.00    +0.000 A 
ATOM     19  C   UNL     1       5.532  12.809  26.551  0.00  0.00    +0.000 A 
ATOM     20  C   UNL     1       5.369  11.474  26.164  0.00  0.00    +0.000 A 
ATOM     21  C   UNL     1       5.684  11.065  24.863  0.00  0.00    +0.000 A 
ATOM     22  C   UNL     1       6.194  12.006  23.965  0.00  0.00    +0.000 A 
BRANCH  20  23
ATOM     23  N   UNL     1       4.882  10.490  27.134  0.00  0.00    +0.000 N 
ATOM     24  O   UNL     1       5.293  10.586  28.302  0.00  0.00    +0.000 OA
ATOM     25  O   UNL     1       4.081   9.635  26.741  0.00  0.00    +0.000 OA
ENDBRANCH  20  23
ENDBRANCH  12  17
BRANCH  13  26
ATOM     26  C   UNL     1       9.594  13.573  20.025  0.00  0.00    +0.000 A 
ATOM     27  C   UNL     1      10.973  13.693  20.275  0.00  0.00    +0.000 A 
ATOM     28  C   UNL     1      11.862  12.680  19.899  0.00  0.00    +0.000 A 
ATOM     29  C   UNL     1      11.387  11.522  19.292  0.00  0.00    +0.000 A 
ATOM     30  C   UNL     1      10.018  11.348  19.118  0.00  0.00    +0.000 A 
ATOM     31  C   UNL     1       9.127  12.353  19.504  0.00  0.00    +0.000 A 
ENDBRANCH  13  26
BRANCH   1  33
ATOM     32  C   UNL     1       1.053  13.191  18.524  0.00  0.00    +0.000 C 
ATOM     33  O   UNL     1       2.352  12.913  19.025  0.00  0.00    +0.000 OA
ENDBRANCH   1  33
BRANCH   6  34
ATOM     34  O   UNL     1       2.243  14.161  21.643  0.00  0.00    +0.000 OA
ATOM     35  C   UNL     1       1.087  14.947  21.900  0.00  0.00    +0.000 C 
ENDBRANCH   6  34
TORSDOF 5
ENDMDL
MODEL 5
REMARK VINA RESULT:      -6.5      1.190      1.664
REMARK  Name = 
REMARK  7 active torsions:
REMARK  status: ('A' for Active; 'I' for Inactive)
REMARK    1  A    between atoms: C_1  and  O_2
REMARK    2  A    between atoms: O_2  and  C_3
REMARK    3  A    between atoms: C_8  and  O_9
REMARK    4  A    between atoms: O_9  and  C_10
REMARK    5  A    between atoms: N_16  and  C_17
REMARK    6  A    between atoms: C_20  and  N_21
REMARK    7  A    between atoms: C_26  and  C_27
REMARK                            x       y       z     vdW  Elec       q    Type
REMARK                         _______ _______ _______ _____ _____    ______ ____
ROOT
ATOM      1  C   UNL     1       4.298  16.063  19.656  0.00  0.00    +0.000 A 
ATOM      2  C   UNL     1       5.233  16.328  18.627  0.00  0.00    +0.000 A 
ATOM      3  C   UNL     1       6.500  16.775  18.967  0.00  0.00    +0.000 A 
ATOM      4  C   UNL     1       6.776  16.996  20.316  0.00  0.00    +0.000 A 
ATOM      5  C   UNL     1       5.846  16.874  21.343  0.00  0.00    +0.000 A 
ATOM      6  C   UNL     1       4.600  16.346  21.011  0.00  0.00    +0.000 A 
ATOM      7  C   UNL     1       8.069  16.374  20.468  0.00  0.00    +0.000 C 
ATOM      8  N   UNL     1       8.842  16.295  21.489  0.00  0.00    +0.000 NA
ATOM      9  N   UNL     1       9.737  15.255  21.125  0.00  0.00    +0.000 N 
ATOM     10  C   UNL     1       9.479  14.043  21.878  0.00  0.00    +0.000 C 
ATOM     11  O   UNL     1       9.946  12.939  21.640  0.00  0.00    +0.000 OA
ATOM     12  N   UNL     1       8.510  14.298  22.855  0.00  0.00    +0.000 N 
ATOM     13  C   UNL     1       9.828  15.224  19.599  0.00  0.00    +0.000 C 
ATOM     14  C   UNL     1       8.376  15.524  19.271  0.00  0.00    +0.000 C 
ATOM     15  C   UNL     1       7.791  16.449  18.208  0.00  0.00    +0.000 C 
ATOM     16  H   UNL     1       8.138  15.233  22.745  0.00  0.00    +0.000 HD
ENDROOT
BRANCH  12  17
ATOM     17  C   UNL     1       7.825  13.382  23.661  0.00  0.00    +0.000 A 
ATOM     18  C   UNL     1       6.798  12.580  23.180  0.00  0.00    +0.000 A 
ATOM     19  C   UNL     1       6.123  11.705  24.040  0.00  0.00    +0.000 A 
ATOM     20  C   UNL     1       6.466  11.666  25.397  0.00  0.00    +0.000 A 
ATOM     21  C   UNL     1       7.518  12.447  25.888  0.00  0.00    +0.000 A 
ATOM     22  C   UNL     1       8.201  13.290  25.009  0.00  0.00    +0.000 A 
BRANCH  20  23
ATOM     23  N   UNL     1       5.705  10.816  26.315  0.00  0.00    +0.000 N 
ATOM     24  O   UNL     1       4.564  10.471  25.963  0.00  0.00    +0.000 OA
ATOM     25  O   UNL     1       6.244  10.477  27.375  0.00  0.00    +0.000 OA
ENDBRANCH  20  23
ENDBRANCH  12  17
BRANCH  13  26
ATOM     26  C   UNL     1      10.422  13.967  18.985  0.00  0.00    +0.000 A 
ATOM     27  C   UNL     1       9.654  13.014  18.294  0.00  0.00    +0.000 A 
ATOM     28  C   UNL     1      10.203  11.783  17.918  0.00  0.00    +0.000 A 
ATOM     29  C   UNL     1      11.533  11.495  18.204  0.00  0.00    +0.000 A 
ATOM     30  C   UNL     1      12.333  12.460  18.808  0.00  0.00    +0.000 A 
ATOM     31  C   UNL     1      11.789  13.695  19.173  0.00  0.00    +0.000 A 
ENDBRANCH  13  26
BRANCH   1  33
ATOM     32  C   UNL     1       3.471  14.240  18.346  0.00  0.00    +0.000 C 
ATOM     33  O   UNL     1       3.216  15.357  19.183  0.00  0.00    +0.000 OA
ENDBRANCH   1  33
BRANCH   6  34
ATOM     34  O   UNL     1       3.762  15.871  21.987  0.00  0.00    +0.000 OA
ATOM     35  C   UNL     1       4.351  15.561  23.244  0.00  0.00    +0.000 C 
ENDBRANCH   6  34
TORSDOF 5
ENDMDL
MODEL 6
REMARK VINA RESULT:      -6.5      8.021     11.421
REMARK  Name = 
REMARK  7 active torsions:
REMARK  status: ('A' for Active; 'I' for Inactive)
REMARK    1  A    between atoms: C_1  and  O_2
REMARK    2  A    between atoms: O_2  and  C_3
REMARK    3  A    between atoms: C_8  and  O_9
REMARK    4  A    between atoms: O_9  and  C_10
REMARK    5  A    between atoms: N_16  and  C_17
REMARK    6  A    between atoms: C_20  and  N_21
REMARK    7  A    between atoms: C_26  and  C_27
REMARK                            x       y       z     vdW  Elec       q    Type
REMARK                         _______ _______ _______ _____ _____    ______ ____
ROOT
ATOM      1  C   UNL     1      -6.259  14.106  19.566  0.00  0.00    +0.000 A 
ATOM      2  C   UNL     1      -6.570  14.910  20.689  0.00  0.00    +0.000 A 
ATOM      3  C   UNL     1      -6.378  14.395  21.961  0.00  0.00    +0.000 A 
ATOM      4  C   UNL     1      -5.936  13.077  22.073  0.00  0.00    +0.000 A 
ATOM      5  C   UNL     1      -5.745  12.213  21.000  0.00  0.00    +0.000 A 
ATOM      6  C   UNL     1      -5.858  12.756  19.721  0.00  0.00    +0.000 A 
ATOM      7  C   UNL     1      -4.901  13.188  23.072  0.00  0.00    +0.000 C 
ATOM      8  N   UNL     1      -4.161  12.288  23.611  0.00  0.00    +0.000 NA
ATOM      9  N   UNL     1      -3.113  13.050  24.190  0.00  0.00    +0.000 N 
ATOM     10  C   UNL     1      -1.872  12.890  23.457  0.00  0.00    +0.000 C 
ATOM     11  O   UNL     1      -0.865  13.571  23.594  0.00  0.00    +0.000 OA
ATOM     12  N   UNL     1      -2.035  11.912  22.470  0.00  0.00    +0.000 N 
ATOM     13  C   UNL     1      -3.660  14.441  24.508  0.00  0.00    +0.000 C 
ATOM     14  C   UNL     1      -4.547  14.630  23.289  0.00  0.00    +0.000 C 
ATOM     15  C   UNL     1      -5.956  15.203  23.193  0.00  0.00    +0.000 C 
ATOM     16  H   UNL     1      -3.003  11.617  22.425  0.00  0.00    +0.000 HD
ENDROOT
BRANCH  12  17
ATOM     17  C   UNL     1      -1.172  11.584  21.419  0.00  0.00    +0.000 A 
ATOM     18  C   UNL     1      -1.282  12.148  20.154  0.00  0.00    +0.000 A 
ATOM     19  C   UNL     1      -0.413  11.757  19.128  0.00  0.00    +0.000 A 
ATOM     20  C   UNL     1       0.548  10.768  19.374  0.00  0.00    +0.000 A 
ATOM     21  C   UNL     1       0.687  10.212  20.650  0.00  0.00    +0.000 A 
ATOM     22  C   UNL     1      -0.167  10.638  21.669  0.00  0.00    +0.000 A 
BRANCH  20  23
ATOM     23  N   UNL     1       1.400  10.295  18.280  0.00  0.00    +0.000 N 
ATOM     24  O   UNL     1       2.336  11.030  17.925  0.00  0.00    +0.000 OA
ATOM     25  O   UNL     1       1.152   9.189  17.787  0.00  0.00    +0.000 OA
ENDBRANCH  20  23
ENDBRANCH  12  17
BRANCH  13  26
ATOM     26  C   UNL     1      -2.629  15.525  24.778  0.00  0.00    +0.000 A 
ATOM     27  C   UNL     1      -2.334  16.548  23.860  0.00  0.00    +0.000 A 
ATOM     28  C   UNL     1      -1.246  17.405  24.063  0.00  0.00    +0.000 A 
ATOM     29  C   UNL     1      -0.453  17.270  25.198  0.00  0.00    +0.000 A 
ATOM     30  C   UNL     1      -0.784  16.322  26.161  0.00  0.00    +0.000 A 
ATOM     31  C   UNL     1      -1.877  15.473  25.965  0.00  0.00    +0.000 A 
ENDBRANCH  13  26
BRANCH   1  33
ATOM     32  C   UNL     1      -6.678  16.192  18.471  0.00  0.00    +0.000 C 
ATOM     33  O   UNL     1      -6.220  14.849  18.410  0.00  0.00    +0.000 OA
ENDBRANCH   1  33
BRANCH   6  34
ATOM     34  O   UNL     1      -5.356  12.088  18.634  0.00  0.00    +0.000 OA
ATOM     35  C   UNL     1      -5.930  10.821  18.339  0.00  0.00    +0.000 C 
ENDBRANCH   6  34
TORSDOF 5
ENDMDL
MODEL 7
REMARK VINA RESULT:      -6.5      7.797     12.319
REMARK  Name = 
REMARK  7 active torsions:
REMARK  status: ('A' for Active; 'I' for Inactive)
REMARK    1  A    between atoms: C_1  and  O_2
REMARK    2  A    between atoms: O_2  and  C_3
REMARK    3  A    between atoms: C_8  and  O_9
REMARK    4  A    between atoms: O_9  and  C_10
REMARK    5  A    between atoms: N_16  and  C_17
REMARK    6  A    between atoms: C_20  and  N_21
REMARK    7  A    between atoms: C_26  and  C_27
REMARK                            x       y       z     vdW  Elec       q    Type
REMARK                         _______ _______ _______ _____ _____    ______ ____
ROOT
ATOM      1  C   UNL     1      -6.723  13.240  17.744  0.00  0.00    +0.000 A 
ATOM      2  C   UNL     1      -7.475  14.007  18.666  0.00  0.00    +0.000 A 
ATOM      3  C   UNL     1      -7.459  13.655  20.007  0.00  0.00    +0.000 A 
ATOM      4  C   UNL     1      -6.742  12.517  20.376  0.00  0.00    +0.000 A 
ATOM      5  C   UNL     1      -6.100  11.663  19.485  0.00  0.00    +0.000 A 
ATOM      6  C   UNL     1      -6.046  12.063  18.151  0.00  0.00    +0.000 A 
ATOM      7  C   UNL     1      -6.025  12.976  21.541  0.00  0.00    +0.000 C 
ATOM      8  N   UNL     1      -5.230  12.351  22.332  0.00  0.00    +0.000 NA
ATOM      9  N   UNL     1      -4.566  13.407  23.008  0.00  0.00    +0.000 N 
ATOM     10  C   UNL     1      -3.190  13.538  22.570  0.00  0.00    +0.000 C 
ATOM     11  O   UNL     1      -2.445  14.475  22.820  0.00  0.00    +0.000 OA
ATOM     12  N   UNL     1      -2.873  12.485  21.706  0.00  0.00    +0.000 N 
ATOM     13  C   UNL     1      -5.501  14.617  23.026  0.00  0.00    +0.000 C 
ATOM     14  C   UNL     1      -6.101  14.471  21.638  0.00  0.00    +0.000 C 
ATOM     15  C   UNL     1      -7.548  14.632  21.184  0.00  0.00    +0.000 C 
ATOM     16  H   UNL     1      -3.700  11.936  21.503  0.00  0.00    +0.000 HD
ENDROOT
BRANCH  12  17
ATOM     17  C   UNL     1      -1.738  12.329  20.904  0.00  0.00    +0.000 A 
ATOM     18  C   UNL     1      -1.678  12.781  19.591  0.00  0.00    +0.000 A 
ATOM     19  C   UNL     1      -0.528  12.567  18.822  0.00  0.00    +0.000 A 
ATOM     20  C   UNL     1       0.552  11.866  19.371  0.00  0.00    +0.000 A 
ATOM     21  C   UNL     1       0.516  11.430  20.701  0.00  0.00    +0.000 A 
ATOM     22  C   UNL     1      -0.627  11.681  21.463  0.00  0.00    +0.000 A 
BRANCH  20  23
ATOM     23  N   UNL     1       1.721  11.566  18.542  0.00  0.00    +0.000 N 
ATOM     24  O   UNL     1       1.864  10.394  18.155  0.00  0.00    +0.000 OA
ATOM     25  O   UNL     1       2.487  12.494  18.260  0.00  0.00    +0.000 OA
ENDBRANCH  20  23
ENDBRANCH  12  17
BRANCH  13  26
ATOM     26  C   UNL     1      -4.863  15.956  23.357  0.00  0.00    +0.000 A 
ATOM     27  C   UNL     1      -4.532  16.911  22.380  0.00  0.00    +0.000 A 
ATOM     28  C   UNL     1      -3.772  18.040  22.706  0.00  0.00    +0.000 A 
ATOM     29  C   UNL     1      -3.353  18.246  24.016  0.00  0.00    +0.000 A 
ATOM     30  C   UNL     1      -3.747  17.358  25.013  0.00  0.00    +0.000 A 
ATOM     31  C   UNL     1      -4.516  16.237  24.691  0.00  0.00    +0.000 A 
ENDBRANCH  13  26
BRANCH   1  33
ATOM     32  C   UNL     1      -7.165  15.180  16.417  0.00  0.00    +0.000 C 
ATOM     33  O   UNL     1      -6.605  13.881  16.534  0.00  0.00    +0.000 OA
ENDBRANCH   1  33
BRANCH   6  34
ATOM     34  O   UNL     1      -5.157  11.481  17.284  0.00  0.00    +0.000 OA
ATOM     35  C   UNL     1      -4.163  10.639  17.854  0.00  0.00    +0.000 C 
ENDBRANCH   6  34
TORSDOF 5
ENDMDL
MODEL 8
REMARK VINA RESULT:      -6.4      7.802     11.449
REMARK  Name = 
REMARK  7 active torsions:
REMARK  status: ('A' for Active; 'I' for Inactive)
REMARK    1  A    between atoms: C_1  and  O_2
REMARK    2  A    between atoms: O_2  and  C_3
REMARK    3  A    between atoms: C_8  and  O_9
REMARK    4  A    between atoms: O_9  and  C_10
REMARK    5  A    between atoms: N_16  and  C_17
REMARK    6  A    between atoms: C_20  and  N_21
REMARK    7  A    between atoms: C_26  and  C_27
REMARK                            x       y       z     vdW  Elec       q    Type
REMARK                         _______ _______ _______ _____ _____    ______ ____
ROOT
ATOM      1  C   UNL     1      -6.135  14.098  19.418  0.00  0.00    +0.000 A 
ATOM      2  C   UNL     1      -6.484  14.870  20.553  0.00  0.00    +0.000 A 
ATOM      3  C   UNL     1      -6.316  14.325  21.816  0.00  0.00    +0.000 A 
ATOM      4  C   UNL     1      -5.860  13.011  21.907  0.00  0.00    +0.000 A 
ATOM      5  C   UNL     1      -5.631  12.176  20.818  0.00  0.00    +0.000 A 
ATOM      6  C   UNL     1      -5.719  12.750  19.550  0.00  0.00    +0.000 A 
ATOM      7  C   UNL     1      -4.850  13.110  22.933  0.00  0.00    +0.000 C 
ATOM      8  N   UNL     1      -4.112  12.206  23.468  0.00  0.00    +0.000 NA
ATOM      9  N   UNL     1      -3.088  12.966  24.091  0.00  0.00    +0.000 N 
ATOM     10  C   UNL     1      -1.828  12.840  23.385  0.00  0.00    +0.000 C 
ATOM     11  O   UNL     1      -0.834  13.530  23.564  0.00  0.00    +0.000 OA
ATOM     12  N   UNL     1      -1.954  11.885  22.371  0.00  0.00    +0.000 N 
ATOM     13  C   UNL     1      -3.662  14.342  24.430  0.00  0.00    +0.000 C 
ATOM     14  C   UNL     1      -4.521  14.550  23.195  0.00  0.00    +0.000 C 
ATOM     15  C   UNL     1      -5.935  15.107  23.078  0.00  0.00    +0.000 C 
ATOM     16  H   UNL     1      -2.916  11.579  22.295  0.00  0.00    +0.000 HD
ENDROOT
BRANCH  12  17
ATOM     17  C   UNL     1      -1.061  11.594  21.334  0.00  0.00    +0.000 A 
ATOM     18  C   UNL     1      -0.270  10.453  21.322  0.00  0.00    +0.000 A 
ATOM     19  C   UNL     1       0.632  10.229  20.274  0.00  0.00    +0.000 A 
ATOM     20  C   UNL     1       0.757  11.179  19.254  0.00  0.00    +0.000 A 
ATOM     21  C   UNL     1      -0.054  12.319  19.239  0.00  0.00    +0.000 A 
ATOM     22  C   UNL     1      -0.971  12.510  20.275  0.00  0.00    +0.000 A 
BRANCH  20  23
ATOM     23  N   UNL     1       1.760  10.989  18.204  0.00  0.00    +0.000 N 
ATOM     24  O   UNL     1       1.771   9.897  17.613  0.00  0.00    +0.000 OA
ATOM     25  O   UNL     1       2.524  11.929  17.954  0.00  0.00    +0.000 OA
ENDBRANCH  20  23
ENDBRANCH  12  17
BRANCH  13  26
ATOM     26  C   UNL     1      -2.652  15.432  24.752  0.00  0.00    +0.000 A 
ATOM     27  C   UNL     1      -1.922  15.470  25.953  0.00  0.00    +0.000 A 
ATOM     28  C   UNL     1      -1.153  16.590  26.291  0.00  0.00    +0.000 A 
ATOM     29  C   UNL     1      -1.082  17.676  25.425  0.00  0.00    +0.000 A 
ATOM     30  C   UNL     1      -1.726  17.619  24.193  0.00  0.00    +0.000 A 
ATOM     31  C   UNL     1      -2.484  16.496  23.848  0.00  0.00    +0.000 A 
ENDBRANCH  13  26
BRANCH   1  33
ATOM     32  C   UNL     1      -7.074  14.666  17.293  0.00  0.00    +0.000 C 
ATOM     33  O   UNL     1      -6.077  14.870  18.283  0.00  0.00    +0.000 OA
ENDBRANCH   1  33
BRANCH   6  34
ATOM     34  O   UNL     1      -5.182  12.115  18.459  0.00  0.00    +0.000 OA
ATOM     35  C   UNL     1      -5.668  10.809  18.174  0.00  0.00    +0.000 C 
ENDBRANCH   6  34
TORSDOF 5
ENDMDL
MODEL 9
REMARK VINA RESULT:      -6.3      1.041      1.247
REMARK  Name = 
REMARK  7 active torsions:
REMARK  status: ('A' for Active; 'I' for Inactive)
REMARK    1  A    between atoms: C_1  and  O_2
REMARK    2  A    between atoms: O_2  and  C_3
REMARK    3  A    between atoms: C_8  and  O_9
REMARK    4  A    between atoms: O_9  and  C_10
REMARK    5  A    between atoms: N_16  and  C_17
REMARK    6  A    between atoms: C_20  and  N_21
REMARK    7  A    between atoms: C_26  and  C_27
REMARK                            x       y       z     vdW  Elec       q    Type
REMARK                         _______ _______ _______ _____ _____    ______ ____
ROOT
ATOM      1  C   UNL     1       3.930  15.499  20.047  0.00  0.00    +0.000 A 
ATOM      2  C   UNL     1       4.931  15.745  19.077  0.00  0.00    +0.000 A 
ATOM      3  C   UNL     1       6.174  16.200  19.490  0.00  0.00    +0.000 A 
ATOM      4  C   UNL     1       6.360  16.450  20.849  0.00  0.00    +0.000 A 
ATOM      5  C   UNL     1       5.365  16.348  21.815  0.00  0.00    +0.000 A 
ATOM      6  C   UNL     1       4.143  15.811  21.413  0.00  0.00    +0.000 A 
ATOM      7  C   UNL     1       7.640  15.833  21.098  0.00  0.00    +0.000 C 
ATOM      8  N   UNL     1       8.345  15.776  22.169  0.00  0.00    +0.000 NA
ATOM      9  N   UNL     1       9.261  14.730  21.886  0.00  0.00    +0.000 N 
ATOM     10  C   UNL     1       8.954  13.534  22.646  0.00  0.00    +0.000 C 
ATOM     11  O   UNL     1       9.436  12.425  22.462  0.00  0.00    +0.000 OA
ATOM     12  N   UNL     1       7.924  13.807  23.551  0.00  0.00    +0.000 N 
ATOM     13  C   UNL     1       9.452  14.667  20.371  0.00  0.00    +0.000 C 
ATOM     14  C   UNL     1       8.025  14.958  19.942  0.00  0.00    +0.000 C 
ATOM     15  C   UNL     1       7.512  15.860  18.824  0.00  0.00    +0.000 C 
ATOM     16  H   UNL     1       7.559  14.739  23.398  0.00  0.00    +0.000 HD
ENDROOT
BRANCH  12  17
ATOM     17  C   UNL     1       7.187  12.907  24.330  0.00  0.00    +0.000 A 
ATOM     18  C   UNL     1       6.267  12.021  23.784  0.00  0.00    +0.000 A 
ATOM     19  C   UNL     1       5.531  11.166  24.614  0.00  0.00    +0.000 A 
ATOM     20  C   UNL     1       5.704  11.231  26.002  0.00  0.00    +0.000 A 
ATOM     21  C   UNL     1       6.649  12.099  26.563  0.00  0.00    +0.000 A 
ATOM     22  C   UNL     1       7.396  12.921  25.717  0.00  0.00    +0.000 A 
BRANCH  20  23
ATOM     23  N   UNL     1       4.875  10.400  26.878  0.00  0.00    +0.000 N 
ATOM     24  O   UNL     1       3.992   9.708  26.343  0.00  0.00    +0.000 OA
ATOM     25  O   UNL     1       5.110  10.420  28.091  0.00  0.00    +0.000 OA
ENDBRANCH  20  23
ENDBRANCH  12  17
BRANCH  13  26
ATOM     26  C   UNL     1      10.085  13.398  19.824  0.00  0.00    +0.000 A 
ATOM     27  C   UNL     1      11.446  13.085  19.992  0.00  0.00    +0.000 A 
ATOM     28  C   UNL     1      12.026  12.011  19.309  0.00  0.00    +0.000 A 
ATOM     29  C   UNL     1      11.253  11.217  18.468  0.00  0.00    +0.000 A 
ATOM     30  C   UNL     1       9.887  11.457  18.359  0.00  0.00    +0.000 A 
ATOM     31  C   UNL     1       9.303  12.522  19.050  0.00  0.00    +0.000 A 
ENDBRANCH  13  26
BRANCH   1  33
ATOM     32  C   UNL     1       3.034  14.258  18.209  0.00  0.00    +0.000 C 
ATOM     33  O   UNL     1       2.882  14.783  19.520  0.00  0.00    +0.000 OA
ENDBRANCH   1  33
BRANCH   6  34
ATOM     34  O   UNL     1       3.242  15.356  22.342  0.00  0.00    +0.000 OA
ATOM     35  C   UNL     1       2.178  16.234  22.687  0.00  0.00    +0.000 C 
ENDBRANCH   6  34
TORSDOF 5
ENDMDL
