MODEL 1
REMARK VINA RESULT:      -6.6      0.000      0.000
REMARK  Name = 
REMARK  3 active torsions:
REMARK  status: ('A' for Active; 'I' for Inactive)
REMARK    1  A    between atoms: C_1  and  C_2
REMARK    2  A    between atoms: C_2  and  C_3
REMARK    3  A    between atoms: N_10  and  C_11
REMARK                            x       y       z     vdW  Elec       q    Type
REMARK                         _______ _______ _______ _____ _____    ______ ____
ROOT
ATOM      1  C   UNL     1       4.415   2.980  19.706  0.00  0.00    +0.000 C 
ATOM      2  C   UNL     1       3.519   2.891  18.451  0.00  0.00    +0.000 C 
ATOM      3  C   UNL     1       2.907   1.478  18.410  0.00  0.00    +0.000 C 
ATOM      4  C   UNL     1       4.367   3.071  17.171  0.00  0.00    +0.000 C 
ATOM      5  C   UNL     1       4.937   4.467  17.052  0.00  0.00    +0.000 C 
ATOM      6  O   UNL     1       6.047   4.669  16.571  0.00  0.00    +0.000 OA
ATOM      7  C   UNL     1       4.053   5.562  17.488  0.00  0.00    +0.000 A 
ATOM      8  S   UNL     1       4.348   7.204  17.169  0.00  0.00    +0.000 S 
ATOM      9  C   UNL     1       2.833   7.572  17.996  0.00  0.00    +0.000 A 
ATOM     10  N   UNL     1       2.486   8.809  18.072  0.00  0.00    +0.000 NA
ATOM     11  O   UNL     1       2.148   6.482  18.507  0.00  0.00    +0.000 OA
ATOM     12  C   UNL     1       2.912   5.348  18.144  0.00  0.00    +0.000 A 
ATOM     13  C   UNL     1       2.403   3.980  18.517  0.00  0.00    +0.000 C 
ENDROOT
BRANCH  10  14
ATOM     14  C   UNL     1       1.378   9.312  18.762  0.00  0.00    +0.000 A 
ATOM     15  C   UNL     1       0.371   9.869  17.959  0.00  0.00    +0.000 A 
ATOM     16  C   UNL     1      -0.788  10.414  18.511  0.00  0.00    +0.000 A 
ATOM     17  C   UNL     1      -0.961  10.400  19.891  0.00  0.00    +0.000 A 
ATOM     18  C   UNL     1       0.011   9.816  20.701  0.00  0.00    +0.000 A 
ATOM     19  C   UNL     1       1.170   9.264  20.139  0.00  0.00    +0.000 A 
ENDBRANCH  10  14
TORSDOF 1
ENDMDL
MODEL 2
REMARK VINA RESULT:      -6.5      0.150      1.108
REMARK  Name = 
REMARK  3 active torsions:
REMARK  status: ('A' for Active; 'I' for Inactive)
REMARK    1  A    between atoms: C_1  and  C_2
REMARK    2  A    between atoms: C_2  and  C_3
REMARK    3  A    between atoms: N_10  and  C_11
REMARK                            x       y       z     vdW  Elec       q    Type
REMARK                         _______ _______ _______ _____ _____    ______ ____
ROOT
ATOM      1  C   UNL     1       4.352   3.041  19.716  0.00  0.00    +0.000 C 
ATOM      2  C   UNL     1       3.538   2.945  18.406  0.00  0.00    +0.000 C 
ATOM      3  C   UNL     1       2.943   1.527  18.327  0.00  0.00    +0.000 C 
ATOM      4  C   UNL     1       4.464   3.132  17.183  0.00  0.00    +0.000 C 
ATOM      5  C   UNL     1       5.027   4.534  17.100  0.00  0.00    +0.000 C 
ATOM      6  O   UNL     1       6.164   4.746  16.690  0.00  0.00    +0.000 OA
ATOM      7  C   UNL     1       4.108   5.620  17.479  0.00  0.00    +0.000 A 
ATOM      8  S   UNL     1       4.408   7.265  17.178  0.00  0.00    +0.000 S 
ATOM      9  C   UNL     1       2.840   7.619  17.908  0.00  0.00    +0.000 A 
ATOM     10  N   UNL     1       2.477   8.853  17.962  0.00  0.00    +0.000 NA
ATOM     11  O   UNL     1       2.134   6.523  18.375  0.00  0.00    +0.000 OA
ATOM     12  C   UNL     1       2.930   5.396  18.061  0.00  0.00    +0.000 A 
ATOM     13  C   UNL     1       2.411   4.024  18.402  0.00  0.00    +0.000 C 
ENDROOT
BRANCH  10  14
ATOM     14  C   UNL     1       1.324   9.346  18.579  0.00  0.00    +0.000 A 
ATOM     15  C   UNL     1       1.303   9.252  19.980  0.00  0.00    +0.000 A 
ATOM     16  C   UNL     1       0.213   9.698  20.727  0.00  0.00    +0.000 A 
ATOM     17  C   UNL     1      -0.878  10.262  20.076  0.00  0.00    +0.000 A 
ATOM     18  C   UNL     1      -0.858  10.399  18.690  0.00  0.00    +0.000 A 
ATOM     19  C   UNL     1       0.242   9.955  17.945  0.00  0.00    +0.000 A 
ENDBRANCH  10  14
TORSDOF 1
ENDMDL
MODEL 3
REMARK VINA RESULT:      -6.5      1.461      1.854
REMARK  Name = 
REMARK  3 active torsions:
REMARK  status: ('A' for Active; 'I' for Inactive)
REMARK    1  A    between atoms: C_1  and  C_2
REMARK    2  A    between atoms: C_2  and  C_3
REMARK    3  A    between atoms: N_10  and  C_11
REMARK                            x       y       z     vdW  Elec       q    Type
REMARK                         _______ _______ _______ _____ _____    ______ ____
ROOT
ATOM      1  C   UNL     1       4.410   3.379  19.786  0.00  0.00    +0.000 C 
ATOM      2  C   UNL     1       3.083   3.305  18.998  0.00  0.00    +0.000 C 
ATOM      3  C   UNL     1       2.581   1.851  19.059  0.00  0.00    +0.000 C 
ATOM      4  C   UNL     1       3.320   3.656  17.512  0.00  0.00    +0.000 C 
ATOM      5  C   UNL     1       3.717   5.103  17.320  0.00  0.00    +0.000 C 
ATOM      6  O   UNL     1       4.520   5.440  16.456  0.00  0.00    +0.000 OA
ATOM      7  C   UNL     1       3.037   6.078  18.190  0.00  0.00    +0.000 A 
ATOM      8  S   UNL     1       3.091   7.759  17.953  0.00  0.00    +0.000 S 
ATOM      9  C   UNL     1       2.032   7.926  19.356  0.00  0.00    +0.000 A 
ATOM     10  N   UNL     1       1.684   9.118  19.697  0.00  0.00    +0.000 NA
ATOM     11  O   UNL     1       1.675   6.744  19.983  0.00  0.00    +0.000 OA
ATOM     12  C   UNL     1       2.279   5.714  19.224  0.00  0.00    +0.000 A 
ATOM     13  C   UNL     1       2.039   4.282  19.625  0.00  0.00    +0.000 C 
ENDROOT
BRANCH  10  14
ATOM     14  C   UNL     1       0.934   9.467  20.824  0.00  0.00    +0.000 A 
ATOM     15  C   UNL     1      -0.083  10.409  20.603  0.00  0.00    +0.000 A 
ATOM     16  C   UNL     1      -0.905  10.853  21.638  0.00  0.00    +0.000 A 
ATOM     17  C   UNL     1      -0.727  10.347  22.920  0.00  0.00    +0.000 A 
ATOM     18  C   UNL     1       0.252   9.383  23.150  0.00  0.00    +0.000 A 
ATOM     19  C   UNL     1       1.071   8.935  22.105  0.00  0.00    +0.000 A 
ENDBRANCH  10  14
TORSDOF 1
ENDMDL
MODEL 4
REMARK VINA RESULT:      -6.4      1.736      2.271
REMARK  Name = 
REMARK  3 active torsions:
REMARK  status: ('A' for Active; 'I' for Inactive)
REMARK    1  A    between atoms: C_1  and  C_2
REMARK    2  A    between atoms: C_2  and  C_3
REMARK    3  A    between atoms: N_10  and  C_11
REMARK                            x       y       z     vdW  Elec       q    Type
REMARK                         _______ _______ _______ _____ _____    ______ ____
ROOT
ATOM      1  C   UNL     1       5.586   4.955  19.645  0.00  0.00    +0.000 C 
ATOM      2  C   UNL     1       4.251   4.387  19.112  0.00  0.00    +0.000 C 
ATOM      3  C   UNL     1       4.252   2.869  19.368  0.00  0.00    +0.000 C 
ATOM      4  C   UNL     1       4.145   4.605  17.586  0.00  0.00    +0.000 C 
ATOM      5  C   UNL     1       4.031   6.068  17.222  0.00  0.00    +0.000 C 
ATOM      6  O   UNL     1       4.551   6.521  16.206  0.00  0.00    +0.000 OA
ATOM      7  C   UNL     1       3.211   6.894  18.124  0.00  0.00    +0.000 A 
ATOM      8  S   UNL     1       2.693   8.470  17.759  0.00  0.00    +0.000 S 
ATOM      9  C   UNL     1       1.852   8.485  19.312  0.00  0.00    +0.000 A 
ATOM     10  N   UNL     1       1.198   9.550  19.620  0.00  0.00    +0.000 NA
ATOM     11  O   UNL     1       1.984   7.338  20.077  0.00  0.00    +0.000 OA
ATOM     12  C   UNL     1       2.766   6.451  19.300  0.00  0.00    +0.000 A 
ATOM     13  C   UNL     1       3.054   5.075  19.841  0.00  0.00    +0.000 C 
ENDROOT
BRANCH  10  14
ATOM     14  C   UNL     1       0.548   9.794  20.834  0.00  0.00    +0.000 A 
ATOM     15  C   UNL     1      -0.376  10.851  20.821  0.00  0.00    +0.000 A 
ATOM     16  C   UNL     1      -1.092  11.211  21.962  0.00  0.00    +0.000 A 
ATOM     17  C   UNL     1      -0.900  10.503  23.143  0.00  0.00    +0.000 A 
ATOM     18  C   UNL     1      -0.016   9.426  23.164  0.00  0.00    +0.000 A 
ATOM     19  C   UNL     1       0.696   9.065  22.012  0.00  0.00    +0.000 A 
ENDBRANCH  10  14
TORSDOF 1
ENDMDL
MODEL 5
REMARK VINA RESULT:      -6.4      3.320      6.564
REMARK  Name = 
REMARK  3 active torsions:
REMARK  status: ('A' for Active; 'I' for Inactive)
REMARK    1  A    between atoms: C_1  and  C_2
REMARK    2  A    between atoms: C_2  and  C_3
REMARK    3  A    between atoms: N_10  and  C_11
REMARK                            x       y       z     vdW  Elec       q    Type
REMARK                         _______ _______ _______ _____ _____    ______ ____
ROOT
ATOM      1  C   UNL     1       0.903   3.361  18.865  0.00  0.00    +0.000 C 
ATOM      2  C   UNL     1       2.268   3.155  19.560  0.00  0.00    +0.000 C 
ATOM      3  C   UNL     1       2.146   1.927  20.480  0.00  0.00    +0.000 C 
ATOM      4  C   UNL     1       2.609   4.373  20.447  0.00  0.00    +0.000 C 
ATOM      5  C   UNL     1       2.856   5.624  19.634  0.00  0.00    +0.000 C 
ATOM      6  O   UNL     1       2.517   6.732  20.040  0.00  0.00    +0.000 OA
ATOM      7  C   UNL     1       3.580   5.435  18.366  0.00  0.00    +0.000 A 
ATOM      8  S   UNL     1       4.232   6.705  17.446  0.00  0.00    +0.000 S 
ATOM      9  C   UNL     1       4.836   5.492  16.314  0.00  0.00    +0.000 A 
ATOM     10  N   UNL     1       5.496   5.913  15.292  0.00  0.00    +0.000 NA
ATOM     11  O   UNL     1       4.530   4.178  16.624  0.00  0.00    +0.000 OA
ATOM     12  C   UNL     1       3.821   4.230  17.848  0.00  0.00    +0.000 A 
ATOM     13  C   UNL     1       3.381   2.939  18.487  0.00  0.00    +0.000 C 
ENDROOT
BRANCH  10  14
ATOM     14  C   UNL     1       5.973   5.126  14.240  0.00  0.00    +0.000 A 
ATOM     15  C   UNL     1       7.280   5.413  13.817  0.00  0.00    +0.000 A 
ATOM     16  C   UNL     1       7.883   4.712  12.773  0.00  0.00    +0.000 A 
ATOM     17  C   UNL     1       7.180   3.695  12.137  0.00  0.00    +0.000 A 
ATOM     18  C   UNL     1       5.896   3.371  12.569  0.00  0.00    +0.000 A 
ATOM     19  C   UNL     1       5.298   4.074  13.623  0.00  0.00    +0.000 A 
ENDBRANCH  10  14
TORSDOF 1
ENDMDL
MODEL 6
REMARK VINA RESULT:      -6.4      3.093      6.197
REMARK  Name = 
REMARK  3 active torsions:
REMARK  status: ('A' for Active; 'I' for Inactive)
REMARK    1  A    between atoms: C_1  and  C_2
REMARK    2  A    between atoms: C_2  and  C_3
REMARK    3  A    between atoms: N_10  and  C_11
REMARK                            x       y       z     vdW  Elec       q    Type
REMARK                         _______ _______ _______ _____ _____    ______ ____
ROOT
ATOM      1  C   UNL     1       0.749   3.263  19.699  0.00  0.00    +0.000 C 
ATOM      2  C   UNL     1       2.083   3.407  20.466  0.00  0.00    +0.000 C 
ATOM      3  C   UNL     1       2.141   2.286  21.520  0.00  0.00    +0.000 C 
ATOM      4  C   UNL     1       2.130   4.758  21.215  0.00  0.00    +0.000 C 
ATOM      5  C   UNL     1       2.183   5.937  20.269  0.00  0.00    +0.000 C 
ATOM      6  O   UNL     1       1.615   6.994  20.526  0.00  0.00    +0.000 OA
ATOM      7  C   UNL     1       3.007   5.756  19.061  0.00  0.00    +0.000 A 
ATOM      8  S   UNL     1       3.460   7.022  18.023  0.00  0.00    +0.000 S 
ATOM      9  C   UNL     1       4.352   5.835  17.068  0.00  0.00    +0.000 A 
ATOM     10  N   UNL     1       4.982   6.263  16.030  0.00  0.00    +0.000 NA
ATOM     11  O   UNL     1       4.284   4.528  17.520  0.00  0.00    +0.000 OA
ATOM     12  C   UNL     1       3.505   4.573  18.700  0.00  0.00    +0.000 A 
ATOM     13  C   UNL     1       3.281   3.298  19.471  0.00  0.00    +0.000 C 
ENDROOT
BRANCH  10  14
ATOM     14  C   UNL     1       5.664   5.476  15.098  0.00  0.00    +0.000 A 
ATOM     15  C   UNL     1       4.860   4.623  14.326  0.00  0.00    +0.000 A 
ATOM     16  C   UNL     1       5.406   3.777  13.362  0.00  0.00    +0.000 A 
ATOM     17  C   UNL     1       6.779   3.779  13.147  0.00  0.00    +0.000 A 
ATOM     18  C   UNL     1       7.589   4.647  13.878  0.00  0.00    +0.000 A 
ATOM     19  C   UNL     1       7.033   5.500  14.840  0.00  0.00    +0.000 A 
ENDBRANCH  10  14
TORSDOF 1
ENDMDL
MODEL 7
REMARK VINA RESULT:      -6.4      1.064      1.318
REMARK  Name = 
REMARK  3 active torsions:
REMARK  status: ('A' for Active; 'I' for Inactive)
REMARK    1  A    between atoms: C_1  and  C_2
REMARK    2  A    between atoms: C_2  and  C_3
REMARK    3  A    between atoms: N_10  and  C_11
REMARK                            x       y       z     vdW  Elec       q    Type
REMARK                         _______ _______ _______ _____ _____    ______ ____
ROOT
ATOM      1  C   UNL     1       3.397   3.281  20.153  0.00  0.00    +0.000 C 
ATOM      2  C   UNL     1       2.673   3.154  18.795  0.00  0.00    +0.000 C 
ATOM      3  C   UNL     1       1.819   1.874  18.835  0.00  0.00    +0.000 C 
ATOM      4  C   UNL     1       3.699   2.996  17.651  0.00  0.00    +0.000 C 
ATOM      5  C   UNL     1       4.529   4.244  17.448  0.00  0.00    +0.000 C 
ATOM      6  O   UNL     1       5.712   4.185  17.124  0.00  0.00    +0.000 OA
ATOM      7  C   UNL     1       3.816   5.524  17.602  0.00  0.00    +0.000 A 
ATOM      8  S   UNL     1       4.451   7.027  17.130  0.00  0.00    +0.000 S 
ATOM      9  C   UNL     1       2.936   7.762  17.659  0.00  0.00    +0.000 A 
ATOM     10  N   UNL     1       2.818   9.037  17.526  0.00  0.00    +0.000 NA
ATOM     11  O   UNL     1       1.999   6.891  18.189  0.00  0.00    +0.000 OA
ATOM     12  C   UNL     1       2.580   5.604  18.094  0.00  0.00    +0.000 A 
ATOM     13  C   UNL     1       1.780   4.412  18.551  0.00  0.00    +0.000 C 
ENDROOT
BRANCH  10  14
ATOM     14  C   UNL     1       1.743   9.815  17.966  0.00  0.00    +0.000 A 
ATOM     15  C   UNL     1       2.072  11.112  18.391  0.00  0.00    +0.000 A 
ATOM     16  C   UNL     1       1.102  11.996  18.862  0.00  0.00    +0.000 A 
ATOM     17  C   UNL     1      -0.228  11.594  18.904  0.00  0.00    +0.000 A 
ATOM     18  C   UNL     1      -0.578  10.323  18.450  0.00  0.00    +0.000 A 
ATOM     19  C   UNL     1       0.401   9.442  17.972  0.00  0.00    +0.000 A 
ENDBRANCH  10  14
TORSDOF 1
ENDMDL
MODEL 8
REMARK VINA RESULT:      -6.4      3.477      6.752
REMARK  Name = 
REMARK  3 active torsions:
REMARK  status: ('A' for Active; 'I' for Inactive)
REMARK    1  A    between atoms: C_1  and  C_2
REMARK    2  A    between atoms: C_2  and  C_3
REMARK    3  A    between atoms: N_10  and  C_11
REMARK                            x       y       z     vdW  Elec       q    Type
REMARK                         _______ _______ _______ _____ _____    ______ ____
ROOT
ATOM      1  C   UNL     1       0.930   3.743  18.233  0.00  0.00    +0.000 C 
ATOM      2  C   UNL     1       2.217   3.255  18.935  0.00  0.00    +0.000 C 
ATOM      3  C   UNL     1       1.860   1.996  19.746  0.00  0.00    +0.000 C 
ATOM      4  C   UNL     1       2.725   4.323  19.929  0.00  0.00    +0.000 C 
ATOM      5  C   UNL     1       3.205   5.575  19.229  0.00  0.00    +0.000 C 
ATOM      6  O   UNL     1       3.042   6.689  19.720  0.00  0.00    +0.000 OA
ATOM      7  C   UNL     1       3.930   5.368  17.964  0.00  0.00    +0.000 A 
ATOM      8  S   UNL     1       4.816   6.580  17.169  0.00  0.00    +0.000 S 
ATOM      9  C   UNL     1       5.247   5.376  15.951  0.00  0.00    +0.000 A 
ATOM     10  N   UNL     1       6.003   5.759  14.982  0.00  0.00    +0.000 NA
ATOM     11  O   UNL     1       4.716   4.112  16.142  0.00  0.00    +0.000 OA
ATOM     12  C   UNL     1       3.985   4.185  17.352  0.00  0.00    +0.000 A 
ATOM     13  C   UNL     1       3.315   2.940  17.871  0.00  0.00    +0.000 C 
ENDROOT
BRANCH  10  14
ATOM     14  C   UNL     1       6.378   4.990  13.876  0.00  0.00    +0.000 A 
ATOM     15  C   UNL     1       5.455   4.006  13.486  0.00  0.00    +0.000 A 
ATOM     16  C   UNL     1       5.701   3.161  12.404  0.00  0.00    +0.000 A 
ATOM     17  C   UNL     1       6.881   3.297  11.682  0.00  0.00    +0.000 A 
ATOM     18  C   UNL     1       7.790   4.294  12.032  0.00  0.00    +0.000 A 
ATOM     19  C   UNL     1       7.535   5.145  13.115  0.00  0.00    +0.000 A 
ENDBRANCH  10  14
TORSDOF 1
ENDMDL
MODEL 9
REMARK VINA RESULT:      -6.3      2.349      7.329
REMARK  Name = 
REMARK  3 active torsions:
REMARK  status: ('A' for Active; 'I' for Inactive)
REMARK    1  A    between atoms: C_1  and  C_2
REMARK    2  A    between atoms: C_2  and  C_3
REMARK    3  A    between atoms: N_10  and  C_11
REMARK                            x       y       z     vdW  Elec       q    Type
REMARK                         _______ _______ _______ _____ _____    ______ ____
ROOT
ATOM      1  C   UNL     1       1.369  12.469  19.965  0.00  0.00    +0.000 C 
ATOM      2  C   UNL     1       0.187  11.699  19.336  0.00  0.00    +0.000 C 
ATOM      3  C   UNL     1      -0.672  12.712  18.557  0.00  0.00    +0.000 C 
ATOM      4  C   UNL     1      -0.702  11.083  20.440  0.00  0.00    +0.000 C 
ATOM      5  C   UNL     1       0.010   9.992  21.208  0.00  0.00    +0.000 C 
ATOM      6  O   UNL     1      -0.175   9.825  22.409  0.00  0.00    +0.000 OA
ATOM      7  C   UNL     1       0.883   9.111  20.413  0.00  0.00    +0.000 A 
ATOM      8  S   UNL     1       1.536   7.652  20.989  0.00  0.00    +0.000 S 
ATOM      9  C   UNL     1       2.280   7.433  19.403  0.00  0.00    +0.000 A 
ATOM     10  N   UNL     1       2.982   6.369  19.221  0.00  0.00    +0.000 NA
ATOM     11  O   UNL     1       2.050   8.445  18.487  0.00  0.00    +0.000 OA
ATOM     12  C   UNL     1       1.205   9.370  19.146  0.00  0.00    +0.000 A 
ATOM     13  C   UNL     1       0.727  10.581  18.390  0.00  0.00    +0.000 C 
ENDROOT
BRANCH  10  14
ATOM     14  C   UNL     1       3.724   6.058  18.078  0.00  0.00    +0.000 A 
ATOM     15  C   UNL     1       3.722   4.704  17.708  0.00  0.00    +0.000 A 
ATOM     16  C   UNL     1       4.424   4.249  16.592  0.00  0.00    +0.000 A 
ATOM     17  C   UNL     1       5.138   5.155  15.816  0.00  0.00    +0.000 A 
ATOM     18  C   UNL     1       5.119   6.509  16.147  0.00  0.00    +0.000 A 
ATOM     19  C   UNL     1       4.406   6.961  17.265  0.00  0.00    +0.000 A 
ENDBRANCH  10  14
TORSDOF 1
ENDMDL
