MODEL 1
REMARK VINA RESULT:      -7.4      0.000      0.000
REMARK  Name = 
REMARK  1 active torsions:
REMARK  status: ('A' for Active; 'I' for Inactive)
REMARK    1  A    between atoms: C_4  and  C_5
REMARK                            x       y       z     vdW  Elec       q    Type
REMARK                         _______ _______ _______ _____ _____    ______ ____
ROOT
ATOM      1  O   UNL     1       7.698   4.802  18.473  0.00  0.00    +0.000 OA
ATOM      2  C   UNL     1       6.628   4.581  17.913  0.00  0.00    +0.000 A 
ATOM      3  C   UNL     1       5.408   4.308  18.699  0.00  0.00    +0.000 A 
ATOM      4  C   UNL     1       4.259   4.061  18.048  0.00  0.00    +0.000 A 
ATOM      5  N   UNL     1       4.114   4.029  16.676  0.00  0.00    +0.000 NA
ATOM      6  C   UNL     1       5.178   4.279  15.999  0.00  0.00    +0.000 A 
ATOM      7  N   UNL     1       5.372   4.340  14.641  0.00  0.00    +0.000 N 
ATOM      8  C   UNL     1       6.684   4.650  14.374  0.00  0.00    +0.000 A 
ATOM      9  C   UNL     1       7.329   4.786  15.547  0.00  0.00    +0.000 A 
ATOM     10  N   UNL     1       6.416   4.561  16.563  0.00  0.00    +0.000 N 
ATOM     11  H   UNL     1       4.663   4.159  13.948  0.00  0.00    +0.000 HD
ENDROOT
BRANCH   4  12
ATOM     12  C   UNL     1       3.048   3.819  18.851  0.00  0.00    +0.000 A 
ATOM     13  C   UNL     1       2.027   2.995  18.358  0.00  0.00    +0.000 A 
ATOM     14  C   UNL     1       0.901   2.725  19.138  0.00  0.00    +0.000 A 
ATOM     15  C   UNL     1       0.784   3.283  20.411  0.00  0.00    +0.000 A 
ATOM     16  C   UNL     1       1.784   4.123  20.899  0.00  0.00    +0.000 A 
ATOM     17  C   UNL     1       2.914   4.390  20.122  0.00  0.00    +0.000 A 
ENDBRANCH   4  12
TORSDOF 1
ENDMDL
MODEL 2
REMARK VINA RESULT:      -7.4      0.096      1.212
REMARK  Name = 
REMARK  1 active torsions:
REMARK  status: ('A' for Active; 'I' for Inactive)
REMARK    1  A    between atoms: C_4  and  C_5
REMARK                            x       y       z     vdW  Elec       q    Type
REMARK                         _______ _______ _______ _____ _____    ______ ____
ROOT
ATOM      1  O   UNL     1       7.656   4.889  18.557  0.00  0.00    +0.000 OA
ATOM      2  C   UNL     1       6.608   4.631  17.973  0.00  0.00    +0.000 A 
ATOM      3  C   UNL     1       5.377   4.329  18.732  0.00  0.00    +0.000 A 
ATOM      4  C   UNL     1       4.253   4.040  18.055  0.00  0.00    +0.000 A 
ATOM      5  N   UNL     1       4.143   3.990  16.680  0.00  0.00    +0.000 NA
ATOM      6  C   UNL     1       5.216   4.265  16.028  0.00  0.00    +0.000 A 
ATOM      7  N   UNL     1       5.442   4.317  14.674  0.00  0.00    +0.000 N 
ATOM      8  C   UNL     1       6.750   4.664  14.436  0.00  0.00    +0.000 A 
ATOM      9  C   UNL     1       7.362   4.832  15.623  0.00  0.00    +0.000 A 
ATOM     10  N   UNL     1       6.431   4.590  16.618  0.00  0.00    +0.000 N 
ATOM     11  H   UNL     1       4.756   4.107  13.966  0.00  0.00    +0.000 HD
ENDROOT
BRANCH   4  12
ATOM     12  C   UNL     1       3.030   3.771  18.831  0.00  0.00    +0.000 A 
ATOM     13  C   UNL     1       2.850   4.358  20.091  0.00  0.00    +0.000 A 
ATOM     14  C   UNL     1       1.670   4.144  20.805  0.00  0.00    +0.000 A 
ATOM     15  C   UNL     1       0.667   3.336  20.271  0.00  0.00    +0.000 A 
ATOM     16  C   UNL     1       0.849   2.729  19.028  0.00  0.00    +0.000 A 
ATOM     17  C   UNL     1       2.026   2.946  18.309  0.00  0.00    +0.000 A 
ENDBRANCH   4  12
TORSDOF 1
ENDMDL
MODEL 3
REMARK VINA RESULT:      -7.3      2.171      2.737
REMARK  Name = 
REMARK  1 active torsions:
REMARK  status: ('A' for Active; 'I' for Inactive)
REMARK    1  A    between atoms: C_4  and  C_5
REMARK                            x       y       z     vdW  Elec       q    Type
REMARK                         _______ _______ _______ _____ _____    ______ ____
ROOT
ATOM      1  O   UNL     1       5.219   6.820  15.771  0.00  0.00    +0.000 OA
ATOM      2  C   UNL     1       5.188   6.234  16.850  0.00  0.00    +0.000 A 
ATOM      3  C   UNL     1       3.969   5.523  17.286  0.00  0.00    +0.000 A 
ATOM      4  C   UNL     1       3.972   4.903  18.478  0.00  0.00    +0.000 A 
ATOM      5  N   UNL     1       5.035   4.878  19.358  0.00  0.00    +0.000 NA
ATOM      6  C   UNL     1       6.096   5.489  18.966  0.00  0.00    +0.000 A 
ATOM      7  N   UNL     1       7.313   5.641  19.584  0.00  0.00    +0.000 N 
ATOM      8  C   UNL     1       8.154   6.370  18.778  0.00  0.00    +0.000 A 
ATOM      9  C   UNL     1       7.485   6.687  17.653  0.00  0.00    +0.000 A 
ATOM     10  N   UNL     1       6.213   6.152  17.750  0.00  0.00    +0.000 N 
ATOM     11  H   UNL     1       7.542   5.290  20.500  0.00  0.00    +0.000 HD
ENDROOT
BRANCH   4  12
ATOM     12  C   UNL     1       2.756   4.176  18.882  0.00  0.00    +0.000 A 
ATOM     13  C   UNL     1       2.286   3.105  18.110  0.00  0.00    +0.000 A 
ATOM     14  C   UNL     1       1.163   2.383  18.517  0.00  0.00    +0.000 A 
ATOM     15  C   UNL     1       0.498   2.731  19.693  0.00  0.00    +0.000 A 
ATOM     16  C   UNL     1       0.946   3.810  20.454  0.00  0.00    +0.000 A 
ATOM     17  C   UNL     1       2.072   4.531  20.051  0.00  0.00    +0.000 A 
ENDBRANCH   4  12
TORSDOF 1
ENDMDL
MODEL 4
REMARK VINA RESULT:      -7.3      3.035      5.914
REMARK  Name = 
REMARK  1 active torsions:
REMARK  status: ('A' for Active; 'I' for Inactive)
REMARK    1  A    between atoms: C_4  and  C_5
REMARK                            x       y       z     vdW  Elec       q    Type
REMARK                         _______ _______ _______ _____ _____    ______ ____
ROOT
ATOM      1  O   UNL     1       1.053   4.283  17.213  0.00  0.00    +0.000 OA
ATOM      2  C   UNL     1       1.945   4.315  18.055  0.00  0.00    +0.000 A 
ATOM      3  C   UNL     1       3.232   4.979  17.767  0.00  0.00    +0.000 A 
ATOM      4  C   UNL     1       4.187   4.983  18.713  0.00  0.00    +0.000 A 
ATOM      5  N   UNL     1       4.073   4.399  19.958  0.00  0.00    +0.000 NA
ATOM      6  C   UNL     1       2.945   3.833  20.206  0.00  0.00    +0.000 A 
ATOM      7  N   UNL     1       2.507   3.183  21.333  0.00  0.00    +0.000 N 
ATOM      8  C   UNL     1       1.219   2.743  21.144  0.00  0.00    +0.000 A 
ATOM      9  C   UNL     1       0.831   3.105  19.906  0.00  0.00    +0.000 A 
ATOM     10  N   UNL     1       1.883   3.779  19.312  0.00  0.00    +0.000 N 
ATOM     11  H   UNL     1       3.059   3.032  22.163  0.00  0.00    +0.000 HD
ENDROOT
BRANCH   4  12
ATOM     12  C   UNL     1       5.452   5.675  18.415  0.00  0.00    +0.000 A 
ATOM     13  C   UNL     1       5.513   6.620  17.381  0.00  0.00    +0.000 A 
ATOM     14  C   UNL     1       6.697   7.314  17.130  0.00  0.00    +0.000 A 
ATOM     15  C   UNL     1       7.831   7.062  17.903  0.00  0.00    +0.000 A 
ATOM     16  C   UNL     1       7.785   6.106  18.918  0.00  0.00    +0.000 A 
ATOM     17  C   UNL     1       6.599   5.416  19.175  0.00  0.00    +0.000 A 
ENDBRANCH   4  12
TORSDOF 1
ENDMDL
MODEL 5
REMARK VINA RESULT:      -7.2      2.167      2.969
REMARK  Name = 
REMARK  1 active torsions:
REMARK  status: ('A' for Active; 'I' for Inactive)
REMARK    1  A    between atoms: C_4  and  C_5
REMARK                            x       y       z     vdW  Elec       q    Type
REMARK                         _______ _______ _______ _____ _____    ______ ____
ROOT
ATOM      1  O   UNL     1       5.185   6.751  15.796  0.00  0.00    +0.000 OA
ATOM      2  C   UNL     1       5.183   6.187  16.886  0.00  0.00    +0.000 A 
ATOM      3  C   UNL     1       3.986   5.461  17.357  0.00  0.00    +0.000 A 
ATOM      4  C   UNL     1       4.020   4.865  18.561  0.00  0.00    +0.000 A 
ATOM      5  N   UNL     1       5.098   4.878  19.423  0.00  0.00    +0.000 NA
ATOM      6  C   UNL     1       6.140   5.503  19.001  0.00  0.00    +0.000 A 
ATOM      7  N   UNL     1       7.363   5.691  19.596  0.00  0.00    +0.000 N 
ATOM      8  C   UNL     1       8.176   6.420  18.762  0.00  0.00    +0.000 A 
ATOM      9  C   UNL     1       7.483   6.701  17.643  0.00  0.00    +0.000 A 
ATOM     10  N   UNL     1       6.224   6.143  17.771  0.00  0.00    +0.000 N 
ATOM     11  H   UNL     1       7.614   5.363  20.515  0.00  0.00    +0.000 HD
ENDROOT
BRANCH   4  12
ATOM     12  C   UNL     1       2.826   4.122  18.999  0.00  0.00    +0.000 A 
ATOM     13  C   UNL     1       2.314   4.308  20.290  0.00  0.00    +0.000 A 
ATOM     14  C   UNL     1       1.154   3.643  20.690  0.00  0.00    +0.000 A 
ATOM     15  C   UNL     1       0.503   2.782  19.806  0.00  0.00    +0.000 A 
ATOM     16  C   UNL     1       1.020   2.573  18.528  0.00  0.00    +0.000 A 
ATOM     17  C   UNL     1       2.178   3.242  18.124  0.00  0.00    +0.000 A 
ENDBRANCH   4  12
TORSDOF 1
ENDMDL
MODEL 6
REMARK VINA RESULT:      -7.0      1.347      1.355
REMARK  Name = 
REMARK  1 active torsions:
REMARK  status: ('A' for Active; 'I' for Inactive)
REMARK    1  A    between atoms: C_4  and  C_5
REMARK                            x       y       z     vdW  Elec       q    Type
REMARK                         _______ _______ _______ _____ _____    ______ ____
ROOT
ATOM      1  O   UNL     1       6.470   7.406  16.833  0.00  0.00    +0.000 OA
ATOM      2  C   UNL     1       5.842   6.353  16.764  0.00  0.00    +0.000 A 
ATOM      3  C   UNL     1       4.756   6.059  17.721  0.00  0.00    +0.000 A 
ATOM      4  C   UNL     1       4.101   4.890  17.618  0.00  0.00    +0.000 A 
ATOM      5  N   UNL     1       4.364   3.911  16.681  0.00  0.00    +0.000 NA
ATOM      6  C   UNL     1       5.303   4.180  15.846  0.00  0.00    +0.000 A 
ATOM      7  N   UNL     1       5.798   3.441  14.799  0.00  0.00    +0.000 N 
ATOM      8  C   UNL     1       6.803   4.139  14.174  0.00  0.00    +0.000 A 
ATOM      9  C   UNL     1       6.956   5.314  14.812  0.00  0.00    +0.000 A 
ATOM     10  N   UNL     1       6.039   5.358  15.847  0.00  0.00    +0.000 N 
ATOM     11  H   UNL     1       5.485   2.517  14.547  0.00  0.00    +0.000 HD
ENDROOT
BRANCH   4  12
ATOM     12  C   UNL     1       3.002   4.630  18.563  0.00  0.00    +0.000 A 
ATOM     13  C   UNL     1       2.060   3.628  18.291  0.00  0.00    +0.000 A 
ATOM     14  C   UNL     1       1.047   3.345  19.209  0.00  0.00    +0.000 A 
ATOM     15  C   UNL     1       0.963   4.067  20.400  0.00  0.00    +0.000 A 
ATOM     16  C   UNL     1       1.882   5.081  20.667  0.00  0.00    +0.000 A 
ATOM     17  C   UNL     1       2.900   5.361  19.753  0.00  0.00    +0.000 A 
ENDBRANCH   4  12
TORSDOF 1
ENDMDL
MODEL 7
REMARK VINA RESULT:      -7.0      1.679      1.984
REMARK  Name = 
REMARK  1 active torsions:
REMARK  status: ('A' for Active; 'I' for Inactive)
REMARK    1  A    between atoms: C_4  and  C_5
REMARK                            x       y       z     vdW  Elec       q    Type
REMARK                         _______ _______ _______ _____ _____    ______ ____
ROOT
ATOM      1  O   UNL     1       4.526   7.327  16.671  0.00  0.00    +0.000 OA
ATOM      2  C   UNL     1       4.508   6.120  16.893  0.00  0.00    +0.000 A 
ATOM      3  C   UNL     1       3.700   5.569  17.999  0.00  0.00    +0.000 A 
ATOM      4  C   UNL     1       3.716   4.242  18.215  0.00  0.00    +0.000 A 
ATOM      5  N   UNL     1       4.444   3.327  17.483  0.00  0.00    +0.000 NA
ATOM      6  C   UNL     1       5.136   3.813  16.516  0.00  0.00    +0.000 A 
ATOM      7  N   UNL     1       5.948   3.187  15.602  0.00  0.00    +0.000 N 
ATOM      8  C   UNL     1       6.480   4.116  14.741  0.00  0.00    +0.000 A 
ATOM      9  C   UNL     1       6.018   5.329  15.097  0.00  0.00    +0.000 A 
ATOM     10  N   UNL     1       5.187   5.163  16.190  0.00  0.00    +0.000 N 
ATOM     11  H   UNL     1       6.141   2.198  15.585  0.00  0.00    +0.000 HD
ENDROOT
BRANCH   4  12
ATOM     12  C   UNL     1       2.880   3.710  19.305  0.00  0.00    +0.000 A 
ATOM     13  C   UNL     1       3.466   2.993  20.357  0.00  0.00    +0.000 A 
ATOM     14  C   UNL     1       2.683   2.532  21.417  0.00  0.00    +0.000 A 
ATOM     15  C   UNL     1       1.309   2.775  21.427  0.00  0.00    +0.000 A 
ATOM     16  C   UNL     1       0.715   3.466  20.372  0.00  0.00    +0.000 A 
ATOM     17  C   UNL     1       1.498   3.935  19.314  0.00  0.00    +0.000 A 
ENDBRANCH   4  12
TORSDOF 1
ENDMDL
MODEL 8
REMARK VINA RESULT:      -7.0      2.889      5.874
REMARK  Name = 
REMARK  1 active torsions:
REMARK  status: ('A' for Active; 'I' for Inactive)
REMARK    1  A    between atoms: C_4  and  C_5
REMARK                            x       y       z     vdW  Elec       q    Type
REMARK                         _______ _______ _______ _____ _____    ______ ____
ROOT
ATOM      1  O   UNL     1       2.268   2.511  17.026  0.00  0.00    +0.000 OA
ATOM      2  C   UNL     1       2.749   3.187  17.931  0.00  0.00    +0.000 A 
ATOM      3  C   UNL     1       3.931   4.038  17.690  0.00  0.00    +0.000 A 
ATOM      4  C   UNL     1       4.433   4.755  18.710  0.00  0.00    +0.000 A 
ATOM      5  N   UNL     1       3.936   4.761  19.998  0.00  0.00    +0.000 NA
ATOM      6  C   UNL     1       2.899   4.026  20.196  0.00  0.00    +0.000 A 
ATOM      7  N   UNL     1       2.163   3.820  21.337  0.00  0.00    +0.000 N 
ATOM      8  C   UNL     1       1.131   2.953  21.072  0.00  0.00    +0.000 A 
ATOM      9  C   UNL     1       1.202   2.602  19.774  0.00  0.00    +0.000 A 
ATOM     10  N   UNL     1       2.287   3.254  19.217  0.00  0.00    +0.000 N 
ATOM     11  H   UNL     1       2.367   4.227  22.236  0.00  0.00    +0.000 HD
ENDROOT
BRANCH   4  12
ATOM     12  C   UNL     1       5.595   5.619  18.441  0.00  0.00    +0.000 A 
ATOM     13  C   UNL     1       6.772   5.471  19.189  0.00  0.00    +0.000 A 
ATOM     14  C   UNL     1       7.891   6.255  18.902  0.00  0.00    +0.000 A 
ATOM     15  C   UNL     1       7.839   7.196  17.874  0.00  0.00    +0.000 A 
ATOM     16  C   UNL     1       6.664   7.366  17.142  0.00  0.00    +0.000 A 
ATOM     17  C   UNL     1       5.545   6.578  17.423  0.00  0.00    +0.000 A 
ENDBRANCH   4  12
TORSDOF 1
ENDMDL
MODEL 9
REMARK VINA RESULT:      -7.0      1.307      1.778
REMARK  Name = 
REMARK  1 active torsions:
REMARK  status: ('A' for Active; 'I' for Inactive)
REMARK    1  A    between atoms: C_4  and  C_5
REMARK                            x       y       z     vdW  Elec       q    Type
REMARK                         _______ _______ _______ _____ _____    ______ ____
ROOT
ATOM      1  O   UNL     1       6.608   7.322  16.846  0.00  0.00    +0.000 OA
ATOM      2  C   UNL     1       5.961   6.282  16.770  0.00  0.00    +0.000 A 
ATOM      3  C   UNL     1       4.895   5.984  17.747  0.00  0.00    +0.000 A 
ATOM      4  C   UNL     1       4.217   4.829  17.635  0.00  0.00    +0.000 A 
ATOM      5  N   UNL     1       4.439   3.868  16.670  0.00  0.00    +0.000 NA
ATOM      6  C   UNL     1       5.361   4.140  15.816  0.00  0.00    +0.000 A 
ATOM      7  N   UNL     1       5.816   3.418  14.741  0.00  0.00    +0.000 N 
ATOM      8  C   UNL     1       6.817   4.113  14.106  0.00  0.00    +0.000 A 
ATOM      9  C   UNL     1       7.006   5.271  14.766  0.00  0.00    +0.000 A 
ATOM     10  N   UNL     1       6.117   5.306  15.825  0.00  0.00    +0.000 N 
ATOM     11  H   UNL     1       5.481   2.505  14.476  0.00  0.00    +0.000 HD
ENDROOT
BRANCH   4  12
ATOM     12  C   UNL     1       3.138   4.565  18.602  0.00  0.00    +0.000 A 
ATOM     13  C   UNL     1       3.047   5.318  19.781  0.00  0.00    +0.000 A 
ATOM     14  C   UNL     1       1.997   5.103  20.674  0.00  0.00    +0.000 A 
ATOM     15  C   UNL     1       1.036   4.129  20.402  0.00  0.00    +0.000 A 
ATOM     16  C   UNL     1       1.134   3.359  19.243  0.00  0.00    +0.000 A 
ATOM     17  C   UNL     1       2.180   3.577  18.345  0.00  0.00    +0.000 A 
ENDBRANCH   4  12
TORSDOF 1
ENDMDL
