MODEL 1
REMARK VINA RESULT:      -8.2      0.000      0.000
REMARK  Name = 
REMARK  10 active torsions:
REMARK  status: ('A' for Active; 'I' for Inactive)
REMARK    1  A    between atoms: C_1  and  O_2
REMARK    2  A    between atoms: O_2  and  C_3
REMARK    3  A    between atoms: C_6  and  C_7
REMARK    4  A    between atoms: C_7  and  C_8
REMARK    5  A    between atoms: C_8  and  N_9
REMARK    6  A    between atoms: C_10  and  C_12
REMARK    7  A    between atoms: N_17  and  C_18
REMARK    8  A    between atoms: C_18  and  C_19
REMARK    9  A    between atoms: C_27  and  O_28
REMARK   10  A    between atoms: O_28  and  C_29
REMARK                            x       y       z     vdW  Elec       q    Type
REMARK                         _______ _______ _______ _____ _____    ______ ____
ROOT
ATOM      1  N   UNL     1       2.089   7.099  18.675  0.00  0.00    +0.000 N 
ATOM      2  C   UNL     1       2.032   6.138  19.657  0.00  0.00    +0.000 C 
ATOM      3  O   UNL     1       1.709   6.388  20.816  0.00  0.00    +0.000 OA
ATOM      4  H   UNL     1       2.416   6.853  17.749  0.00  0.00    +0.000 HD
ENDROOT
BRANCH   2   5
ATOM      5  C   UNL     1       2.365   4.721  19.162  0.00  0.00    +0.000 C 
ATOM      6  C   UNL     1       1.495   3.698  19.885  0.00  0.00    +0.000 C 
ATOM      7  C   UNL     1       2.329   2.426  19.849  0.00  0.00    +0.000 C 
ATOM      8  C   UNL     1       3.746   2.949  19.862  0.00  0.00    +0.000 C 
ATOM      9  O   UNL     1       4.736   2.289  20.131  0.00  0.00    +0.000 OA
ATOM     10  N   UNL     1       3.713   4.273  19.456  0.00  0.00    +0.000 N 
BRANCH  10  11
ATOM     11  C   UNL     1       4.899   5.086  19.240  0.00  0.00    +0.000 C 
BRANCH  11  12
ATOM     12  C   UNL     1       5.545   4.881  17.889  0.00  0.00    +0.000 A 
ATOM     13  C   UNL     1       4.728   4.486  16.811  0.00  0.00    +0.000 A 
ATOM     14  C   UNL     1       5.268   4.230  15.550  0.00  0.00    +0.000 A 
ATOM     15  C   UNL     1       6.634   4.377  15.336  0.00  0.00    +0.000 A 
ATOM     16  C   UNL     1       7.458   4.784  16.384  0.00  0.00    +0.000 A 
ATOM     17  C   UNL     1       6.920   5.033  17.653  0.00  0.00    +0.000 A 
ATOM     18 CL   UNL     1       8.023   5.504  18.895  0.00  0.00    +0.000 Cl
ENDBRANCH  11  12
ENDBRANCH  10  11
ENDBRANCH   2   5
BRANCH   1  19
ATOM     19  C   UNL     1       1.958   8.506  19.007  0.00  0.00    +0.000 C 
BRANCH  19  20
ATOM     20  C   UNL     1       1.292   9.304  17.888  0.00  0.00    +0.000 C 
BRANCH  20  24
ATOM     21  C   UNL     1      -2.279  11.474  19.011  0.00  0.00    +0.000 A 
ATOM     22  C   UNL     1      -1.191  11.385  19.893  0.00  0.00    +0.000 A 
ATOM     23  C   UNL     1      -0.037  10.684  19.543  0.00  0.00    +0.000 A 
ATOM     24  C   UNL     1       0.034  10.014  18.323  0.00  0.00    +0.000 A 
ATOM     25  C   UNL     1      -1.089  10.025  17.487  0.00  0.00    +0.000 A 
ATOM     26  C   UNL     1      -2.251  10.741  17.817  0.00  0.00    +0.000 A 
BRANCH  21  28
ATOM     27  C   UNL     1      -3.350  12.831  20.618  0.00  0.00    +0.000 C 
ATOM     28  O   UNL     1      -3.370  12.245  19.314  0.00  0.00    +0.000 OA
ENDBRANCH  21  28
BRANCH  26  29
ATOM     29  O   UNL     1      -3.213  10.611  16.853  0.00  0.00    +0.000 OA
ATOM     30  C   UNL     1      -2.821  10.531  15.494  0.00  0.00    +0.000 C 
ENDBRANCH  26  29
ENDBRANCH  20  24
ENDBRANCH  19  20
ENDBRANCH   1  19
TORSDOF 8
ENDMDL
MODEL 2
REMARK VINA RESULT:      -8.0      2.079      2.430
REMARK  Name = 
REMARK  10 active torsions:
REMARK  status: ('A' for Active; 'I' for Inactive)
REMARK    1  A    between atoms: C_1  and  O_2
REMARK    2  A    between atoms: O_2  and  C_3
REMARK    3  A    between atoms: C_6  and  C_7
REMARK    4  A    between atoms: C_7  and  C_8
REMARK    5  A    between atoms: C_8  and  N_9
REMARK    6  A    between atoms: C_10  and  C_12
REMARK    7  A    between atoms: N_17  and  C_18
REMARK    8  A    between atoms: C_18  and  C_19
REMARK    9  A    between atoms: C_27  and  O_28
REMARK   10  A    between atoms: O_28  and  C_29
REMARK                            x       y       z     vdW  Elec       q    Type
REMARK                         _______ _______ _______ _____ _____    ______ ____
ROOT
ATOM      1  N   UNL     1       2.151   6.656  19.959  0.00  0.00    +0.000 N 
ATOM      2  C   UNL     1       2.769   6.276  18.790  0.00  0.00    +0.000 C 
ATOM      3  O   UNL     1       3.201   7.083  17.971  0.00  0.00    +0.000 OA
ATOM      4  H   UNL     1       1.761   5.954  20.574  0.00  0.00    +0.000 HD
ENDROOT
BRANCH   2   5
ATOM      5  C   UNL     1       2.906   4.753  18.626  0.00  0.00    +0.000 C 
ATOM      6  C   UNL     1       1.812   4.043  19.414  0.00  0.00    +0.000 C 
ATOM      7  C   UNL     1       2.420   2.684  19.732  0.00  0.00    +0.000 C 
ATOM      8  C   UNL     1       3.896   2.989  19.828  0.00  0.00    +0.000 C 
ATOM      9  O   UNL     1       4.731   2.264  20.344  0.00  0.00    +0.000 OA
ATOM     10  N   UNL     1       4.125   4.187  19.172  0.00  0.00    +0.000 N 
BRANCH  10  11
ATOM     11  C   UNL     1       5.446   4.756  18.959  0.00  0.00    +0.000 C 
BRANCH  11  12
ATOM     12  C   UNL     1       5.892   4.744  17.515  0.00  0.00    +0.000 A 
ATOM     13  C   UNL     1       5.310   3.802  16.644  0.00  0.00    +0.000 A 
ATOM     14  C   UNL     1       5.714   3.703  15.312  0.00  0.00    +0.000 A 
ATOM     15  C   UNL     1       6.697   4.553  14.818  0.00  0.00    +0.000 A 
ATOM     16  C   UNL     1       7.273   5.504  15.658  0.00  0.00    +0.000 A 
ATOM     17  C   UNL     1       6.877   5.600  16.998  0.00  0.00    +0.000 A 
ATOM     18 CL   UNL     1       7.669   6.789  17.968  0.00  0.00    +0.000 Cl
ENDBRANCH  11  12
ENDBRANCH  10  11
ENDBRANCH   2   5
BRANCH   1  19
ATOM     19  C   UNL     1       1.803   8.046  20.193  0.00  0.00    +0.000 C 
BRANCH  19  20
ATOM     20  C   UNL     1       1.416   8.308  21.646  0.00  0.00    +0.000 C 
BRANCH  20  24
ATOM     21  C   UNL     1      -1.369  11.587  22.109  0.00  0.00    +0.000 A 
ATOM     22  C   UNL     1      -1.124  10.703  23.172  0.00  0.00    +0.000 A 
ATOM     23  C   UNL     1      -0.232   9.640  23.032  0.00  0.00    +0.000 A 
ATOM     24  C   UNL     1       0.397   9.409  21.809  0.00  0.00    +0.000 A 
ATOM     25  C   UNL     1       0.077  10.233  20.725  0.00  0.00    +0.000 A 
ATOM     26  C   UNL     1      -0.805  11.318  20.855  0.00  0.00    +0.000 A 
BRANCH  21  28
ATOM     27  C   UNL     1      -3.197  12.540  23.259  0.00  0.00    +0.000 C 
ATOM     28  O   UNL     1      -2.167  12.687  22.278  0.00  0.00    +0.000 OA
ENDBRANCH  21  28
BRANCH  26  29
ATOM     29  O   UNL     1      -0.963  11.984  19.670  0.00  0.00    +0.000 OA
ATOM     30  C   UNL     1      -0.070  13.035  19.345  0.00  0.00    +0.000 C 
ENDBRANCH  26  29
ENDBRANCH  20  24
ENDBRANCH  19  20
ENDBRANCH   1  19
TORSDOF 8
ENDMDL
MODEL 3
REMARK VINA RESULT:      -8.0      2.327      2.900
REMARK  Name = 
REMARK  10 active torsions:
REMARK  status: ('A' for Active; 'I' for Inactive)
REMARK    1  A    between atoms: C_1  and  O_2
REMARK    2  A    between atoms: O_2  and  C_3
REMARK    3  A    between atoms: C_6  and  C_7
REMARK    4  A    between atoms: C_7  and  C_8
REMARK    5  A    between atoms: C_8  and  N_9
REMARK    6  A    between atoms: C_10  and  C_12
REMARK    7  A    between atoms: N_17  and  C_18
REMARK    8  A    between atoms: C_18  and  C_19
REMARK    9  A    between atoms: C_27  and  O_28
REMARK   10  A    between atoms: O_28  and  C_29
REMARK                            x       y       z     vdW  Elec       q    Type
REMARK                         _______ _______ _______ _____ _____    ______ ____
ROOT
ATOM      1  N   UNL     1       2.146   6.827  17.908  0.00  0.00    +0.000 N 
ATOM      2  C   UNL     1       2.480   5.894  18.861  0.00  0.00    +0.000 C 
ATOM      3  O   UNL     1       3.060   6.185  19.904  0.00  0.00    +0.000 OA
ATOM      4  H   UNL     1       1.721   6.529  17.039  0.00  0.00    +0.000 HD
ENDROOT
BRANCH   2   5
ATOM      5  C   UNL     1       2.025   4.465  18.521  0.00  0.00    +0.000 C 
ATOM      6  C   UNL     1       1.588   3.741  19.789  0.00  0.00    +0.000 C 
ATOM      7  C   UNL     1       1.824   2.273  19.466  0.00  0.00    +0.000 C 
ATOM      8  C   UNL     1       2.993   2.321  18.511  0.00  0.00    +0.000 C 
ATOM      9  O   UNL     1       3.702   1.372  18.219  0.00  0.00    +0.000 OA
ATOM     10  N   UNL     1       3.063   3.603  17.991  0.00  0.00    +0.000 N 
BRANCH  10  11
ATOM     11  C   UNL     1       3.997   4.008  16.952  0.00  0.00    +0.000 C 
BRANCH  11  12
ATOM     12  C   UNL     1       5.177   4.801  17.464  0.00  0.00    +0.000 A 
ATOM     13  C   UNL     1       5.772   4.405  18.678  0.00  0.00    +0.000 A 
ATOM     14  C   UNL     1       6.832   5.125  19.232  0.00  0.00    +0.000 A 
ATOM     15  C   UNL     1       7.329   6.246  18.578  0.00  0.00    +0.000 A 
ATOM     16  C   UNL     1       6.767   6.644  17.366  0.00  0.00    +0.000 A 
ATOM     17  C   UNL     1       5.697   5.930  16.812  0.00  0.00    +0.000 A 
ATOM     18 CL   UNL     1       5.048   6.517  15.324  0.00  0.00    +0.000 Cl
ENDBRANCH  11  12
ENDBRANCH  10  11
ENDBRANCH   2   5
BRANCH   1  19
ATOM     19  C   UNL     1       2.640   8.189  18.001  0.00  0.00    +0.000 C 
BRANCH  19  20
ATOM     20  C   UNL     1       1.527   9.220  17.828  0.00  0.00    +0.000 C 
BRANCH  20  24
ATOM     21  C   UNL     1       0.150  10.866  21.586  0.00  0.00    +0.000 A 
ATOM     22  C   UNL     1       0.607   9.541  21.512  0.00  0.00    +0.000 A 
ATOM     23  C   UNL     1       1.047   8.999  20.305  0.00  0.00    +0.000 A 
ATOM     24  C   UNL     1       0.995   9.756  19.135  0.00  0.00    +0.000 A 
ATOM     25  C   UNL     1       0.449  11.043  19.195  0.00  0.00    +0.000 A 
ATOM     26  C   UNL     1       0.018  11.609  20.405  0.00  0.00    +0.000 A 
BRANCH  21  28
ATOM     27  C   UNL     1      -1.555  11.254  23.172  0.00  0.00    +0.000 C 
ATOM     28  O   UNL     1      -0.188  11.428  22.788  0.00  0.00    +0.000 OA
ENDBRANCH  21  28
BRANCH  26  29
ATOM     29  O   UNL     1      -0.472  12.874  20.224  0.00  0.00    +0.000 OA
ATOM     30  C   UNL     1       0.421  13.974  20.282  0.00  0.00    +0.000 C 
ENDBRANCH  26  29
ENDBRANCH  20  24
ENDBRANCH  19  20
ENDBRANCH   1  19
TORSDOF 8
ENDMDL
MODEL 4
REMARK VINA RESULT:      -8.0      2.338      2.652
REMARK  Name = 
REMARK  10 active torsions:
REMARK  status: ('A' for Active; 'I' for Inactive)
REMARK    1  A    between atoms: C_1  and  O_2
REMARK    2  A    between atoms: O_2  and  C_3
REMARK    3  A    between atoms: C_6  and  C_7
REMARK    4  A    between atoms: C_7  and  C_8
REMARK    5  A    between atoms: C_8  and  N_9
REMARK    6  A    between atoms: C_10  and  C_12
REMARK    7  A    between atoms: N_17  and  C_18
REMARK    8  A    between atoms: C_18  and  C_19
REMARK    9  A    between atoms: C_27  and  O_28
REMARK   10  A    between atoms: O_28  and  C_29
REMARK                            x       y       z     vdW  Elec       q    Type
REMARK                         _______ _______ _______ _____ _____    ______ ____
ROOT
ATOM      1  N   UNL     1       2.784   6.858  17.847  0.00  0.00    +0.000 N 
ATOM      2  C   UNL     1       2.655   6.104  18.990  0.00  0.00    +0.000 C 
ATOM      3  O   UNL     1       2.394   6.593  20.086  0.00  0.00    +0.000 OA
ATOM      4  H   UNL     1       3.056   6.415  16.980  0.00  0.00    +0.000 HD
ENDROOT
BRANCH   2   5
ATOM      5  C   UNL     1       2.824   4.593  18.761  0.00  0.00    +0.000 C 
ATOM      6  C   UNL     1       1.743   3.827  19.513  0.00  0.00    +0.000 C 
ATOM      7  C   UNL     1       2.378   2.469  19.775  0.00  0.00    +0.000 C 
ATOM      8  C   UNL     1       3.847   2.799  19.888  0.00  0.00    +0.000 C 
ATOM      9  O   UNL     1       4.696   2.070  20.376  0.00  0.00    +0.000 OA
ATOM     10  N   UNL     1       4.053   4.029  19.286  0.00  0.00    +0.000 N 
BRANCH  10  11
ATOM     11  C   UNL     1       5.363   4.634  19.102  0.00  0.00    +0.000 C 
BRANCH  11  12
ATOM     12  C   UNL     1       5.813   4.692  17.660  0.00  0.00    +0.000 A 
ATOM     13  C   UNL     1       5.173   3.854  16.726  0.00  0.00    +0.000 A 
ATOM     14  C   UNL     1       5.576   3.821  15.390  0.00  0.00    +0.000 A 
ATOM     15  C   UNL     1       6.615   4.635  14.956  0.00  0.00    +0.000 A 
ATOM     16  C   UNL     1       7.250   5.485  15.860  0.00  0.00    +0.000 A 
ATOM     17  C   UNL     1       6.855   5.514  17.204  0.00  0.00    +0.000 A 
ATOM     18 CL   UNL     1       7.720   6.577  18.254  0.00  0.00    +0.000 Cl
ENDBRANCH  11  12
ENDBRANCH  10  11
ENDBRANCH   2   5
BRANCH   1  19
ATOM     19  C   UNL     1       2.809   8.308  17.917  0.00  0.00    +0.000 C 
BRANCH  19  20
ATOM     20  C   UNL     1       1.406   8.908  17.982  0.00  0.00    +0.000 C 
BRANCH  20  24
ATOM     21  C   UNL     1       0.854  12.105  20.845  0.00  0.00    +0.000 A 
ATOM     22  C   UNL     1       1.288  12.383  19.539  0.00  0.00    +0.000 A 
ATOM     23  C   UNL     1       1.475  11.360  18.611  0.00  0.00    +0.000 A 
ATOM     24  C   UNL     1       1.277  10.031  18.983  0.00  0.00    +0.000 A 
ATOM     25  C   UNL     1       0.937   9.750  20.311  0.00  0.00    +0.000 A 
ATOM     26  C   UNL     1       0.729  10.771  21.253  0.00  0.00    +0.000 A 
BRANCH  21  28
ATOM     27  C   UNL     1      -0.593  13.882  21.414  0.00  0.00    +0.000 C 
ATOM     28  O   UNL     1       0.575  13.117  21.725  0.00  0.00    +0.000 OA
ENDBRANCH  21  28
BRANCH  26  29
ATOM     29  O   UNL     1       0.402  10.263  22.481  0.00  0.00    +0.000 OA
ATOM     30  C   UNL     1      -0.441   9.126  22.555  0.00  0.00    +0.000 C 
ENDBRANCH  26  29
ENDBRANCH  20  24
ENDBRANCH  19  20
ENDBRANCH   1  19
TORSDOF 8
ENDMDL
MODEL 5
REMARK VINA RESULT:      -8.0      2.563      3.069
REMARK  Name = 
REMARK  10 active torsions:
REMARK  status: ('A' for Active; 'I' for Inactive)
REMARK    1  A    between atoms: C_1  and  O_2
REMARK    2  A    between atoms: O_2  and  C_3
REMARK    3  A    between atoms: C_6  and  C_7
REMARK    4  A    between atoms: C_7  and  C_8
REMARK    5  A    between atoms: C_8  and  N_9
REMARK    6  A    between atoms: C_10  and  C_12
REMARK    7  A    between atoms: N_17  and  C_18
REMARK    8  A    between atoms: C_18  and  C_19
REMARK    9  A    between atoms: C_27  and  O_28
REMARK   10  A    between atoms: O_28  and  C_29
REMARK                            x       y       z     vdW  Elec       q    Type
REMARK                         _______ _______ _______ _____ _____    ______ ____
ROOT
ATOM      1  N   UNL     1       2.109   6.730  17.984  0.00  0.00    +0.000 N 
ATOM      2  C   UNL     1       2.130   5.927  19.101  0.00  0.00    +0.000 C 
ATOM      3  O   UNL     1       2.368   6.358  20.226  0.00  0.00    +0.000 OA
ATOM      4  H   UNL     1       1.965   6.318  17.071  0.00  0.00    +0.000 HD
ENDROOT
BRANCH   2   5
ATOM      5  C   UNL     1       1.787   4.456  18.817  0.00  0.00    +0.000 C 
ATOM      6  C   UNL     1       1.477   3.731  20.121  0.00  0.00    +0.000 C 
ATOM      7  C   UNL     1       1.828   2.281  19.821  0.00  0.00    +0.000 C 
ATOM      8  C   UNL     1       2.941   2.405  18.808  0.00  0.00    +0.000 C 
ATOM      9  O   UNL     1       3.716   1.513  18.503  0.00  0.00    +0.000 OA
ATOM     10  N   UNL     1       2.872   3.673  18.256  0.00  0.00    +0.000 N 
BRANCH  10  11
ATOM     11  C   UNL     1       3.715   4.130  17.162  0.00  0.00    +0.000 C 
BRANCH  11  12
ATOM     12  C   UNL     1       5.127   4.471  17.579  0.00  0.00    +0.000 A 
ATOM     13  C   UNL     1       5.333   5.003  18.867  0.00  0.00    +0.000 A 
ATOM     14  C   UNL     1       6.604   5.388  19.296  0.00  0.00    +0.000 A 
ATOM     15  C   UNL     1       7.698   5.235  18.452  0.00  0.00    +0.000 A 
ATOM     16  C   UNL     1       7.520   4.694  17.180  0.00  0.00    +0.000 A 
ATOM     17  C   UNL     1       6.244   4.316  16.744  0.00  0.00    +0.000 A 
ATOM     18 CL   UNL     1       6.118   3.683  15.142  0.00  0.00    +0.000 Cl
ENDBRANCH  11  12
ENDBRANCH  10  11
ENDBRANCH   2   5
BRANCH   1  19
ATOM     19  C   UNL     1       2.562   8.107  18.054  0.00  0.00    +0.000 C 
BRANCH  19  20
ATOM     20  C   UNL     1       1.427   9.101  17.823  0.00  0.00    +0.000 C 
BRANCH  20  24
ATOM     21  C   UNL     1       1.091  12.261  20.761  0.00  0.00    +0.000 A 
ATOM     22  C   UNL     1       1.613  12.525  19.485  0.00  0.00    +0.000 A 
ATOM     23  C   UNL     1       1.731  11.513  18.533  0.00  0.00    +0.000 A 
ATOM     24  C   UNL     1       1.374  10.204  18.853  0.00  0.00    +0.000 A 
ATOM     25  C   UNL     1       0.944   9.926  20.155  0.00  0.00    +0.000 A 
ATOM     26  C   UNL     1       0.804  10.937  21.120  0.00  0.00    +0.000 A 
BRANCH  21  28
ATOM     27  C   UNL     1      -0.413  13.873  21.602  0.00  0.00    +0.000 C 
ATOM     28  O   UNL     1       0.883  13.273  21.660  0.00  0.00    +0.000 OA
ENDBRANCH  21  28
BRANCH  26  29
ATOM     29  O   UNL     1       0.367  10.436  22.315  0.00  0.00    +0.000 OA
ATOM     30  C   UNL     1      -0.278   9.173  22.339  0.00  0.00    +0.000 C 
ENDBRANCH  26  29
ENDBRANCH  20  24
ENDBRANCH  19  20
ENDBRANCH   1  19
TORSDOF 8
ENDMDL
MODEL 6
REMARK VINA RESULT:      -8.0      5.790      8.581
REMARK  Name = 
REMARK  10 active torsions:
REMARK  status: ('A' for Active; 'I' for Inactive)
REMARK    1  A    between atoms: C_1  and  O_2
REMARK    2  A    between atoms: O_2  and  C_3
REMARK    3  A    between atoms: C_6  and  C_7
REMARK    4  A    between atoms: C_7  and  C_8
REMARK    5  A    between atoms: C_8  and  N_9
REMARK    6  A    between atoms: C_10  and  C_12
REMARK    7  A    between atoms: N_17  and  C_18
REMARK    8  A    between atoms: C_18  and  C_19
REMARK    9  A    between atoms: C_27  and  O_28
REMARK   10  A    between atoms: O_28  and  C_29
REMARK                            x       y       z     vdW  Elec       q    Type
REMARK                         _______ _______ _______ _____ _____    ______ ____
ROOT
ATOM      1  N   UNL     1       7.683   6.824  18.133  0.00  0.00    +0.000 N 
ATOM      2  C   UNL     1       7.388   5.700  18.869  0.00  0.00    +0.000 C 
ATOM      3  O   UNL     1       7.614   5.613  20.073  0.00  0.00    +0.000 OA
ATOM      4  H   UNL     1       7.531   6.825  17.133  0.00  0.00    +0.000 HD
ENDROOT
BRANCH   2   5
ATOM      5  C   UNL     1       6.713   4.583  18.055  0.00  0.00    +0.000 C 
ATOM      6  C   UNL     1       7.427   4.406  16.721  0.00  0.00    +0.000 C 
ATOM      7  C   UNL     1       6.348   3.844  15.806  0.00  0.00    +0.000 C 
ATOM      8  C   UNL     1       5.083   4.450  16.364  0.00  0.00    +0.000 C 
ATOM      9  O   UNL     1       4.014   4.508  15.778  0.00  0.00    +0.000 OA
ATOM     10  N   UNL     1       5.344   4.856  17.662  0.00  0.00    +0.000 N 
BRANCH  10  11
ATOM     11  C   UNL     1       4.336   5.391  18.564  0.00  0.00    +0.000 C 
BRANCH  11  12
ATOM     12  C   UNL     1       3.424   4.340  19.155  0.00  0.00    +0.000 A 
ATOM     13  C   UNL     1       3.949   3.473  20.133  0.00  0.00    +0.000 A 
ATOM     14  C   UNL     1       3.175   2.449  20.681  0.00  0.00    +0.000 A 
ATOM     15  C   UNL     1       1.857   2.279  20.274  0.00  0.00    +0.000 A 
ATOM     16  C   UNL     1       1.312   3.137  19.321  0.00  0.00    +0.000 A 
ATOM     17  C   UNL     1       2.089   4.160  18.762  0.00  0.00    +0.000 A 
ATOM     18 CL   UNL     1       1.336   5.153  17.567  0.00  0.00    +0.000 Cl
ENDBRANCH  11  12
ENDBRANCH  10  11
ENDBRANCH   2   5
BRANCH   1  19
ATOM     19  C   UNL     1       8.461   7.904  18.713  0.00  0.00    +0.000 C 
BRANCH  19  20
ATOM     20  C   UNL     1       8.234   9.231  17.993  0.00  0.00    +0.000 C 
BRANCH  20  24
ATOM     21  C   UNL     1      10.589  12.468  19.635  0.00  0.00    +0.000 A 
ATOM     22  C   UNL     1      10.113  11.440  20.463  0.00  0.00    +0.000 A 
ATOM     23  C   UNL     1       9.349  10.395  19.945  0.00  0.00    +0.000 A 
ATOM     24  C   UNL     1       9.002  10.382  18.595  0.00  0.00    +0.000 A 
ATOM     25  C   UNL     1       9.398  11.458  17.791  0.00  0.00    +0.000 A 
ATOM     26  C   UNL     1      10.182  12.508  18.294  0.00  0.00    +0.000 A 
BRANCH  21  28
ATOM     27  C   UNL     1      10.763  14.621  20.587  0.00  0.00    +0.000 C 
ATOM     28  O   UNL     1      11.422  13.439  20.125  0.00  0.00    +0.000 OA
ENDBRANCH  21  28
BRANCH  26  29
ATOM     29  O   UNL     1      10.451  13.442  17.331  0.00  0.00    +0.000 OA
ATOM     30  C   UNL     1      11.718  13.434  16.697  0.00  0.00    +0.000 C 
ENDBRANCH  26  29
ENDBRANCH  20  24
ENDBRANCH  19  20
ENDBRANCH   1  19
TORSDOF 8
ENDMDL
MODEL 7
REMARK VINA RESULT:      -7.9      2.199      2.372
REMARK  Name = 
REMARK  10 active torsions:
REMARK  status: ('A' for Active; 'I' for Inactive)
REMARK    1  A    between atoms: C_1  and  O_2
REMARK    2  A    between atoms: O_2  and  C_3
REMARK    3  A    between atoms: C_6  and  C_7
REMARK    4  A    between atoms: C_7  and  C_8
REMARK    5  A    between atoms: C_8  and  N_9
REMARK    6  A    between atoms: C_10  and  C_12
REMARK    7  A    between atoms: N_17  and  C_18
REMARK    8  A    between atoms: C_18  and  C_19
REMARK    9  A    between atoms: C_27  and  O_28
REMARK   10  A    between atoms: O_28  and  C_29
REMARK                            x       y       z     vdW  Elec       q    Type
REMARK                         _______ _______ _______ _____ _____    ______ ____
ROOT
ATOM      1  N   UNL     1       2.781   6.905  17.952  0.00  0.00    +0.000 N 
ATOM      2  C   UNL     1       2.631   6.130  19.078  0.00  0.00    +0.000 C 
ATOM      3  O   UNL     1       2.356   6.599  20.179  0.00  0.00    +0.000 OA
ATOM      4  H   UNL     1       3.064   6.477  17.080  0.00  0.00    +0.000 HD
ENDROOT
BRANCH   2   5
ATOM      5  C   UNL     1       2.795   4.622  18.821  0.00  0.00    +0.000 C 
ATOM      6  C   UNL     1       1.727   3.844  19.581  0.00  0.00    +0.000 C 
ATOM      7  C   UNL     1       2.367   2.483  19.810  0.00  0.00    +0.000 C 
ATOM      8  C   UNL     1       3.838   2.811  19.902  0.00  0.00    +0.000 C 
ATOM      9  O   UNL     1       4.695   2.074  20.363  0.00  0.00    +0.000 OA
ATOM     10  N   UNL     1       4.033   4.051  19.316  0.00  0.00    +0.000 N 
BRANCH  10  11
ATOM     11  C   UNL     1       5.340   4.658  19.117  0.00  0.00    +0.000 C 
BRANCH  11  12
ATOM     12  C   UNL     1       5.772   4.723  17.670  0.00  0.00    +0.000 A 
ATOM     13  C   UNL     1       5.131   3.879  16.744  0.00  0.00    +0.000 A 
ATOM     14  C   UNL     1       5.517   3.852  15.402  0.00  0.00    +0.000 A 
ATOM     15  C   UNL     1       6.541   4.680  14.957  0.00  0.00    +0.000 A 
ATOM     16  C   UNL     1       7.176   5.537  15.854  0.00  0.00    +0.000 A 
ATOM     17  C   UNL     1       6.798   5.559  17.202  0.00  0.00    +0.000 A 
ATOM     18 CL   UNL     1       7.662   6.632  18.243  0.00  0.00    +0.000 Cl
ENDBRANCH  11  12
ENDBRANCH  10  11
ENDBRANCH   2   5
BRANCH   1  19
ATOM     19  C   UNL     1       2.813   8.354  18.050  0.00  0.00    +0.000 C 
BRANCH  19  20
ATOM     20  C   UNL     1       1.433   8.977  17.852  0.00  0.00    +0.000 C 
BRANCH  20  24
ATOM     21  C   UNL     1       0.513  11.784  21.014  0.00  0.00    +0.000 A 
ATOM     22  C   UNL     1       0.202  10.422  21.156  0.00  0.00    +0.000 A 
ATOM     23  C   UNL     1       0.489   9.510  20.140  0.00  0.00    +0.000 A 
ATOM     24  C   UNL     1       1.050   9.948  18.941  0.00  0.00    +0.000 A 
ATOM     25  C   UNL     1       1.270  11.319  18.767  0.00  0.00    +0.000 A 
ATOM     26  C   UNL     1       1.002  12.248  19.786  0.00  0.00    +0.000 A 
BRANCH  21  28
ATOM     27  C   UNL     1      -1.044  12.876  22.412  0.00  0.00    +0.000 C 
ATOM     28  O   UNL     1       0.322  12.661  22.049  0.00  0.00    +0.000 OA
ENDBRANCH  21  28
BRANCH  26  29
ATOM     29  O   UNL     1       1.299  13.525  19.395  0.00  0.00    +0.000 OA
ATOM     30  C   UNL     1       2.152  13.724  18.280  0.00  0.00    +0.000 C 
ENDBRANCH  26  29
ENDBRANCH  20  24
ENDBRANCH  19  20
ENDBRANCH   1  19
TORSDOF 8
ENDMDL
MODEL 8
REMARK VINA RESULT:      -7.9      1.305      1.511
REMARK  Name = 
REMARK  10 active torsions:
REMARK  status: ('A' for Active; 'I' for Inactive)
REMARK    1  A    between atoms: C_1  and  O_2
REMARK    2  A    between atoms: O_2  and  C_3
REMARK    3  A    between atoms: C_6  and  C_7
REMARK    4  A    between atoms: C_7  and  C_8
REMARK    5  A    between atoms: C_8  and  N_9
REMARK    6  A    between atoms: C_10  and  C_12
REMARK    7  A    between atoms: N_17  and  C_18
REMARK    8  A    between atoms: C_18  and  C_19
REMARK    9  A    between atoms: C_27  and  O_28
REMARK   10  A    between atoms: O_28  and  C_29
REMARK                            x       y       z     vdW  Elec       q    Type
REMARK                         _______ _______ _______ _____ _____    ______ ____
ROOT
ATOM      1  N   UNL     1       2.304   6.960  17.958  0.00  0.00    +0.000 N 
ATOM      2  C   UNL     1       2.602   5.893  18.772  0.00  0.00    +0.000 C 
ATOM      3  O   UNL     1       2.832   6.014  19.973  0.00  0.00    +0.000 OA
ATOM      4  H   UNL     1       2.180   6.816  16.964  0.00  0.00    +0.000 HD
ENDROOT
BRANCH   2   5
ATOM      5  C   UNL     1       2.580   4.535  18.052  0.00  0.00    +0.000 C 
ATOM      6  C   UNL     1       1.311   3.773  18.415  0.00  0.00    +0.000 C 
ATOM      7  C   UNL     1       1.704   2.313  18.241  0.00  0.00    +0.000 C 
ATOM      8  C   UNL     1       3.179   2.319  18.567  0.00  0.00    +0.000 C 
ATOM      9  O   UNL     1       3.843   1.331  18.836  0.00  0.00    +0.000 OA
ATOM     10  N   UNL     1       3.636   3.620  18.440  0.00  0.00    +0.000 N 
BRANCH  10  11
ATOM     11  C   UNL     1       5.032   4.006  18.570  0.00  0.00    +0.000 C 
BRANCH  11  12
ATOM     12  C   UNL     1       5.698   4.349  17.257  0.00  0.00    +0.000 A 
ATOM     13  C   UNL     1       5.166   3.797  16.075  0.00  0.00    +0.000 A 
ATOM     14  C   UNL     1       5.764   4.031  14.835  0.00  0.00    +0.000 A 
ATOM     15  C   UNL     1       6.895   4.834  14.749  0.00  0.00    +0.000 A 
ATOM     16  C   UNL     1       7.427   5.404  15.905  0.00  0.00    +0.000 A 
ATOM     17  C   UNL     1       6.836   5.163  17.151  0.00  0.00    +0.000 A 
ATOM     18 CL   UNL     1       7.583   5.888  18.528  0.00  0.00    +0.000 Cl
ENDBRANCH  11  12
ENDBRANCH  10  11
ENDBRANCH   2   5
BRANCH   1  19
ATOM     19  C   UNL     1       2.437   8.322  18.444  0.00  0.00    +0.000 C 
BRANCH  19  20
ATOM     20  C   UNL     1       1.408   9.261  17.820  0.00  0.00    +0.000 C 
BRANCH  20  24
ATOM     21  C   UNL     1      -1.094  11.349  20.667  0.00  0.00    +0.000 A 
ATOM     22  C   UNL     1       0.008  10.595  21.103  0.00  0.00    +0.000 A 
ATOM     23  C   UNL     1       0.817   9.914  20.194  0.00  0.00    +0.000 A 
ATOM     24  C   UNL     1       0.514   9.933  18.833  0.00  0.00    +0.000 A 
ATOM     25  C   UNL     1      -0.639  10.606  18.413  0.00  0.00    +0.000 A 
ATOM     26  C   UNL     1      -1.455  11.310  19.314  0.00  0.00    +0.000 A 
BRANCH  21  28
ATOM     27  C   UNL     1      -1.372  12.052  22.903  0.00  0.00    +0.000 C 
ATOM     28  O   UNL     1      -1.828  12.097  21.549  0.00  0.00    +0.000 OA
ENDBRANCH  21  28
BRANCH  26  29
ATOM     29  O   UNL     1      -2.519  11.892  18.680  0.00  0.00    +0.000 OA
ATOM     30  C   UNL     1      -2.969  11.352  17.450  0.00  0.00    +0.000 C 
ENDBRANCH  26  29
ENDBRANCH  20  24
ENDBRANCH  19  20
ENDBRANCH   1  19
TORSDOF 8
ENDMDL
MODEL 9
REMARK VINA RESULT:      -7.9      2.208      2.523
REMARK  Name = 
REMARK  10 active torsions:
REMARK  status: ('A' for Active; 'I' for Inactive)
REMARK    1  A    between atoms: C_1  and  O_2
REMARK    2  A    between atoms: O_2  and  C_3
REMARK    3  A    between atoms: C_6  and  C_7
REMARK    4  A    between atoms: C_7  and  C_8
REMARK    5  A    between atoms: C_8  and  N_9
REMARK    6  A    between atoms: C_10  and  C_12
REMARK    7  A    between atoms: N_17  and  C_18
REMARK    8  A    between atoms: C_18  and  C_19
REMARK    9  A    between atoms: C_27  and  O_28
REMARK   10  A    between atoms: O_28  and  C_29
REMARK                            x       y       z     vdW  Elec       q    Type
REMARK                         _______ _______ _______ _____ _____    ______ ____
ROOT
ATOM      1  N   UNL     1       1.906   6.822  20.897  0.00  0.00    +0.000 N 
ATOM      2  C   UNL     1       2.264   6.584  19.591  0.00  0.00    +0.000 C 
ATOM      3  O   UNL     1       2.526   7.484  18.797  0.00  0.00    +0.000 OA
ATOM      4  H   UNL     1       1.644   6.049  21.495  0.00  0.00    +0.000 HD
ENDROOT
BRANCH   2   5
ATOM      5  C   UNL     1       2.347   5.092  19.230  0.00  0.00    +0.000 C 
ATOM      6  C   UNL     1       1.264   4.315  19.970  0.00  0.00    +0.000 C 
ATOM      7  C   UNL     1       1.842   2.912  20.087  0.00  0.00    +0.000 C 
ATOM      8  C   UNL     1       3.330   3.164  20.153  0.00  0.00    +0.000 C 
ATOM      9  O   UNL     1       4.162   2.358  20.536  0.00  0.00    +0.000 OA
ATOM     10  N   UNL     1       3.569   4.430  19.645  0.00  0.00    +0.000 N 
BRANCH  10  11
ATOM     11  C   UNL     1       4.897   4.988  19.445  0.00  0.00    +0.000 C 
BRANCH  11  12
ATOM     12  C   UNL     1       5.457   4.756  18.060  0.00  0.00    +0.000 A 
ATOM     13  C   UNL     1       4.616   4.181  17.088  0.00  0.00    +0.000 A 
ATOM     14  C   UNL     1       5.086   3.893  15.805  0.00  0.00    +0.000 A 
ATOM     15  C   UNL     1       6.401   4.187  15.464  0.00  0.00    +0.000 A 
ATOM     16  C   UNL     1       7.245   4.773  16.406  0.00  0.00    +0.000 A 
ATOM     17  C   UNL     1       6.779   5.054  17.697  0.00  0.00    +0.000 A 
ATOM     18 CL   UNL     1       7.906   5.752  18.803  0.00  0.00    +0.000 Cl
ENDBRANCH  11  12
ENDBRANCH  10  11
ENDBRANCH   2   5
BRANCH   1  19
ATOM     19  C   UNL     1       1.630   8.172  21.355  0.00  0.00    +0.000 C 
BRANCH  19  20
ATOM     20  C   UNL     1       0.135   8.478  21.381  0.00  0.00    +0.000 C 
BRANCH  20  24
ATOM     21  C   UNL     1      -0.578  12.694  22.047  0.00  0.00    +0.000 A 
ATOM     22  C   UNL     1      -1.034  11.739  22.969  0.00  0.00    +0.000 A 
ATOM     23  C   UNL     1      -0.814  10.377  22.761  0.00  0.00    +0.000 A 
ATOM     24  C   UNL     1      -0.176   9.939  21.601  0.00  0.00    +0.000 A 
ATOM     25  C   UNL     1       0.191  10.887  20.639  0.00  0.00    +0.000 A 
ATOM     26  C   UNL     1      -0.008  12.262  20.842  0.00  0.00    +0.000 A 
BRANCH  21  28
ATOM     27  C   UNL     1      -1.985  14.588  21.979  0.00  0.00    +0.000 C 
ATOM     28  O   UNL     1      -0.706  14.034  22.300  0.00  0.00    +0.000 OA
ENDBRANCH  21  28
BRANCH  26  29
ATOM     29  O   UNL     1       0.431  12.997  19.775  0.00  0.00    +0.000 OA
ATOM     30  C   UNL     1      -0.456  13.247  18.698  0.00  0.00    +0.000 C 
ENDBRANCH  26  29
ENDBRANCH  20  24
ENDBRANCH  19  20
ENDBRANCH   1  19
TORSDOF 8
ENDMDL
