MODEL 1
REMARK VINA RESULT:      -7.7      0.000      0.000
REMARK  Name = 
REMARK  10 active torsions:
REMARK  status: ('A' for Active; 'I' for Inactive)
REMARK    1  A    between atoms: C_1  and  C_2
REMARK    2  A    between atoms: C_2  and  C_3
REMARK    3  A    between atoms: C_3  and  C_4
REMARK    4  A    between atoms: C_4  and  O_5
REMARK    5  A    between atoms: O_5  and  C_6
REMARK    6  A    between atoms: C_9  and  C_10
REMARK    7  A    between atoms: C_10  and  C_12
REMARK    8  A    between atoms: C_12  and  C_13
REMARK    9  A    between atoms: C_12  and  C_20
REMARK   10  A    between atoms: C_13  and  N_14
REMARK                            x       y       z     vdW  Elec       q    Type
REMARK                         _______ _______ _______ _____ _____    ______ ____
ROOT
ATOM      1  C   UNL     1       3.502   5.175  18.176  0.00  0.00    +0.000 C 
ENDROOT
BRANCH   1   2
ATOM      2  C   UNL     1       2.835   6.546  18.476  0.00  0.00    +0.000 A 
ATOM      3  C   UNL     1       2.316   6.841  19.751  0.00  0.00    +0.000 A 
ATOM      4  C   UNL     1       1.674   8.053  20.029  0.00  0.00    +0.000 A 
ATOM      5  C   UNL     1       1.594   9.037  19.055  0.00  0.00    +0.000 A 
ATOM      6  C   UNL     1       2.164   8.810  17.810  0.00  0.00    +0.000 A 
ATOM      7  C   UNL     1       2.779   7.584  17.525  0.00  0.00    +0.000 A 
ENDBRANCH   1   2
BRANCH   1   8
ATOM      8  C   UNL     1       4.674   5.242  17.152  0.00  0.00    +0.000 C 
ATOM      9  O   UNL     1       4.557   4.874  15.976  0.00  0.00    +0.000 OA
BRANCH   8  13
ATOM     10  C   UNL     1       8.099   7.415  18.454  0.00  0.00    +0.000 A 
ATOM     11  C   UNL     1       7.370   7.820  17.340  0.00  0.00    +0.000 A 
ATOM     12  C   UNL     1       6.330   7.027  16.877  0.00  0.00    +0.000 A 
ATOM     13  C   UNL     1       6.022   5.802  17.492  0.00  0.00    +0.000 A 
ATOM     14  C   UNL     1       6.934   5.277  18.415  0.00  0.00    +0.000 A 
ATOM     15  C   UNL     1       7.965   6.099  18.909  0.00  0.00    +0.000 A 
BRANCH  10  16
ATOM     16  O   UNL     1       8.872   8.285  19.194  0.00  0.00    +0.000 OA
BRANCH  16  17
ATOM     17  C   UNL     1       8.865   9.619  18.641  0.00  0.00    +0.000 C 
BRANCH  17  18
ATOM     18  C   UNL     1       9.301  10.690  19.640  0.00  0.00    +0.000 C 
BRANCH  18  20
ATOM     19  C   UNL     1      10.617  11.617  17.662  0.00  0.00    +0.000 C 
ATOM     20  C   UNL     1      10.612  11.326  19.151  0.00  0.00    +0.000 C 
ENDBRANCH  18  20
ENDBRANCH  17  18
ENDBRANCH  16  17
ENDBRANCH  10  16
ENDBRANCH   8  13
ENDBRANCH   1   8
BRANCH   1  21
ATOM     21  C   UNL     1       3.827   4.333  19.458  0.00  0.00    +0.000 C 
BRANCH  21  22
ATOM     22  N   UNL     1       3.412   2.909  19.559  0.00  0.00    +0.000 NA
ATOM     23  C   UNL     1       2.085   2.617  18.977  0.00  0.00    +0.000 C 
ATOM     24  C   UNL     1       0.912   3.212  19.779  0.00  0.00    +0.000 C 
ATOM     25  O   UNL     1       0.939   2.835  21.163  0.00  0.00    +0.000 OA
ATOM     26  C   UNL     1       2.208   3.158  21.756  0.00  0.00    +0.000 C 
ATOM     27  C   UNL     1       3.346   2.475  20.982  0.00  0.00    +0.000 C 
ENDBRANCH  21  22
ENDBRANCH   1  21
TORSDOF 9
ENDMDL
MODEL 2
REMARK VINA RESULT:      -7.7      0.672      1.289
REMARK  Name = 
REMARK  10 active torsions:
REMARK  status: ('A' for Active; 'I' for Inactive)
REMARK    1  A    between atoms: C_1  and  C_2
REMARK    2  A    between atoms: C_2  and  C_3
REMARK    3  A    between atoms: C_3  and  C_4
REMARK    4  A    between atoms: C_4  and  O_5
REMARK    5  A    between atoms: O_5  and  C_6
REMARK    6  A    between atoms: C_9  and  C_10
REMARK    7  A    between atoms: C_10  and  C_12
REMARK    8  A    between atoms: C_12  and  C_13
REMARK    9  A    between atoms: C_12  and  C_20
REMARK   10  A    between atoms: C_13  and  N_14
REMARK                            x       y       z     vdW  Elec       q    Type
REMARK                         _______ _______ _______ _____ _____    ______ ____
ROOT
ATOM      1  C   UNL     1       3.601   4.896  18.339  0.00  0.00    +0.000 C 
ENDROOT
BRANCH   1   2
ATOM      2  C   UNL     1       2.947   6.283  18.590  0.00  0.00    +0.000 A 
ATOM      3  C   UNL     1       2.827   7.230  17.555  0.00  0.00    +0.000 A 
ATOM      4  C   UNL     1       2.279   8.500  17.770  0.00  0.00    +0.000 A 
ATOM      5  C   UNL     1       1.771   8.836  19.017  0.00  0.00    +0.000 A 
ATOM      6  C   UNL     1       1.801   7.897  20.039  0.00  0.00    +0.000 A 
ATOM      7  C   UNL     1       2.378   6.638  19.828  0.00  0.00    +0.000 A 
ENDBRANCH   1   2
BRANCH   1   8
ATOM      8  C   UNL     1       4.769   4.913  17.308  0.00  0.00    +0.000 C 
ATOM      9  O   UNL     1       4.681   4.393  16.189  0.00  0.00    +0.000 OA
BRANCH   8  13
ATOM     10  C   UNL     1       8.034   7.457  18.317  0.00  0.00    +0.000 A 
ATOM     11  C   UNL     1       7.279   7.676  17.168  0.00  0.00    +0.000 A 
ATOM     12  C   UNL     1       6.296   6.763  16.811  0.00  0.00    +0.000 A 
ATOM     13  C   UNL     1       6.074   5.602  17.569  0.00  0.00    +0.000 A 
ATOM     14  C   UNL     1       7.020   5.254  18.541  0.00  0.00    +0.000 A 
ATOM     15  C   UNL     1       7.991   6.199  18.926  0.00  0.00    +0.000 A 
BRANCH  10  16
ATOM     16  O   UNL     1       8.743   8.460  18.942  0.00  0.00    +0.000 OA
BRANCH  16  17
ATOM     17  C   UNL     1       8.569   9.735  18.288  0.00  0.00    +0.000 C 
BRANCH  17  18
ATOM     18  C   UNL     1       9.542  10.806  18.780  0.00  0.00    +0.000 C 
BRANCH  18  20
ATOM     19  C   UNL     1      10.067  12.089  20.921  0.00  0.00    +0.000 C 
ATOM     20  C   UNL     1       9.567  10.790  20.317  0.00  0.00    +0.000 C 
ENDBRANCH  18  20
ENDBRANCH  17  18
ENDBRANCH  16  17
ENDBRANCH  10  16
ENDBRANCH   8  13
ENDBRANCH   1   8
BRANCH   1  21
ATOM     21  C   UNL     1       3.922   4.099  19.650  0.00  0.00    +0.000 C 
BRANCH  21  22
ATOM     22  N   UNL     1       3.447   2.702  19.828  0.00  0.00    +0.000 NA
ATOM     23  C   UNL     1       2.585   2.206  18.734  0.00  0.00    +0.000 C 
ATOM     24  C   UNL     1       1.196   2.872  18.690  0.00  0.00    +0.000 C 
ATOM     25  O   UNL     1       0.502   2.791  19.943  0.00  0.00    +0.000 OA
ATOM     26  C   UNL     1       1.310   3.315  21.010  0.00  0.00    +0.000 C 
ATOM     27  C   UNL     1       2.650   2.566  21.079  0.00  0.00    +0.000 C 
ENDBRANCH  21  22
ENDBRANCH   1  21
TORSDOF 9
ENDMDL
MODEL 3
REMARK VINA RESULT:      -7.5      2.980      7.417
REMARK  Name = 
REMARK  10 active torsions:
REMARK  status: ('A' for Active; 'I' for Inactive)
REMARK    1  A    between atoms: C_1  and  C_2
REMARK    2  A    between atoms: C_2  and  C_3
REMARK    3  A    between atoms: C_3  and  C_4
REMARK    4  A    between atoms: C_4  and  O_5
REMARK    5  A    between atoms: O_5  and  C_6
REMARK    6  A    between atoms: C_9  and  C_10
REMARK    7  A    between atoms: C_10  and  C_12
REMARK    8  A    between atoms: C_12  and  C_13
REMARK    9  A    between atoms: C_12  and  C_20
REMARK   10  A    between atoms: C_13  and  N_14
REMARK                            x       y       z     vdW  Elec       q    Type
REMARK                         _______ _______ _______ _____ _____    ______ ____
ROOT
ATOM      1  C   UNL     1       2.986   5.695  18.585  0.00  0.00    +0.000 C 
ENDROOT
BRANCH   1   2
ATOM      2  C   UNL     1       2.597   4.191  18.573  0.00  0.00    +0.000 A 
ATOM      3  C   UNL     1       1.248   3.786  18.552  0.00  0.00    +0.000 A 
ATOM      4  C   UNL     1       0.878   2.437  18.582  0.00  0.00    +0.000 A 
ATOM      5  C   UNL     1       1.850   1.448  18.565  0.00  0.00    +0.000 A 
ATOM      6  C   UNL     1       3.188   1.810  18.506  0.00  0.00    +0.000 A 
ATOM      7  C   UNL     1       3.557   3.162  18.507  0.00  0.00    +0.000 A 
ENDBRANCH   1   2
BRANCH   1   8
ATOM      8  C   UNL     1       2.329   6.519  19.733  0.00  0.00    +0.000 C 
ATOM      9  O   UNL     1       2.141   6.058  20.865  0.00  0.00    +0.000 OA
BRANCH   8  13
ATOM     10  C   UNL     1       0.638  10.311  18.775  0.00  0.00    +0.000 A 
ATOM     11  C   UNL     1       1.518   9.674  17.905  0.00  0.00    +0.000 A 
ATOM     12  C   UNL     1       2.138   8.496  18.298  0.00  0.00    +0.000 A 
ATOM     13  C   UNL     1       1.919   7.952  19.574  0.00  0.00    +0.000 A 
ATOM     14  C   UNL     1       1.270   8.743  20.529  0.00  0.00    +0.000 A 
ATOM     15  C   UNL     1       0.611   9.919  20.117  0.00  0.00    +0.000 A 
BRANCH  10  16
ATOM     16  O   UNL     1      -0.285  11.242  18.349  0.00  0.00    +0.000 OA
BRANCH  16  17
ATOM     17  C   UNL     1      -1.626  10.707  18.330  0.00  0.00    +0.000 C 
BRANCH  17  18
ATOM     18  C   UNL     1      -1.894   9.791  17.136  0.00  0.00    +0.000 C 
BRANCH  18  20
ATOM     19  C   UNL     1      -3.010  10.297  14.898  0.00  0.00    +0.000 C 
ATOM     20  C   UNL     1      -3.158  10.277  16.408  0.00  0.00    +0.000 C 
ENDBRANCH  18  20
ENDBRANCH  17  18
ENDBRANCH  16  17
ENDBRANCH  10  16
ENDBRANCH   8  13
ENDBRANCH   1   8
BRANCH   1  21
ATOM     21  C   UNL     1       4.523   5.956  18.415  0.00  0.00    +0.000 C 
BRANCH  21  22
ATOM     22  N   UNL     1       5.072   6.460  17.130  0.00  0.00    +0.000 NA
ATOM     23  C   UNL     1       5.213   5.429  16.080  0.00  0.00    +0.000 C 
ATOM     24  C   UNL     1       6.323   4.399  16.369  0.00  0.00    +0.000 C 
ATOM     25  O   UNL     1       7.593   5.012  16.635  0.00  0.00    +0.000 OA
ATOM     26  C   UNL     1       7.481   5.983  17.688  0.00  0.00    +0.000 C 
ATOM     27  C   UNL     1       6.430   7.043  17.325  0.00  0.00    +0.000 C 
ENDBRANCH  21  22
ENDBRANCH   1  21
TORSDOF 9
ENDMDL
MODEL 4
REMARK VINA RESULT:      -7.5      3.598      6.204
REMARK  Name = 
REMARK  10 active torsions:
REMARK  status: ('A' for Active; 'I' for Inactive)
REMARK    1  A    between atoms: C_1  and  C_2
REMARK    2  A    between atoms: C_2  and  C_3
REMARK    3  A    between atoms: C_3  and  C_4
REMARK    4  A    between atoms: C_4  and  O_5
REMARK    5  A    between atoms: O_5  and  C_6
REMARK    6  A    between atoms: C_9  and  C_10
REMARK    7  A    between atoms: C_10  and  C_12
REMARK    8  A    between atoms: C_12  and  C_13
REMARK    9  A    between atoms: C_12  and  C_20
REMARK   10  A    between atoms: C_13  and  N_14
REMARK                            x       y       z     vdW  Elec       q    Type
REMARK                         _______ _______ _______ _____ _____    ______ ____
ROOT
ATOM      1  C   UNL     1       2.304   6.458  19.971  0.00  0.00    +0.000 C 
ENDROOT
BRANCH   1   2
ATOM      2  C   UNL     1       1.935   4.956  20.119  0.00  0.00    +0.000 A 
ATOM      3  C   UNL     1       1.405   4.225  19.038  0.00  0.00    +0.000 A 
ATOM      4  C   UNL     1       1.028   2.884  19.164  0.00  0.00    +0.000 A 
ATOM      5  C   UNL     1       1.235   2.211  20.360  0.00  0.00    +0.000 A 
ATOM      6  C   UNL     1       1.829   2.879  21.421  0.00  0.00    +0.000 A 
ATOM      7  C   UNL     1       2.176   4.232  21.302  0.00  0.00    +0.000 A 
ENDBRANCH   1   2
BRANCH   1   8
ATOM      8  C   UNL     1       2.709   6.881  18.527  0.00  0.00    +0.000 C 
ATOM      9  O   UNL     1       1.981   7.573  17.803  0.00  0.00    +0.000 OA
BRANCH   8  13
ATOM     10  C   UNL     1       6.135   5.181  16.649  0.00  0.00    +0.000 A 
ATOM     11  C   UNL     1       5.794   4.854  17.959  0.00  0.00    +0.000 A 
ATOM     12  C   UNL     1       4.739   5.511  18.577  0.00  0.00    +0.000 A 
ATOM     13  C   UNL     1       4.031   6.527  17.916  0.00  0.00    +0.000 A 
ATOM     14  C   UNL     1       4.562   7.038  16.725  0.00  0.00    +0.000 A 
ATOM     15  C   UNL     1       5.607   6.346  16.084  0.00  0.00    +0.000 A 
BRANCH  10  16
ATOM     16  O   UNL     1       6.889   4.350  15.848  0.00  0.00    +0.000 OA
BRANCH  16  17
ATOM     17  C   UNL     1       6.095   3.723  14.819  0.00  0.00    +0.000 C 
BRANCH  17  18
ATOM     18  C   UNL     1       6.435   4.211  13.411  0.00  0.00    +0.000 C 
BRANCH  18  20
ATOM     19  C   UNL     1       4.646   3.420  11.774  0.00  0.00    +0.000 C 
ATOM     20  C   UNL     1       6.003   3.143  12.394  0.00  0.00    +0.000 C 
ENDBRANCH  18  20
ENDBRANCH  17  18
ENDBRANCH  16  17
ENDBRANCH  10  16
ENDBRANCH   8  13
ENDBRANCH   1   8
BRANCH   1  21
ATOM     21  C   UNL     1       1.286   7.434  20.656  0.00  0.00    +0.000 C 
BRANCH  21  22
ATOM     22  N   UNL     1       1.691   8.810  21.043  0.00  0.00    +0.000 NA
ATOM     23  C   UNL     1       1.358   9.175  22.436  0.00  0.00    +0.000 C 
ATOM     24  C   UNL     1      -0.153   9.346  22.687  0.00  0.00    +0.000 C 
ATOM     25  O   UNL     1      -0.766  10.267  21.773  0.00  0.00    +0.000 OA
ATOM     26  C   UNL     1      -0.491   9.897  20.413  0.00  0.00    +0.000 C 
ATOM     27  C   UNL     1       1.026   9.823  20.178  0.00  0.00    +0.000 C 
ENDBRANCH  21  22
ENDBRANCH   1  21
TORSDOF 9
ENDMDL
MODEL 5
REMARK VINA RESULT:      -7.4      3.326      5.176
REMARK  Name = 
REMARK  10 active torsions:
REMARK  status: ('A' for Active; 'I' for Inactive)
REMARK    1  A    between atoms: C_1  and  C_2
REMARK    2  A    between atoms: C_2  and  C_3
REMARK    3  A    between atoms: C_3  and  C_4
REMARK    4  A    between atoms: C_4  and  O_5
REMARK    5  A    between atoms: O_5  and  C_6
REMARK    6  A    between atoms: C_9  and  C_10
REMARK    7  A    between atoms: C_10  and  C_12
REMARK    8  A    between atoms: C_12  and  C_13
REMARK    9  A    between atoms: C_12  and  C_20
REMARK   10  A    between atoms: C_13  and  N_14
REMARK                            x       y       z     vdW  Elec       q    Type
REMARK                         _______ _______ _______ _____ _____    ______ ____
ROOT
ATOM      1  C   UNL     1       2.642   5.962  19.205  0.00  0.00    +0.000 C 
ENDROOT
BRANCH   1   2
ATOM      2  C   UNL     1       2.136   7.431  19.158  0.00  0.00    +0.000 A 
ATOM      3  C   UNL     1       2.179   8.179  17.966  0.00  0.00    +0.000 A 
ATOM      4  C   UNL     1       1.766   9.516  17.914  0.00  0.00    +0.000 A 
ATOM      5  C   UNL     1       1.233  10.124  19.042  0.00  0.00    +0.000 A 
ATOM      6  C   UNL     1       1.103   9.391  20.213  0.00  0.00    +0.000 A 
ATOM      7  C   UNL     1       1.546   8.063  20.270  0.00  0.00    +0.000 A 
ENDBRANCH   1   2
BRANCH   1   8
ATOM      8  C   UNL     1       4.114   5.775  18.730  0.00  0.00    +0.000 C 
ATOM      9  O   UNL     1       5.079   5.827  19.504  0.00  0.00    +0.000 OA
BRANCH   8  13
ATOM     10  C   UNL     1       5.870   5.111  14.906  0.00  0.00    +0.000 A 
ATOM     11  C   UNL     1       5.574   6.397  15.349  0.00  0.00    +0.000 A 
ATOM     12  C   UNL     1       4.899   6.569  16.550  0.00  0.00    +0.000 A 
ATOM     13  C   UNL     1       4.478   5.466  17.310  0.00  0.00    +0.000 A 
ATOM     14  C   UNL     1       4.526   4.197  16.719  0.00  0.00    +0.000 A 
ATOM     15  C   UNL     1       5.244   4.022  15.520  0.00  0.00    +0.000 A 
BRANCH  10  16
ATOM     16  O   UNL     1       6.837   4.857  13.956  0.00  0.00    +0.000 OA
BRANCH  16  17
ATOM     17  C   UNL     1       6.663   3.564  13.339  0.00  0.00    +0.000 C 
BRANCH  17  18
ATOM     18  C   UNL     1       6.282   3.645  11.861  0.00  0.00    +0.000 C 
BRANCH  18  20
ATOM     19  C   UNL     1       3.885   3.227  11.093  0.00  0.00    +0.000 C 
ATOM     20  C   UNL     1       5.185   2.607  11.570  0.00  0.00    +0.000 C 
ENDBRANCH  18  20
ENDBRANCH  17  18
ENDBRANCH  16  17
ENDBRANCH  10  16
ENDBRANCH   8  13
ENDBRANCH   1   8
BRANCH   1  21
ATOM     21  C   UNL     1       2.306   5.216  20.542  0.00  0.00    +0.000 C 
BRANCH  21  22
ATOM     22  N   UNL     1       1.162   4.270  20.619  0.00  0.00    +0.000 NA
ATOM     23  C   UNL     1       1.365   3.143  21.554  0.00  0.00    +0.000 C 
ATOM     24  C   UNL     1       2.420   2.126  21.078  0.00  0.00    +0.000 C 
ATOM     25  O   UNL     1       2.157   1.632  19.756  0.00  0.00    +0.000 OA
ATOM     26  C   UNL     1       2.006   2.716  18.826  0.00  0.00    +0.000 C 
ATOM     27  C   UNL     1       0.885   3.661  19.289  0.00  0.00    +0.000 C 
ENDBRANCH  21  22
ENDBRANCH   1  21
TORSDOF 9
ENDMDL
MODEL 6
REMARK VINA RESULT:      -7.4      3.190      5.209
REMARK  Name = 
REMARK  10 active torsions:
REMARK  status: ('A' for Active; 'I' for Inactive)
REMARK    1  A    between atoms: C_1  and  C_2
REMARK    2  A    between atoms: C_2  and  C_3
REMARK    3  A    between atoms: C_3  and  C_4
REMARK    4  A    between atoms: C_4  and  O_5
REMARK    5  A    between atoms: O_5  and  C_6
REMARK    6  A    between atoms: C_9  and  C_10
REMARK    7  A    between atoms: C_10  and  C_12
REMARK    8  A    between atoms: C_12  and  C_13
REMARK    9  A    between atoms: C_12  and  C_20
REMARK   10  A    between atoms: C_13  and  N_14
REMARK                            x       y       z     vdW  Elec       q    Type
REMARK                         _______ _______ _______ _____ _____    ______ ____
ROOT
ATOM      1  C   UNL     1       3.029   5.936  18.715  0.00  0.00    +0.000 C 
ENDROOT
BRANCH   1   2
ATOM      2  C   UNL     1       2.431   7.367  18.819  0.00  0.00    +0.000 A 
ATOM      3  C   UNL     1       2.433   8.240  17.714  0.00  0.00    +0.000 A 
ATOM      4  C   UNL     1       1.936   9.545  17.799  0.00  0.00    +0.000 A 
ATOM      5  C   UNL     1       1.359   9.995  18.978  0.00  0.00    +0.000 A 
ATOM      6  C   UNL     1       1.269   9.134  20.063  0.00  0.00    +0.000 A 
ATOM      7  C   UNL     1       1.795   7.837  19.984  0.00  0.00    +0.000 A 
ENDBRANCH   1   2
BRANCH   1   8
ATOM      8  C   UNL     1       4.585   5.894  18.641  0.00  0.00    +0.000 C 
ATOM      9  O   UNL     1       5.303   5.875  19.648  0.00  0.00    +0.000 OA
BRANCH   8  13
ATOM     10  C   UNL     1       6.499   4.940  14.956  0.00  0.00    +0.000 A 
ATOM     11  C   UNL     1       7.055   4.562  16.175  0.00  0.00    +0.000 A 
ATOM     12  C   UNL     1       6.465   4.987  17.358  0.00  0.00    +0.000 A 
ATOM     13  C   UNL     1       5.336   5.822  17.346  0.00  0.00    +0.000 A 
ATOM     14  C   UNL     1       4.967   6.421  16.135  0.00  0.00    +0.000 A 
ATOM     15  C   UNL     1       5.543   5.959  14.935  0.00  0.00    +0.000 A 
BRANCH  10  16
ATOM     16  O   UNL     1       6.775   4.279  13.778  0.00  0.00    +0.000 OA
BRANCH  16  17
ATOM     17  C   UNL     1       5.656   3.487  13.325  0.00  0.00    +0.000 C 
BRANCH  17  18
ATOM     18  C   UNL     1       5.403   3.601  11.822  0.00  0.00    +0.000 C 
BRANCH  18  20
ATOM     19  C   UNL     1       3.437   3.820  10.212  0.00  0.00    +0.000 C 
ATOM     20  C   UNL     1       3.930   3.268  11.537  0.00  0.00    +0.000 C 
ENDBRANCH  18  20
ENDBRANCH  17  18
ENDBRANCH  16  17
ENDBRANCH  10  16
ENDBRANCH   8  13
ENDBRANCH   1   8
BRANCH   1  21
ATOM     21  C   UNL     1       2.414   4.915  19.733  0.00  0.00    +0.000 C 
BRANCH  21  22
ATOM     22  N   UNL     1       3.019   3.571  19.924  0.00  0.00    +0.000 NA
ATOM     23  C   UNL     1       3.396   2.888  18.669  0.00  0.00    +0.000 C 
ATOM     24  C   UNL     1       2.190   2.433  17.825  0.00  0.00    +0.000 C 
ATOM     25  O   UNL     1       1.264   1.627  18.568  0.00  0.00    +0.000 OA
ATOM     26  C   UNL     1       0.851   2.300  19.769  0.00  0.00    +0.000 C 
ATOM     27  C   UNL     1       2.075   2.658  20.626  0.00  0.00    +0.000 C 
ENDBRANCH  21  22
ENDBRANCH   1  21
TORSDOF 9
ENDMDL
MODEL 7
REMARK VINA RESULT:      -7.3      2.943      7.453
REMARK  Name = 
REMARK  10 active torsions:
REMARK  status: ('A' for Active; 'I' for Inactive)
REMARK    1  A    between atoms: C_1  and  C_2
REMARK    2  A    between atoms: C_2  and  C_3
REMARK    3  A    between atoms: C_3  and  C_4
REMARK    4  A    between atoms: C_4  and  O_5
REMARK    5  A    between atoms: O_5  and  C_6
REMARK    6  A    between atoms: C_9  and  C_10
REMARK    7  A    between atoms: C_10  and  C_12
REMARK    8  A    between atoms: C_12  and  C_13
REMARK    9  A    between atoms: C_12  and  C_20
REMARK   10  A    between atoms: C_13  and  N_14
REMARK                            x       y       z     vdW  Elec       q    Type
REMARK                         _______ _______ _______ _____ _____    ______ ____
ROOT
ATOM      1  C   UNL     1       2.940   5.737  18.549  0.00  0.00    +0.000 C 
ENDROOT
BRANCH   1   2
ATOM      2  C   UNL     1       2.480   4.253  18.538  0.00  0.00    +0.000 A 
ATOM      3  C   UNL     1       3.384   3.211  18.253  0.00  0.00    +0.000 A 
ATOM      4  C   UNL     1       2.981   1.872  18.198  0.00  0.00    +0.000 A 
ATOM      5  C   UNL     1       1.670   1.528  18.494  0.00  0.00    +0.000 A 
ATOM      6  C   UNL     1       0.770   2.521  18.856  0.00  0.00    +0.000 A 
ATOM      7  C   UNL     1       1.170   3.864  18.880  0.00  0.00    +0.000 A 
ENDBRANCH   1   2
BRANCH   1   8
ATOM      8  C   UNL     1       2.365   6.578  19.728  0.00  0.00    +0.000 C 
ATOM      9  O   UNL     1       2.293   6.148  20.885  0.00  0.00    +0.000 OA
BRANCH   8  13
ATOM     10  C   UNL     1       0.552  10.304  18.734  0.00  0.00    +0.000 A 
ATOM     11  C   UNL     1       1.499   9.717  17.898  0.00  0.00    +0.000 A 
ATOM     12  C   UNL     1       2.152   8.563  18.306  0.00  0.00    +0.000 A 
ATOM     13  C   UNL     1       1.899   7.993  19.565  0.00  0.00    +0.000 A 
ATOM     14  C   UNL     1       1.172   8.743  20.497  0.00  0.00    +0.000 A 
ATOM     15  C   UNL     1       0.481   9.894  20.068  0.00  0.00    +0.000 A 
BRANCH  10  16
ATOM     16  O   UNL     1      -0.391  11.199  18.275  0.00  0.00    +0.000 OA
BRANCH  16  17
ATOM     17  C   UNL     1      -1.607  11.149  19.050  0.00  0.00    +0.000 C 
BRANCH  17  18
ATOM     18  C   UNL     1      -2.871  11.113  18.191  0.00  0.00    +0.000 C 
BRANCH  18  20
ATOM     19  C   UNL     1      -2.679   9.796  16.014  0.00  0.00    +0.000 C 
ATOM     20  C   UNL     1      -2.968   9.742  17.503  0.00  0.00    +0.000 C 
ENDBRANCH  18  20
ENDBRANCH  17  18
ENDBRANCH  16  17
ENDBRANCH  10  16
ENDBRANCH   8  13
ENDBRANCH   1   8
BRANCH   1  21
ATOM     21  C   UNL     1       4.480   5.926  18.326  0.00  0.00    +0.000 C 
BRANCH  21  22
ATOM     22  N   UNL     1       4.998   6.546  17.079  0.00  0.00    +0.000 NA
ATOM     23  C   UNL     1       5.188   5.600  15.959  0.00  0.00    +0.000 C 
ATOM     24  C   UNL     1       6.351   4.611  16.175  0.00  0.00    +0.000 C 
ATOM     25  O   UNL     1       7.588   5.269  16.483  0.00  0.00    +0.000 OA
ATOM     26  C   UNL     1       7.430   6.158  17.602  0.00  0.00    +0.000 C 
ATOM     27  C   UNL     1       6.324   7.184  17.313  0.00  0.00    +0.000 C 
ENDBRANCH  21  22
ENDBRANCH   1  21
TORSDOF 9
ENDMDL
MODEL 8
REMARK VINA RESULT:      -7.3      3.257      7.258
REMARK  Name = 
REMARK  10 active torsions:
REMARK  status: ('A' for Active; 'I' for Inactive)
REMARK    1  A    between atoms: C_1  and  C_2
REMARK    2  A    between atoms: C_2  and  C_3
REMARK    3  A    between atoms: C_3  and  C_4
REMARK    4  A    between atoms: C_4  and  O_5
REMARK    5  A    between atoms: O_5  and  C_6
REMARK    6  A    between atoms: C_9  and  C_10
REMARK    7  A    between atoms: C_10  and  C_12
REMARK    8  A    between atoms: C_12  and  C_13
REMARK    9  A    between atoms: C_12  and  C_20
REMARK   10  A    between atoms: C_13  and  N_14
REMARK                            x       y       z     vdW  Elec       q    Type
REMARK                         _______ _______ _______ _____ _____    ______ ____
ROOT
ATOM      1  C   UNL     1       2.892   5.750  17.736  0.00  0.00    +0.000 C 
ENDROOT
BRANCH   1   2
ATOM      2  C   UNL     1       2.338   4.863  18.885  0.00  0.00    +0.000 A 
ATOM      3  C   UNL     1       1.393   3.850  18.633  0.00  0.00    +0.000 A 
ATOM      4  C   UNL     1       0.852   3.068  19.660  0.00  0.00    +0.000 A 
ATOM      5  C   UNL     1       1.292   3.231  20.965  0.00  0.00    +0.000 A 
ATOM      6  C   UNL     1       2.281   4.167  21.238  0.00  0.00    +0.000 A 
ATOM      7  C   UNL     1       2.798   4.969  20.212  0.00  0.00    +0.000 A 
ENDBRANCH   1   2
BRANCH   1   8
ATOM      8  C   UNL     1       3.337   7.175  18.182  0.00  0.00    +0.000 C 
ATOM      9  O   UNL     1       4.504   7.573  18.082  0.00  0.00    +0.000 OA
BRANCH   8  13
ATOM     10  C   UNL     1       0.116   9.773  19.195  0.00  0.00    +0.000 A 
ATOM     11  C   UNL     1       0.872   9.978  18.044  0.00  0.00    +0.000 A 
ATOM     12  C   UNL     1       1.983   9.182  17.804  0.00  0.00    +0.000 A 
ATOM     13  C   UNL     1       2.381   8.195  18.721  0.00  0.00    +0.000 A 
ATOM     14  C   UNL     1       1.792   8.196  19.991  0.00  0.00    +0.000 A 
ATOM     15  C   UNL     1       0.642   8.978  20.217  0.00  0.00    +0.000 A 
BRANCH  10  16
ATOM     16  O   UNL     1      -1.175  10.237  19.328  0.00  0.00    +0.000 OA
BRANCH  16  17
ATOM     17  C   UNL     1      -1.709  10.721  18.077  0.00  0.00    +0.000 C 
BRANCH  17  18
ATOM     18  C   UNL     1      -2.778   9.806  17.481  0.00  0.00    +0.000 C 
BRANCH  18  20
ATOM     19  C   UNL     1      -3.177  10.427  15.040  0.00  0.00    +0.000 C 
ATOM     20  C   UNL     1      -3.622  10.610  16.479  0.00  0.00    +0.000 C 
ENDBRANCH  18  20
ENDBRANCH  17  18
ENDBRANCH  16  17
ENDBRANCH  10  16
ENDBRANCH   8  13
ENDBRANCH   1   8
BRANCH   1  21
ATOM     21  C   UNL     1       3.928   5.021  16.813  0.00  0.00    +0.000 C 
BRANCH  21  22
ATOM     22  N   UNL     1       4.847   3.991  17.365  0.00  0.00    +0.000 NA
ATOM     23  C   UNL     1       5.900   4.526  18.255  0.00  0.00    +0.000 C 
ATOM     24  C   UNL     1       6.968   5.358  17.519  0.00  0.00    +0.000 C 
ATOM     25  O   UNL     1       7.561   4.652  16.419  0.00  0.00    +0.000 OA
ATOM     26  C   UNL     1       6.551   4.167  15.519  0.00  0.00    +0.000 C 
ATOM     27  C   UNL     1       5.555   3.270  16.271  0.00  0.00    +0.000 C 
ENDBRANCH  21  22
ENDBRANCH   1  21
TORSDOF 9
ENDMDL
MODEL 9
REMARK VINA RESULT:      -7.2      3.169      6.281
REMARK  Name = 
REMARK  10 active torsions:
REMARK  status: ('A' for Active; 'I' for Inactive)
REMARK    1  A    between atoms: C_1  and  C_2
REMARK    2  A    between atoms: C_2  and  C_3
REMARK    3  A    between atoms: C_3  and  C_4
REMARK    4  A    between atoms: C_4  and  O_5
REMARK    5  A    between atoms: O_5  and  C_6
REMARK    6  A    between atoms: C_9  and  C_10
REMARK    7  A    between atoms: C_10  and  C_12
REMARK    8  A    between atoms: C_12  and  C_13
REMARK    9  A    between atoms: C_12  and  C_20
REMARK   10  A    between atoms: C_13  and  N_14
REMARK                            x       y       z     vdW  Elec       q    Type
REMARK                         _______ _______ _______ _____ _____    ______ ____
ROOT
ATOM      1  C   UNL     1       4.192   4.273  17.903  0.00  0.00    +0.000 C 
ENDROOT
BRANCH   1   2
ATOM      2  C   UNL     1       5.164   4.477  16.708  0.00  0.00    +0.000 A 
ATOM      3  C   UNL     1       5.001   3.763  15.505  0.00  0.00    +0.000 A 
ATOM      4  C   UNL     1       5.890   3.902  14.433  0.00  0.00    +0.000 A 
ATOM      5  C   UNL     1       6.932   4.815  14.507  0.00  0.00    +0.000 A 
ATOM      6  C   UNL     1       7.075   5.593  15.648  0.00  0.00    +0.000 A 
ATOM      7  C   UNL     1       6.202   5.429  16.731  0.00  0.00    +0.000 A 
ENDBRANCH   1   2
BRANCH   1   8
ATOM      8  C   UNL     1       4.151   5.463  18.908  0.00  0.00    +0.000 C 
ATOM      9  O   UNL     1       4.996   5.615  19.800  0.00  0.00    +0.000 OA
BRANCH   8  13
ATOM     10  C   UNL     1       1.638   8.882  19.290  0.00  0.00    +0.000 A 
ATOM     11  C   UNL     1       1.604   7.855  20.229  0.00  0.00    +0.000 A 
ATOM     12  C   UNL     1       2.352   6.705  20.014  0.00  0.00    +0.000 A 
ATOM     13  C   UNL     1       3.117   6.545  18.846  0.00  0.00    +0.000 A 
ATOM     14  C   UNL     1       2.915   7.446  17.794  0.00  0.00    +0.000 A 
ATOM     15  C   UNL     1       2.187   8.628  18.029  0.00  0.00    +0.000 A 
BRANCH  10  16
ATOM     16  O   UNL     1       1.249  10.171  19.585  0.00  0.00    +0.000 OA
BRANCH  16  17
ATOM     17  C   UNL     1       0.304  10.686  18.622  0.00  0.00    +0.000 C 
BRANCH  17  18
ATOM     18  C   UNL     1      -1.118  10.168  18.833  0.00  0.00    +0.000 C 
BRANCH  18  20
ATOM     19  C   UNL     1      -3.230   9.729  17.472  0.00  0.00    +0.000 C 
ATOM     20  C   UNL     1      -1.983  10.578  17.631  0.00  0.00    +0.000 C 
ENDBRANCH  18  20
ENDBRANCH  17  18
ENDBRANCH  16  17
ENDBRANCH  10  16
ENDBRANCH   8  13
ENDBRANCH   1   8
BRANCH   1  21
ATOM     21  C   UNL     1       2.776   3.744  17.487  0.00  0.00    +0.000 C 
BRANCH  21  22
ATOM     22  N   UNL     1       2.319   2.391  17.895  0.00  0.00    +0.000 NA
ATOM     23  C   UNL     1       0.978   2.361  18.516  0.00  0.00    +0.000 C 
ATOM     24  C   UNL     1       0.929   3.006  19.915  0.00  0.00    +0.000 C 
ATOM     25  O   UNL     1       1.903   2.456  20.814  0.00  0.00    +0.000 OA
ATOM     26  C   UNL     1       3.220   2.522  20.243  0.00  0.00    +0.000 C 
ATOM     27  C   UNL     1       3.251   1.792  18.891  0.00  0.00    +0.000 C 
ENDBRANCH  21  22
ENDBRANCH   1  21
TORSDOF 9
ENDMDL
