MODEL 1
REMARK VINA RESULT:      -8.0      0.000      0.000
REMARK  Name = 
REMARK  6 active torsions:
REMARK  status: ('A' for Active; 'I' for Inactive)
REMARK    1  A    between atoms: C_1  and  O_2
REMARK    2  A    between atoms: O_2  and  C_3
REMARK    3  A    between atoms: C_3  and  C_4
REMARK    4  A    between atoms: C_10  and  O_11
REMARK    5  A    between atoms: O_11  and  C_12
REMARK    6  A    between atoms: C_15  and  N_16
REMARK                            x       y       z     vdW  Elec       q    Type
REMARK                         _______ _______ _______ _____ _____    ______ ____
ROOT
ATOM      1  C   UNL     1       2.240   7.925  18.469  0.00  0.00    +0.000 A 
ATOM      2  C   UNL     1       1.684   9.024  17.812  0.00  0.00    +0.000 A 
ATOM      3  C   UNL     1       0.901   9.957  18.511  0.00  0.00    +0.000 A 
ATOM      4  C   UNL     1       0.633   9.794  19.871  0.00  0.00    +0.000 A 
ATOM      5  C   UNL     1       1.192   8.690  20.526  0.00  0.00    +0.000 A 
ATOM      6  C   UNL     1       1.968   7.753  19.825  0.00  0.00    +0.000 A 
ENDROOT
BRANCH   4   7
ATOM      7  N   UNL     1      -0.161  10.692  20.627  0.00  0.00    +0.000 N 
ATOM      8  C   UNL     1       0.283  11.846  21.243  0.00  0.00    +0.000 C 
ATOM      9  O   UNL     1       1.426  12.300  21.151  0.00  0.00    +0.000 OA
ATOM     10  N   UNL     1      -0.673  12.521  21.971  0.00  0.00    +0.000 N 
ATOM     11  C   UNL     1      -0.343  13.817  22.578  0.00  0.00    +0.000 C 
ATOM     12  C   UNL     1      -1.563  14.146  23.375  0.00  0.00    +0.000 A 
ATOM     13  C   UNL     1      -1.874  15.288  24.087  0.00  0.00    +0.000 A 
ATOM     14  C   UNL     1      -3.091  15.288  24.756  0.00  0.00    +0.000 A 
ATOM     15  N   UNL     1      -3.970  14.250  24.754  0.00  0.00    +0.000 NA
ATOM     16  C   UNL     1      -3.628  13.148  24.049  0.00  0.00    +0.000 A 
ATOM     17  C   UNL     1      -2.447  13.068  23.353  0.00  0.00    +0.000 A 
ATOM     18  C   UNL     1      -1.900  11.954  22.530  0.00  0.00    +0.000 C 
ATOM     19  H   UNL     1      -1.154  10.633  20.478  0.00  0.00    +0.000 HD
ENDBRANCH   4   7
BRANCH   1  20
ATOM     20  O   UNL     1       3.031   7.103  17.706  0.00  0.00    +0.000 OA
BRANCH  20  27
ATOM     21  C   UNL     1       4.025   2.728  19.454  0.00  0.00    +0.000 C 
ATOM     22  O   UNL     1       4.901   2.102  20.057  0.00  0.00    +0.000 OA
ATOM     23  N   UNL     1       4.316   3.687  18.496  0.00  0.00    +0.000 N 
ATOM     24  C   UNL     1       5.696   3.844  18.066  0.00  0.00    +0.000 C 
ATOM     25  C   UNL     1       6.221   5.189  18.532  0.00  0.00    +0.000 C 
ATOM     26  C   UNL     1       5.337   6.314  18.004  0.00  0.00    +0.000 C 
ATOM     27  C   UNL     1       3.853   6.137  18.390  0.00  0.00    +0.000 C 
ATOM     28  C   UNL     1       3.380   4.711  18.001  0.00  0.00    +0.000 C 
BRANCH  21  29
ATOM     29  C   UNL     1       2.548   2.395  19.689  0.00  0.00    +0.000 C 
BRANCH  29  31
ATOM     30  C   UNL     1       2.168   3.937  21.439  0.00  0.00    +0.000 C 
ATOM     31  O   UNL     1       2.125   2.570  21.039  0.00  0.00    +0.000 OA
ENDBRANCH  29  31
ENDBRANCH  21  29
ENDBRANCH  20  27
ENDBRANCH   1  20
TORSDOF 5
ENDMDL
MODEL 2
REMARK VINA RESULT:      -7.8      1.077      1.227
REMARK  Name = 
REMARK  6 active torsions:
REMARK  status: ('A' for Active; 'I' for Inactive)
REMARK    1  A    between atoms: C_1  and  O_2
REMARK    2  A    between atoms: O_2  and  C_3
REMARK    3  A    between atoms: C_3  and  C_4
REMARK    4  A    between atoms: C_10  and  O_11
REMARK    5  A    between atoms: O_11  and  C_12
REMARK    6  A    between atoms: C_15  and  N_16
REMARK                            x       y       z     vdW  Elec       q    Type
REMARK                         _______ _______ _______ _____ _____    ______ ____
ROOT
ATOM      1  C   UNL     1       2.606   7.900  18.280  0.00  0.00    +0.000 A 
ATOM      2  C   UNL     1       2.074   9.052  17.697  0.00  0.00    +0.000 A 
ATOM      3  C   UNL     1       1.228   9.902  18.428  0.00  0.00    +0.000 A 
ATOM      4  C   UNL     1       0.874   9.603  19.745  0.00  0.00    +0.000 A 
ATOM      5  C   UNL     1       1.409   8.447  20.326  0.00  0.00    +0.000 A 
ATOM      6  C   UNL     1       2.248   7.594  19.592  0.00  0.00    +0.000 A 
ENDROOT
BRANCH   4   7
ATOM      7  N   UNL     1       0.014  10.412  20.528  0.00  0.00    +0.000 N 
ATOM      8  C   UNL     1       0.366  11.585  21.170  0.00  0.00    +0.000 C 
ATOM      9  O   UNL     1       1.465  12.136  21.080  0.00  0.00    +0.000 OA
ATOM     10  N   UNL     1      -0.637  12.160  21.921  0.00  0.00    +0.000 N 
ATOM     11  C   UNL     1      -0.410  13.463  22.557  0.00  0.00    +0.000 C 
ATOM     12  C   UNL     1      -1.647  13.669  23.372  0.00  0.00    +0.000 A 
ATOM     13  C   UNL     1      -2.045  14.765  24.114  0.00  0.00    +0.000 A 
ATOM     14  C   UNL     1      -3.251  14.646  24.791  0.00  0.00    +0.000 A 
ATOM     15  N   UNL     1      -4.040  13.537  24.770  0.00  0.00    +0.000 NA
ATOM     16  C   UNL     1      -3.614  12.485  24.036  0.00  0.00    +0.000 A 
ATOM     17  C   UNL     1      -2.437  12.522  23.329  0.00  0.00    +0.000 A 
ATOM     18  C   UNL     1      -1.806  11.478  22.475  0.00  0.00    +0.000 C 
ATOM     19  H   UNL     1      -0.972  10.273  20.386  0.00  0.00    +0.000 HD
ENDBRANCH   4   7
BRANCH   1  20
ATOM     20  O   UNL     1       3.461   7.167  17.496  0.00  0.00    +0.000 OA
BRANCH  20  27
ATOM     21  C   UNL     1       1.985   2.816  18.934  0.00  0.00    +0.000 C 
ATOM     22  O   UNL     1       2.400   1.674  19.150  0.00  0.00    +0.000 OA
ATOM     23  N   UNL     1       2.447   3.594  17.885  0.00  0.00    +0.000 N 
ATOM     24  C   UNL     1       3.332   2.986  16.904  0.00  0.00    +0.000 C 
ATOM     25  C   UNL     1       4.714   3.600  17.020  0.00  0.00    +0.000 C 
ATOM     26  C   UNL     1       4.637   5.113  16.844  0.00  0.00    +0.000 C 
ATOM     27  C   UNL     1       3.653   5.778  17.830  0.00  0.00    +0.000 C 
ATOM     28  C   UNL     1       2.282   5.053  17.767  0.00  0.00    +0.000 C 
BRANCH  21  29
ATOM     29  C   UNL     1       0.851   3.391  19.790  0.00  0.00    +0.000 C 
BRANCH  29  31
ATOM     30  C   UNL     1       2.208   3.736  21.693  0.00  0.00    +0.000 C 
ATOM     31  O   UNL     1       1.008   3.157  21.187  0.00  0.00    +0.000 OA
ENDBRANCH  29  31
ENDBRANCH  21  29
ENDBRANCH  20  27
ENDBRANCH   1  20
TORSDOF 5
ENDMDL
MODEL 3
REMARK VINA RESULT:      -7.8      3.396      4.469
REMARK  Name = 
REMARK  6 active torsions:
REMARK  status: ('A' for Active; 'I' for Inactive)
REMARK    1  A    between atoms: C_1  and  O_2
REMARK    2  A    between atoms: O_2  and  C_3
REMARK    3  A    between atoms: C_3  and  C_4
REMARK    4  A    between atoms: C_10  and  O_11
REMARK    5  A    between atoms: O_11  and  C_12
REMARK    6  A    between atoms: C_15  and  N_16
REMARK                            x       y       z     vdW  Elec       q    Type
REMARK                         _______ _______ _______ _____ _____    ______ ____
ROOT
ATOM      1  C   UNL     1       1.892   7.760  19.331  0.00  0.00    +0.000 A 
ATOM      2  C   UNL     1       1.380   8.459  20.426  0.00  0.00    +0.000 A 
ATOM      3  C   UNL     1       0.999   9.805  20.304  0.00  0.00    +0.000 A 
ATOM      4  C   UNL     1       1.151  10.487  19.096  0.00  0.00    +0.000 A 
ATOM      5  C   UNL     1       1.665   9.783  18.000  0.00  0.00    +0.000 A 
ATOM      6  C   UNL     1       2.053   8.439  18.125  0.00  0.00    +0.000 A 
ENDROOT
BRANCH   4   7
ATOM      7  N   UNL     1       0.801  11.848  18.914  0.00  0.00    +0.000 N 
ATOM      8  C   UNL     1       1.684  12.907  18.818  0.00  0.00    +0.000 C 
ATOM      9  O   UNL     1       2.912  12.802  18.794  0.00  0.00    +0.000 OA
ATOM     10  N   UNL     1       1.093  14.147  18.702  0.00  0.00    +0.000 N 
ATOM     11  C   UNL     1       1.931  15.333  18.483  0.00  0.00    +0.000 C 
ATOM     12  C   UNL     1       0.956  16.463  18.553  0.00  0.00    +0.000 A 
ATOM     13  C   UNL     1       1.148  17.813  18.327  0.00  0.00    +0.000 A 
ATOM     14  C   UNL     1       0.038  18.631  18.496  0.00  0.00    +0.000 A 
ATOM     15  N   UNL     1      -1.194  18.190  18.868  0.00  0.00    +0.000 NA
ATOM     16  C   UNL     1      -1.340  16.863  19.084  0.00  0.00    +0.000 A 
ATOM     17  C   UNL     1      -0.297  15.983  18.932  0.00  0.00    +0.000 A 
ATOM     18  C   UNL     1      -0.261  14.507  19.122  0.00  0.00    +0.000 C 
ATOM     19  H   UNL     1      -0.126  12.021  18.562  0.00  0.00    +0.000 HD
ENDBRANCH   4   7
BRANCH   1  20
ATOM     20  O   UNL     1       2.184   6.436  19.544  0.00  0.00    +0.000 OA
BRANCH  20  27
ATOM     21  C   UNL     1       5.579   4.612  16.658  0.00  0.00    +0.000 C 
ATOM     22  O   UNL     1       5.723   3.895  15.664  0.00  0.00    +0.000 OA
ATOM     23  N   UNL     1       4.627   4.357  17.633  0.00  0.00    +0.000 N 
ATOM     24  C   UNL     1       3.882   3.110  17.568  0.00  0.00    +0.000 C 
ATOM     25  C   UNL     1       2.429   3.405  17.247  0.00  0.00    +0.000 C 
ATOM     26  C   UNL     1       1.841   4.356  18.284  0.00  0.00    +0.000 C 
ATOM     27  C   UNL     1       2.652   5.663  18.421  0.00  0.00    +0.000 C 
ATOM     28  C   UNL     1       4.152   5.325  18.636  0.00  0.00    +0.000 C 
BRANCH  21  29
ATOM     29  C   UNL     1       6.532   5.788  16.896  0.00  0.00    +0.000 C 
BRANCH  29  31
ATOM     30  C   UNL     1       7.754   5.820  18.918  0.00  0.00    +0.000 C 
ATOM     31  O   UNL     1       7.745   5.424  17.549  0.00  0.00    +0.000 OA
ENDBRANCH  29  31
ENDBRANCH  21  29
ENDBRANCH  20  27
ENDBRANCH   1  20
TORSDOF 5
ENDMDL
MODEL 4
REMARK VINA RESULT:      -7.7      2.930     11.043
REMARK  Name = 
REMARK  6 active torsions:
REMARK  status: ('A' for Active; 'I' for Inactive)
REMARK    1  A    between atoms: C_1  and  O_2
REMARK    2  A    between atoms: O_2  and  C_3
REMARK    3  A    between atoms: C_3  and  C_4
REMARK    4  A    between atoms: C_10  and  O_11
REMARK    5  A    between atoms: O_11  and  C_12
REMARK    6  A    between atoms: C_15  and  N_16
REMARK                            x       y       z     vdW  Elec       q    Type
REMARK                         _______ _______ _______ _____ _____    ______ ____
ROOT
ATOM      1  C   UNL     1      -0.384  10.517  22.462  0.00  0.00    +0.000 A 
ATOM      2  C   UNL     1      -0.581  10.780  21.105  0.00  0.00    +0.000 A 
ATOM      3  C   UNL     1       0.105  10.044  20.125  0.00  0.00    +0.000 A 
ATOM      4  C   UNL     1       1.022   9.055  20.481  0.00  0.00    +0.000 A 
ATOM      5  C   UNL     1       1.216   8.795  21.843  0.00  0.00    +0.000 A 
ATOM      6  C   UNL     1       0.537   9.535  22.822  0.00  0.00    +0.000 A 
ENDROOT
BRANCH   4   7
ATOM      7  N   UNL     1       1.755   8.290  19.540  0.00  0.00    +0.000 N 
ATOM      8  C   UNL     1       2.093   6.956  19.666  0.00  0.00    +0.000 C 
ATOM      9  O   UNL     1       1.729   6.219  20.586  0.00  0.00    +0.000 OA
ATOM     10  N   UNL     1       2.863   6.452  18.640  0.00  0.00    +0.000 N 
ATOM     11  C   UNL     1       3.190   5.021  18.613  0.00  0.00    +0.000 C 
ATOM     12  C   UNL     1       4.129   4.902  17.456  0.00  0.00    +0.000 A 
ATOM     13  C   UNL     1       4.695   3.777  16.888  0.00  0.00    +0.000 A 
ATOM     14  C   UNL     1       5.560   3.993  15.823  0.00  0.00    +0.000 A 
ATOM     15  N   UNL     1       5.878   5.218  15.325  0.00  0.00    +0.000 NA
ATOM     16  C   UNL     1       5.307   6.294  15.912  0.00  0.00    +0.000 A 
ATOM     17  C   UNL     1       4.434   6.170  16.964  0.00  0.00    +0.000 A 
ATOM     18  C   UNL     1       3.713   7.222  17.733  0.00  0.00    +0.000 C 
ATOM     19  H   UNL     1       1.796   8.663  18.607  0.00  0.00    +0.000 HD
ENDBRANCH   4   7
BRANCH   1  20
ATOM     20  O   UNL     1      -1.142  11.257  23.335  0.00  0.00    +0.000 OA
BRANCH  20  27
ATOM     21  C   UNL     1      -4.976  13.752  21.832  0.00  0.00    +0.000 C 
ATOM     22  O   UNL     1      -5.302  14.864  21.406  0.00  0.00    +0.000 OA
ATOM     23  N   UNL     1      -4.019  13.582  22.820  0.00  0.00    +0.000 N 
ATOM     24  C   UNL     1      -3.499  14.760  23.497  0.00  0.00    +0.000 C 
ATOM     25  C   UNL     1      -2.041  14.955  23.126  0.00  0.00    +0.000 C 
ATOM     26  C   UNL     1      -1.236  13.707  23.474  0.00  0.00    +0.000 C 
ATOM     27  C   UNL     1      -1.805  12.429  22.821  0.00  0.00    +0.000 C 
ATOM     28  C   UNL     1      -3.323  12.320  23.127  0.00  0.00    +0.000 C 
BRANCH  21  29
ATOM     29  C   UNL     1      -5.700  12.498  21.330  0.00  0.00    +0.000 C 
BRANCH  29  31
ATOM     30  C   UNL     1      -7.855  12.616  22.292  0.00  0.00    +0.000 C 
ATOM     31  O   UNL     1      -6.603  11.935  22.278  0.00  0.00    +0.000 OA
ENDBRANCH  29  31
ENDBRANCH  21  29
ENDBRANCH  20  27
ENDBRANCH   1  20
TORSDOF 5
ENDMDL
MODEL 5
REMARK VINA RESULT:      -7.7      3.091      4.249
REMARK  Name = 
REMARK  6 active torsions:
REMARK  status: ('A' for Active; 'I' for Inactive)
REMARK    1  A    between atoms: C_1  and  O_2
REMARK    2  A    between atoms: O_2  and  C_3
REMARK    3  A    between atoms: C_3  and  C_4
REMARK    4  A    between atoms: C_10  and  O_11
REMARK    5  A    between atoms: O_11  and  C_12
REMARK    6  A    between atoms: C_15  and  N_16
REMARK                            x       y       z     vdW  Elec       q    Type
REMARK                         _______ _______ _______ _____ _____    ______ ____
ROOT
ATOM      1  C   UNL     1       1.893   7.625  19.890  0.00  0.00    +0.000 A 
ATOM      2  C   UNL     1       2.069   8.237  18.648  0.00  0.00    +0.000 A 
ATOM      3  C   UNL     1       1.672   9.569  18.442  0.00  0.00    +0.000 A 
ATOM      4  C   UNL     1       1.065  10.303  19.462  0.00  0.00    +0.000 A 
ATOM      5  C   UNL     1       0.890   9.685  20.705  0.00  0.00    +0.000 A 
ATOM      6  C   UNL     1       1.279   8.352  20.909  0.00  0.00    +0.000 A 
ENDROOT
BRANCH   4   7
ATOM      7  N   UNL     1       0.629  11.643  19.310  0.00  0.00    +0.000 N 
ATOM      8  C   UNL     1       1.432  12.728  19.012  0.00  0.00    +0.000 C 
ATOM      9  O   UNL     1       2.636  12.665  18.754  0.00  0.00    +0.000 OA
ATOM     10  N   UNL     1       0.779  13.941  18.975  0.00  0.00    +0.000 N 
ATOM     11  C   UNL     1       1.509  15.146  18.562  0.00  0.00    +0.000 C 
ATOM     12  C   UNL     1       0.520  16.244  18.785  0.00  0.00    +0.000 A 
ATOM     13  C   UNL     1       0.608  17.589  18.485  0.00  0.00    +0.000 A 
ATOM     14  C   UNL     1      -0.481  18.374  18.841  0.00  0.00    +0.000 A 
ATOM     15  N   UNL     1      -1.599  17.905  19.458  0.00  0.00    +0.000 NA
ATOM     16  C   UNL     1      -1.646  16.583  19.739  0.00  0.00    +0.000 A 
ATOM     17  C   UNL     1      -0.616  15.735  19.414  0.00  0.00    +0.000 A 
ATOM     18  C   UNL     1      -0.482  14.269  19.639  0.00  0.00    +0.000 C 
ATOM     19  H   UNL     1      -0.354  11.770  19.140  0.00  0.00    +0.000 HD
ENDBRANCH   4   7
BRANCH   1  20
ATOM     20  O   UNL     1       2.361   6.340  20.001  0.00  0.00    +0.000 OA
BRANCH  20  27
ATOM     21  C   UNL     1       5.870   4.689  17.147  0.00  0.00    +0.000 C 
ATOM     22  O   UNL     1       6.054   4.122  16.066  0.00  0.00    +0.000 OA
ATOM     23  N   UNL     1       4.815   4.372  17.988  0.00  0.00    +0.000 N 
ATOM     24  C   UNL     1       3.991   3.218  17.665  0.00  0.00    +0.000 C 
ATOM     25  C   UNL     1       2.599   3.683  17.279  0.00  0.00    +0.000 C 
ATOM     26  C   UNL     1       1.988   4.513  18.402  0.00  0.00    +0.000 C 
ATOM     27  C   UNL     1       2.875   5.709  18.811  0.00  0.00    +0.000 C 
ATOM     28  C   UNL     1       4.320   5.214  19.090  0.00  0.00    +0.000 C 
BRANCH  21  29
ATOM     29  C   UNL     1       6.880   5.729  17.646  0.00  0.00    +0.000 C 
BRANCH  29  31
ATOM     30  C   UNL     1       7.662   7.954  17.521  0.00  0.00    +0.000 C 
ATOM     31  O   UNL     1       6.874   6.943  16.900  0.00  0.00    +0.000 OA
ENDBRANCH  29  31
ENDBRANCH  21  29
ENDBRANCH  20  27
ENDBRANCH   1  20
TORSDOF 5
ENDMDL
MODEL 6
REMARK VINA RESULT:      -7.6      1.193      1.500
REMARK  Name = 
REMARK  6 active torsions:
REMARK  status: ('A' for Active; 'I' for Inactive)
REMARK    1  A    between atoms: C_1  and  O_2
REMARK    2  A    between atoms: O_2  and  C_3
REMARK    3  A    between atoms: C_3  and  C_4
REMARK    4  A    between atoms: C_10  and  O_11
REMARK    5  A    between atoms: O_11  and  C_12
REMARK    6  A    between atoms: C_15  and  N_16
REMARK                            x       y       z     vdW  Elec       q    Type
REMARK                         _______ _______ _______ _____ _____    ______ ____
ROOT
ATOM      1  C   UNL     1       2.225   8.191  18.431  0.00  0.00    +0.000 A 
ATOM      2  C   UNL     1       1.805   9.420  17.920  0.00  0.00    +0.000 A 
ATOM      3  C   UNL     1       1.097  10.328  18.725  0.00  0.00    +0.000 A 
ATOM      4  C   UNL     1       0.770  10.012  20.044  0.00  0.00    +0.000 A 
ATOM      5  C   UNL     1       1.193   8.779  20.553  0.00  0.00    +0.000 A 
ATOM      6  C   UNL     1       1.893   7.869  19.745  0.00  0.00    +0.000 A 
ENDROOT
BRANCH   4   7
ATOM      7  N   UNL     1       0.045  10.879  20.901  0.00  0.00    +0.000 N 
ATOM      8  C   UNL     1      -1.152  11.502  20.600  0.00  0.00    +0.000 C 
ATOM      9  O   UNL     1      -1.800  11.323  19.567  0.00  0.00    +0.000 OA
ATOM     10  N   UNL     1      -1.630  12.345  21.580  0.00  0.00    +0.000 N 
ATOM     11  C   UNL     1      -2.946  12.975  21.416  0.00  0.00    +0.000 C 
ATOM     12  C   UNL     1      -3.036  13.898  22.588  0.00  0.00    +0.000 A 
ATOM     13  C   UNL     1      -4.087  14.686  23.016  0.00  0.00    +0.000 A 
ATOM     14  C   UNL     1      -3.856  15.465  24.142  0.00  0.00    +0.000 A 
ATOM     15  N   UNL     1      -2.681  15.499  24.827  0.00  0.00    +0.000 NA
ATOM     16  C   UNL     1      -1.675  14.717  24.375  0.00  0.00    +0.000 A 
ATOM     17  C   UNL     1      -1.821  13.910  23.273  0.00  0.00    +0.000 A 
ATOM     18  C   UNL     1      -0.843  12.991  22.630  0.00  0.00    +0.000 C 
ATOM     19  H   UNL     1       0.272  10.821  21.879  0.00  0.00    +0.000 HD
ENDBRANCH   4   7
BRANCH   1  20
ATOM     20  O   UNL     1       2.954   7.401  17.577  0.00  0.00    +0.000 OA
BRANCH  20  27
ATOM     21  C   UNL     1       4.176   3.129  19.432  0.00  0.00    +0.000 C 
ATOM     22  O   UNL     1       5.141   2.514  19.896  0.00  0.00    +0.000 OA
ATOM     23  N   UNL     1       4.291   4.004  18.363  0.00  0.00    +0.000 N 
ATOM     24  C   UNL     1       5.559   4.075  17.655  0.00  0.00    +0.000 C 
ATOM     25  C   UNL     1       6.199   5.429  17.900  0.00  0.00    +0.000 C 
ATOM     26  C   UNL     1       5.254   6.546  17.471  0.00  0.00    +0.000 C 
ATOM     27  C   UNL     1       3.874   6.455  18.159  0.00  0.00    +0.000 C 
ATOM     28  C   UNL     1       3.298   5.025  17.985  0.00  0.00    +0.000 C 
BRANCH  21  29
ATOM     29  C   UNL     1       2.769   2.871  19.983  0.00  0.00    +0.000 C 
BRANCH  29  31
ATOM     30  C   UNL     1       0.760   2.428  18.822  0.00  0.00    +0.000 C 
ATOM     31  O   UNL     1       2.023   1.915  19.235  0.00  0.00    +0.000 OA
ENDBRANCH  29  31
ENDBRANCH  21  29
ENDBRANCH  20  27
ENDBRANCH   1  20
TORSDOF 5
ENDMDL
MODEL 7
REMARK VINA RESULT:      -7.5      2.811     11.065
REMARK  Name = 
REMARK  6 active torsions:
REMARK  status: ('A' for Active; 'I' for Inactive)
REMARK    1  A    between atoms: C_1  and  O_2
REMARK    2  A    between atoms: O_2  and  C_3
REMARK    3  A    between atoms: C_3  and  C_4
REMARK    4  A    between atoms: C_10  and  O_11
REMARK    5  A    between atoms: O_11  and  C_12
REMARK    6  A    between atoms: C_15  and  N_16
REMARK                            x       y       z     vdW  Elec       q    Type
REMARK                         _______ _______ _______ _____ _____    ______ ____
ROOT
ATOM      1  C   UNL     1      -0.571  10.583  22.417  0.00  0.00    +0.000 A 
ATOM      2  C   UNL     1       0.246   9.539  22.855  0.00  0.00    +0.000 A 
ATOM      3  C   UNL     1       1.018   8.800  21.944  0.00  0.00    +0.000 A 
ATOM      4  C   UNL     1       0.966   9.069  20.576  0.00  0.00    +0.000 A 
ATOM      5  C   UNL     1       0.146  10.116  20.140  0.00  0.00    +0.000 A 
ATOM      6  C   UNL     1      -0.632  10.850  21.050  0.00  0.00    +0.000 A 
ENDROOT
BRANCH   4   7
ATOM      7  N   UNL     1       1.709   8.350  19.606  0.00  0.00    +0.000 N 
ATOM      8  C   UNL     1       2.095   7.026  19.700  0.00  0.00    +0.000 C 
ATOM      9  O   UNL     1       1.774   6.259  20.610  0.00  0.00    +0.000 OA
ATOM     10  N   UNL     1       2.863   6.570  18.650  0.00  0.00    +0.000 N 
ATOM     11  C   UNL     1       3.240   5.152  18.588  0.00  0.00    +0.000 C 
ATOM     12  C   UNL     1       4.161   5.090  17.413  0.00  0.00    +0.000 A 
ATOM     13  C   UNL     1       4.756   3.997  16.812  0.00  0.00    +0.000 A 
ATOM     14  C   UNL     1       5.594   4.264  15.737  0.00  0.00    +0.000 A 
ATOM     15  N   UNL     1       5.859   5.510  15.258  0.00  0.00    +0.000 NA
ATOM     16  C   UNL     1       5.262   6.553  15.877  0.00  0.00    +0.000 A 
ATOM     17  C   UNL     1       4.412   6.378  16.941  0.00  0.00    +0.000 A 
ATOM     18  C   UNL     1       3.670   7.387  17.744  0.00  0.00    +0.000 C 
ATOM     19  H   UNL     1       1.720   8.742  18.680  0.00  0.00    +0.000 HD
ENDBRANCH   4   7
BRANCH   1  20
ATOM     20  O   UNL     1      -1.243  11.273  23.394  0.00  0.00    +0.000 OA
BRANCH  20  27
ATOM     21  C   UNL     1      -5.168  14.003  22.823  0.00  0.00    +0.000 C 
ATOM     22  O   UNL     1      -5.524  15.119  22.435  0.00  0.00    +0.000 OA
ATOM     23  N   UNL     1      -3.993  13.796  23.528  0.00  0.00    +0.000 N 
ATOM     24  C   UNL     1      -3.234  14.955  23.971  0.00  0.00    +0.000 C 
ATOM     25  C   UNL     1      -1.921  15.019  23.214  0.00  0.00    +0.000 C 
ATOM     26  C   UNL     1      -1.135  13.727  23.407  0.00  0.00    +0.000 C 
ATOM     27  C   UNL     1      -1.942  12.473  23.007  0.00  0.00    +0.000 C 
ATOM     28  C   UNL     1      -3.325  12.496  23.712  0.00  0.00    +0.000 C 
BRANCH  21  29
ATOM     29  C   UNL     1      -6.082  12.792  22.608  0.00  0.00    +0.000 C 
BRANCH  29  31
ATOM     30  C   UNL     1      -5.111  12.780  20.454  0.00  0.00    +0.000 C 
ATOM     31  O   UNL     1      -5.736  12.003  21.472  0.00  0.00    +0.000 OA
ENDBRANCH  29  31
ENDBRANCH  21  29
ENDBRANCH  20  27
ENDBRANCH   1  20
TORSDOF 5
ENDMDL
MODEL 8
REMARK VINA RESULT:      -7.4      2.621      3.852
REMARK  Name = 
REMARK  6 active torsions:
REMARK  status: ('A' for Active; 'I' for Inactive)
REMARK    1  A    between atoms: C_1  and  O_2
REMARK    2  A    between atoms: O_2  and  C_3
REMARK    3  A    between atoms: C_3  and  C_4
REMARK    4  A    between atoms: C_10  and  O_11
REMARK    5  A    between atoms: O_11  and  C_12
REMARK    6  A    between atoms: C_15  and  N_16
REMARK                            x       y       z     vdW  Elec       q    Type
REMARK                         _______ _______ _______ _____ _____    ______ ____
ROOT
ATOM      1  C   UNL     1       2.486   6.004  19.049  0.00  0.00    +0.000 A 
ATOM      2  C   UNL     1       2.045   6.001  20.374  0.00  0.00    +0.000 A 
ATOM      3  C   UNL     1       1.552   7.174  20.969  0.00  0.00    +0.000 A 
ATOM      4  C   UNL     1       1.520   8.377  20.263  0.00  0.00    +0.000 A 
ATOM      5  C   UNL     1       1.963   8.376  18.936  0.00  0.00    +0.000 A 
ATOM      6  C   UNL     1       2.463   7.205  18.344  0.00  0.00    +0.000 A 
ENDROOT
BRANCH   4   7
ATOM      7  N   UNL     1       1.049   9.596  20.813  0.00  0.00    +0.000 N 
ATOM      8  C   UNL     1      -0.022   9.736  21.675  0.00  0.00    +0.000 C 
ATOM      9  O   UNL     1      -0.671   8.803  22.153  0.00  0.00    +0.000 OA
ATOM     10  N   UNL     1      -0.320  11.036  22.024  0.00  0.00    +0.000 N 
ATOM     11  C   UNL     1      -1.367  11.298  23.019  0.00  0.00    +0.000 C 
ATOM     12  C   UNL     1      -1.482  12.789  23.016  0.00  0.00    +0.000 A 
ATOM     13  C   UNL     1      -2.239  13.620  23.819  0.00  0.00    +0.000 A 
ATOM     14  C   UNL     1      -2.152  14.980  23.555  0.00  0.00    +0.000 A 
ATOM     15  N   UNL     1      -1.386  15.527  22.571  0.00  0.00    +0.000 NA
ATOM     16  C   UNL     1      -0.664  14.680  21.804  0.00  0.00    +0.000 A 
ATOM     17  C   UNL     1      -0.685  13.321  22.003  0.00  0.00    +0.000 A 
ATOM     18  C   UNL     1       0.031  12.240  21.272  0.00  0.00    +0.000 C 
ATOM     19  H   UNL     1       1.696  10.366  20.793  0.00  0.00    +0.000 HD
ENDBRANCH   4   7
BRANCH   1  20
ATOM     20  O   UNL     1       2.899   4.794  18.549  0.00  0.00    +0.000 OA
BRANCH  20  27
ATOM     21  C   UNL     1       6.638   4.686  15.518  0.00  0.00    +0.000 C 
ATOM     22  O   UNL     1       7.863   4.530  15.495  0.00  0.00    +0.000 OA
ATOM     23  N   UNL     1       5.990   5.369  16.535  0.00  0.00    +0.000 N 
ATOM     24  C   UNL     1       6.794   6.071  17.524  0.00  0.00    +0.000 C 
ATOM     25  C   UNL     1       6.649   5.387  18.871  0.00  0.00    +0.000 C 
ATOM     26  C   UNL     1       5.182   5.328  19.279  0.00  0.00    +0.000 C 
ATOM     27  C   UNL     1       4.293   4.647  18.216  0.00  0.00    +0.000 C 
ATOM     28  C   UNL     1       4.549   5.296  16.830  0.00  0.00    +0.000 C 
BRANCH  21  29
ATOM     29  C   UNL     1       5.783   4.190  14.347  0.00  0.00    +0.000 C 
BRANCH  29  31
ATOM     30  C   UNL     1       6.160   3.177  12.247  0.00  0.00    +0.000 C 
ATOM     31  O   UNL     1       6.421   4.304  13.078  0.00  0.00    +0.000 OA
ENDBRANCH  29  31
ENDBRANCH  21  29
ENDBRANCH  20  27
ENDBRANCH   1  20
TORSDOF 5
ENDMDL
MODEL 9
REMARK VINA RESULT:      -7.4      1.088      1.580
REMARK  Name = 
REMARK  6 active torsions:
REMARK  status: ('A' for Active; 'I' for Inactive)
REMARK    1  A    between atoms: C_1  and  O_2
REMARK    2  A    between atoms: O_2  and  C_3
REMARK    3  A    between atoms: C_3  and  C_4
REMARK    4  A    between atoms: C_10  and  O_11
REMARK    5  A    between atoms: O_11  and  C_12
REMARK    6  A    between atoms: C_15  and  N_16
REMARK                            x       y       z     vdW  Elec       q    Type
REMARK                         _______ _______ _______ _____ _____    ______ ____
ROOT
ATOM      1  C   UNL     1       2.277   8.138  18.339  0.00  0.00    +0.000 A 
ATOM      2  C   UNL     1       2.001   7.746  19.650  0.00  0.00    +0.000 A 
ATOM      3  C   UNL     1       1.265   8.579  20.509  0.00  0.00    +0.000 A 
ATOM      4  C   UNL     1       0.817   9.831  20.084  0.00  0.00    +0.000 A 
ATOM      5  C   UNL     1       1.096  10.220  18.768  0.00  0.00    +0.000 A 
ATOM      6  C   UNL     1       1.838   9.390  17.913  0.00  0.00    +0.000 A 
ENDROOT
BRANCH   4   7
ATOM      7  N   UNL     1       0.084  10.722  20.907  0.00  0.00    +0.000 N 
ATOM      8  C   UNL     1      -1.083  11.374  20.557  0.00  0.00    +0.000 C 
ATOM      9  O   UNL     1      -1.697  11.204  19.502  0.00  0.00    +0.000 OA
ATOM     10  N   UNL     1      -1.575  12.236  21.513  0.00  0.00    +0.000 N 
ATOM     11  C   UNL     1      -2.867  12.900  21.296  0.00  0.00    +0.000 C 
ATOM     12  C   UNL     1      -2.976  13.833  22.459  0.00  0.00    +0.000 A 
ATOM     13  C   UNL     1      -4.021  14.652  22.842  0.00  0.00    +0.000 A 
ATOM     14  C   UNL     1      -3.812  15.432  23.971  0.00  0.00    +0.000 A 
ATOM     15  N   UNL     1      -2.662  15.441  24.699  0.00  0.00    +0.000 NA
ATOM     16  C   UNL     1      -1.662  14.629  24.290  0.00  0.00    +0.000 A 
ATOM     17  C   UNL     1      -1.788  13.819  23.189  0.00  0.00    +0.000 A 
ATOM     18  C   UNL     1      -0.811  12.869  22.588  0.00  0.00    +0.000 C 
ATOM     19  H   UNL     1       0.273  10.666  21.893  0.00  0.00    +0.000 HD
ENDBRANCH   4   7
BRANCH   1  20
ATOM     20  O   UNL     1       2.958   7.228  17.569  0.00  0.00    +0.000 OA
BRANCH  20  27
ATOM     21  C   UNL     1       4.143   2.924  19.370  0.00  0.00    +0.000 C 
ATOM     22  O   UNL     1       5.059   2.335  19.952  0.00  0.00    +0.000 OA
ATOM     23  N   UNL     1       4.369   3.868  18.382  0.00  0.00    +0.000 N 
ATOM     24  C   UNL     1       5.727   4.054  17.894  0.00  0.00    +0.000 C 
ATOM     25  C   UNL     1       6.231   5.423  18.310  0.00  0.00    +0.000 C 
ATOM     26  C   UNL     1       5.295   6.510  17.793  0.00  0.00    +0.000 C 
ATOM     27  C   UNL     1       3.833   6.301  18.241  0.00  0.00    +0.000 C 
ATOM     28  C   UNL     1       3.386   4.854  17.902  0.00  0.00    +0.000 C 
BRANCH  21  29
ATOM     29  C   UNL     1       2.686   2.555  19.671  0.00  0.00    +0.000 C 
BRANCH  29  31
ATOM     30  C   UNL     1       1.199   4.097  20.666  0.00  0.00    +0.000 C 
ATOM     31  O   UNL     1       2.193   3.101  20.891  0.00  0.00    +0.000 OA
ENDBRANCH  29  31
ENDBRANCH  21  29
ENDBRANCH  20  27
ENDBRANCH   1  20
TORSDOF 5
ENDMDL
