MODEL 1
REMARK VINA RESULT:      -8.0      0.000      0.000
REMARK  Name = 
REMARK  4 active torsions:
REMARK  status: ('A' for Active; 'I' for Inactive)
REMARK    1  A    between atoms: C_1  and  C_2
REMARK    2  A    between atoms: C_2  and  C_3
REMARK    3  A    between atoms: C_7  and  C_8
REMARK    4  A    between atoms: C_8  and  C_9
REMARK                            x       y       z     vdW  Elec       q    Type
REMARK                         _______ _______ _______ _____ _____    ______ ____
ROOT
ATOM      1  C   UNL     1       0.597   3.822  20.118  0.00  0.00    +0.000 C 
ATOM      2  C   UNL     1       2.071   3.444  20.375  0.00  0.00    +0.000 C 
ATOM      3  C   UNL     1       2.160   2.791  21.768  0.00  0.00    +0.000 C 
ATOM      4  C   UNL     1       2.565   2.422  19.328  0.00  0.00    +0.000 C 
ATOM      5  C   UNL     1       2.850   3.025  17.964  0.00  0.00    +0.000 C 
ATOM      6  O   UNL     1       2.569   2.418  16.929  0.00  0.00    +0.000 OA
ATOM      7  C   UNL     1       3.631   4.322  17.917  0.00  0.00    +0.000 C 
ATOM      8  C   UNL     1       3.071   5.263  18.964  0.00  0.00    +0.000 C 
ATOM      9  O   UNL     1       2.762   6.423  18.697  0.00  0.00    +0.000 OA
ATOM     10  C   UNL     1       2.943   4.713  20.369  0.00  0.00    +0.000 C 
ENDROOT
BRANCH   7  11
ATOM     11  C   UNL     1       5.138   4.111  18.148  0.00  0.00    +0.000 C 
BRANCH  11  12
ATOM     12  C   UNL     1       6.062   4.556  16.997  0.00  0.00    +0.000 C 
ATOM     13  C   UNL     1       5.535   5.717  16.146  0.00  0.00    +0.000 C 
ATOM     14  C   UNL     1       5.567   7.055  16.873  0.00  0.00    +0.000 C 
ATOM     15  C   UNL     1       6.974   7.396  17.346  0.00  0.00    +0.000 C 
ATOM     16  C   UNL     1       7.610   6.290  18.176  0.00  0.00    +0.000 C 
ATOM     17  C   UNL     1       7.427   4.912  17.575  0.00  0.00    +0.000 C 
ATOM     18  O   UNL     1       8.293   4.046  17.706  0.00  0.00    +0.000 OA
ENDBRANCH  11  12
ENDBRANCH   7  11
TORSDOF 2
ENDMDL
MODEL 2
REMARK VINA RESULT:      -7.7      1.274      1.760
REMARK  Name = 
REMARK  4 active torsions:
REMARK  status: ('A' for Active; 'I' for Inactive)
REMARK    1  A    between atoms: C_1  and  C_2
REMARK    2  A    between atoms: C_2  and  C_3
REMARK    3  A    between atoms: C_7  and  C_8
REMARK    4  A    between atoms: C_8  and  C_9
REMARK                            x       y       z     vdW  Elec       q    Type
REMARK                         _______ _______ _______ _____ _____    ______ ____
ROOT
ATOM      1  C   UNL     1       0.723   2.372  19.262  0.00  0.00    +0.000 C 
ATOM      2  C   UNL     1       1.646   3.549  19.640  0.00  0.00    +0.000 C 
ATOM      3  C   UNL     1       0.873   4.475  20.598  0.00  0.00    +0.000 C 
ATOM      4  C   UNL     1       2.909   3.041  20.371  0.00  0.00    +0.000 C 
ATOM      5  C   UNL     1       3.934   2.395  19.456  0.00  0.00    +0.000 C 
ATOM      6  O   UNL     1       4.568   1.401  19.812  0.00  0.00    +0.000 OA
ATOM      7  C   UNL     1       4.265   3.103  18.159  0.00  0.00    +0.000 C 
ATOM      8  C   UNL     1       2.972   3.553  17.509  0.00  0.00    +0.000 C 
ATOM      9  O   UNL     1       2.720   3.312  16.330  0.00  0.00    +0.000 OA
ATOM     10  C   UNL     1       2.019   4.347  18.377  0.00  0.00    +0.000 C 
ENDROOT
BRANCH   7  11
ATOM     11  C   UNL     1       5.198   4.310  18.368  0.00  0.00    +0.000 C 
BRANCH  11  12
ATOM     12  C   UNL     1       6.091   4.683  17.168  0.00  0.00    +0.000 C 
ATOM     13  C   UNL     1       5.581   5.845  16.309  0.00  0.00    +0.000 C 
ATOM     14  C   UNL     1       5.705   7.199  16.998  0.00  0.00    +0.000 C 
ATOM     15  C   UNL     1       7.145   7.486  17.403  0.00  0.00    +0.000 C 
ATOM     16  C   UNL     1       7.765   6.372  18.235  0.00  0.00    +0.000 C 
ATOM     17  C   UNL     1       7.494   4.989  17.678  0.00  0.00    +0.000 C 
ATOM     18  O   UNL     1       8.325   4.087  17.795  0.00  0.00    +0.000 OA
ENDBRANCH  11  12
ENDBRANCH   7  11
TORSDOF 2
ENDMDL
MODEL 3
REMARK VINA RESULT:      -7.6      1.809      5.668
REMARK  Name = 
REMARK  4 active torsions:
REMARK  status: ('A' for Active; 'I' for Inactive)
REMARK    1  A    between atoms: C_1  and  C_2
REMARK    2  A    between atoms: C_2  and  C_3
REMARK    3  A    between atoms: C_7  and  C_8
REMARK    4  A    between atoms: C_8  and  C_9
REMARK                            x       y       z     vdW  Elec       q    Type
REMARK                         _______ _______ _______ _____ _____    ______ ____
ROOT
ATOM      1  C   UNL     1       7.323   6.848  16.922  0.00  0.00    +0.000 C 
ATOM      2  C   UNL     1       6.471   5.623  16.529  0.00  0.00    +0.000 C 
ATOM      3  C   UNL     1       7.090   4.997  15.264  0.00  0.00    +0.000 C 
ATOM      4  C   UNL     1       6.485   4.563  17.652  0.00  0.00    +0.000 C 
ATOM      5  C   UNL     1       5.614   4.916  18.844  0.00  0.00    +0.000 C 
ATOM      6  O   UNL     1       5.977   4.662  19.994  0.00  0.00    +0.000 OA
ATOM      7  C   UNL     1       4.222   5.444  18.568  0.00  0.00    +0.000 C 
ATOM      8  C   UNL     1       4.307   6.482  17.467  0.00  0.00    +0.000 C 
ATOM      9  O   UNL     1       3.789   7.592  17.580  0.00  0.00    +0.000 OA
ATOM     10  C   UNL     1       5.034   6.070  16.204  0.00  0.00    +0.000 C 
ENDROOT
BRANCH   7  11
ATOM     11  C   UNL     1       3.238   4.330  18.168  0.00  0.00    +0.000 C 
BRANCH  11  12
ATOM     12  C   UNL     1       1.812   4.457  18.739  0.00  0.00    +0.000 C 
ATOM     13  C   UNL     1       1.001   3.157  18.771  0.00  0.00    +0.000 C 
ATOM     14  C   UNL     1       1.486   2.174  19.829  0.00  0.00    +0.000 C 
ATOM     15  C   UNL     1       1.463   2.798  21.219  0.00  0.00    +0.000 C 
ATOM     16  C   UNL     1       2.213   4.120  21.293  0.00  0.00    +0.000 C 
ATOM     17  C   UNL     1       1.897   5.051  20.141  0.00  0.00    +0.000 C 
ATOM     18  O   UNL     1       1.884   6.272  20.301  0.00  0.00    +0.000 OA
ENDBRANCH  11  12
ENDBRANCH   7  11
TORSDOF 2
ENDMDL
MODEL 4
REMARK VINA RESULT:      -7.6      1.789      3.062
REMARK  Name = 
REMARK  4 active torsions:
REMARK  status: ('A' for Active; 'I' for Inactive)
REMARK    1  A    between atoms: C_1  and  C_2
REMARK    2  A    between atoms: C_2  and  C_3
REMARK    3  A    between atoms: C_7  and  C_8
REMARK    4  A    between atoms: C_8  and  C_9
REMARK                            x       y       z     vdW  Elec       q    Type
REMARK                         _______ _______ _______ _____ _____    ______ ____
ROOT
ATOM      1  C   UNL     1       1.719   2.650  21.030  0.00  0.00    +0.000 C 
ATOM      2  C   UNL     1       1.710   3.026  19.534  0.00  0.00    +0.000 C 
ATOM      3  C   UNL     1       0.591   2.222  18.845  0.00  0.00    +0.000 C 
ATOM      4  C   UNL     1       1.410   4.530  19.350  0.00  0.00    +0.000 C 
ATOM      5  C   UNL     1       2.581   5.438  19.678  0.00  0.00    +0.000 C 
ATOM      6  O   UNL     1       2.410   6.515  20.251  0.00  0.00    +0.000 OA
ATOM      7  C   UNL     1       3.943   5.053  19.139  0.00  0.00    +0.000 C 
ATOM      8  C   UNL     1       4.155   3.571  19.373  0.00  0.00    +0.000 C 
ATOM      9  O   UNL     1       5.177   3.137  19.901  0.00  0.00    +0.000 OA
ATOM     10  C   UNL     1       3.057   2.646  18.892  0.00  0.00    +0.000 C 
ENDROOT
BRANCH   7  11
ATOM     11  C   UNL     1       4.098   5.378  17.643  0.00  0.00    +0.000 C 
BRANCH  11  12
ATOM     12  C   UNL     1       5.314   6.249  17.268  0.00  0.00    +0.000 C 
ATOM     13  C   UNL     1       6.635   5.850  17.934  0.00  0.00    +0.000 C 
ATOM     14  C   UNL     1       7.218   4.556  17.380  0.00  0.00    +0.000 C 
ATOM     15  C   UNL     1       7.437   4.645  15.875  0.00  0.00    +0.000 C 
ATOM     16  C   UNL     1       6.190   5.071  15.114  0.00  0.00    +0.000 C 
ATOM     17  C   UNL     1       5.472   6.242  15.752  0.00  0.00    +0.000 C 
ATOM     18  O   UNL     1       4.881   7.073  15.061  0.00  0.00    +0.000 OA
ENDBRANCH  11  12
ENDBRANCH   7  11
TORSDOF 2
ENDMDL
MODEL 5
REMARK VINA RESULT:      -7.6      1.423      2.179
REMARK  Name = 
REMARK  4 active torsions:
REMARK  status: ('A' for Active; 'I' for Inactive)
REMARK    1  A    between atoms: C_1  and  C_2
REMARK    2  A    between atoms: C_2  and  C_3
REMARK    3  A    between atoms: C_7  and  C_8
REMARK    4  A    between atoms: C_8  and  C_9
REMARK                            x       y       z     vdW  Elec       q    Type
REMARK                         _______ _______ _______ _____ _____    ______ ____
ROOT
ATOM      1  C   UNL     1       1.578   3.365  20.708  0.00  0.00    +0.000 C 
ATOM      2  C   UNL     1       1.751   2.973  19.226  0.00  0.00    +0.000 C 
ATOM      3  C   UNL     1       0.524   2.142  18.805  0.00  0.00    +0.000 C 
ATOM      4  C   UNL     1       1.817   4.229  18.331  0.00  0.00    +0.000 C 
ATOM      5  C   UNL     1       3.143   4.966  18.399  0.00  0.00    +0.000 C 
ATOM      6  O   UNL     1       3.188   6.198  18.382  0.00  0.00    +0.000 OA
ATOM      7  C   UNL     1       4.411   4.142  18.328  0.00  0.00    +0.000 C 
ATOM      8  C   UNL     1       4.262   2.943  19.242  0.00  0.00    +0.000 C 
ATOM      9  O   UNL     1       5.120   2.647  20.070  0.00  0.00    +0.000 OA
ATOM     10  C   UNL     1       3.013   2.106  19.061  0.00  0.00    +0.000 C 
ENDROOT
BRANCH   7  11
ATOM     11  C   UNL     1       4.732   3.677  16.896  0.00  0.00    +0.000 C 
BRANCH  11  12
ATOM     12  C   UNL     1       5.988   4.299  16.254  0.00  0.00    +0.000 C 
ATOM     13  C   UNL     1       5.721   5.436  15.261  0.00  0.00    +0.000 C 
ATOM     14  C   UNL     1       5.258   6.723  15.934  0.00  0.00    +0.000 C 
ATOM     15  C   UNL     1       6.270   7.204  16.966  0.00  0.00    +0.000 C 
ATOM     16  C   UNL     1       6.636   6.136  17.987  0.00  0.00    +0.000 C 
ATOM     17  C   UNL     1       6.915   4.784  17.363  0.00  0.00    +0.000 C 
ATOM     18  O   UNL     1       7.753   4.025  17.851  0.00  0.00    +0.000 OA
ENDBRANCH  11  12
ENDBRANCH   7  11
TORSDOF 2
ENDMDL
MODEL 6
REMARK VINA RESULT:      -7.5      1.921      3.093
REMARK  Name = 
REMARK  4 active torsions:
REMARK  status: ('A' for Active; 'I' for Inactive)
REMARK    1  A    between atoms: C_1  and  C_2
REMARK    2  A    between atoms: C_2  and  C_3
REMARK    3  A    between atoms: C_7  and  C_8
REMARK    4  A    between atoms: C_8  and  C_9
REMARK                            x       y       z     vdW  Elec       q    Type
REMARK                         _______ _______ _______ _____ _____    ______ ____
ROOT
ATOM      1  C   UNL     1       1.388   2.698  21.087  0.00  0.00    +0.000 C 
ATOM      2  C   UNL     1       1.724   2.808  19.586  0.00  0.00    +0.000 C 
ATOM      3  C   UNL     1       0.528   2.253  18.787  0.00  0.00    +0.000 C 
ATOM      4  C   UNL     1       1.936   4.282  19.178  0.00  0.00    +0.000 C 
ATOM      5  C   UNL     1       3.268   4.860  19.624  0.00  0.00    +0.000 C 
ATOM      6  O   UNL     1       3.355   6.021  20.028  0.00  0.00    +0.000 OA
ATOM      7  C   UNL     1       4.508   4.018  19.408  0.00  0.00    +0.000 C 
ATOM      8  C   UNL     1       4.212   2.598  19.844  0.00  0.00    +0.000 C 
ATOM      9  O   UNL     1       4.956   1.984  20.606  0.00  0.00    +0.000 OA
ATOM     10  C   UNL     1       2.967   1.958  19.266  0.00  0.00    +0.000 C 
ENDROOT
BRANCH   7  11
ATOM     11  C   UNL     1       4.982   4.032  17.944  0.00  0.00    +0.000 C 
BRANCH  11  12
ATOM     12  C   UNL     1       6.026   5.109  17.586  0.00  0.00    +0.000 C 
ATOM     13  C   UNL     1       7.299   4.587  16.911  0.00  0.00    +0.000 C 
ATOM     14  C   UNL     1       7.073   4.133  15.474  0.00  0.00    +0.000 C 
ATOM     15  C   UNL     1       6.493   5.255  14.622  0.00  0.00    +0.000 C 
ATOM     16  C   UNL     1       5.237   5.873  15.221  0.00  0.00    +0.000 C 
ATOM     17  C   UNL     1       5.362   6.160  16.703  0.00  0.00    +0.000 C 
ATOM     18  O   UNL     1       4.792   7.127  17.209  0.00  0.00    +0.000 OA
ENDBRANCH  11  12
ENDBRANCH   7  11
TORSDOF 2
ENDMDL
MODEL 7
REMARK VINA RESULT:      -7.5      1.673      2.647
REMARK  Name = 
REMARK  4 active torsions:
REMARK  status: ('A' for Active; 'I' for Inactive)
REMARK    1  A    between atoms: C_1  and  C_2
REMARK    2  A    between atoms: C_2  and  C_3
REMARK    3  A    between atoms: C_7  and  C_8
REMARK    4  A    between atoms: C_8  and  C_9
REMARK                            x       y       z     vdW  Elec       q    Type
REMARK                         _______ _______ _______ _____ _____    ______ ____
ROOT
ATOM      1  C   UNL     1       1.581   3.067  21.079  0.00  0.00    +0.000 C 
ATOM      2  C   UNL     1       1.691   3.177  19.544  0.00  0.00    +0.000 C 
ATOM      3  C   UNL     1       0.510   2.405  18.924  0.00  0.00    +0.000 C 
ATOM      4  C   UNL     1       1.596   4.651  19.092  0.00  0.00    +0.000 C 
ATOM      5  C   UNL     1       2.859   5.456  19.344  0.00  0.00    +0.000 C 
ATOM      6  O   UNL     1       2.802   6.629  19.717  0.00  0.00    +0.000 OA
ATOM      7  C   UNL     1       4.183   4.823  18.971  0.00  0.00    +0.000 C 
ATOM      8  C   UNL     1       4.191   3.389  19.462  0.00  0.00    +0.000 C 
ATOM      9  O   UNL     1       5.122   2.934  20.122  0.00  0.00    +0.000 OA
ATOM     10  C   UNL     1       3.005   2.533  19.067  0.00  0.00    +0.000 C 
ENDROOT
BRANCH   7  11
ATOM     11  C   UNL     1       4.449   4.862  17.455  0.00  0.00    +0.000 C 
BRANCH  11  12
ATOM     12  C   UNL     1       5.536   3.899  16.939  0.00  0.00    +0.000 C 
ATOM     13  C   UNL     1       5.361   3.430  15.490  0.00  0.00    +0.000 C 
ATOM     14  C   UNL     1       5.650   4.523  14.468  0.00  0.00    +0.000 C 
ATOM     15  C   UNL     1       7.058   5.081  14.634  0.00  0.00    +0.000 C 
ATOM     16  C   UNL     1       7.353   5.545  16.053  0.00  0.00    +0.000 C 
ATOM     17  C   UNL     1       6.898   4.560  17.111  0.00  0.00    +0.000 C 
ATOM     18  O   UNL     1       7.526   4.430  18.163  0.00  0.00    +0.000 OA
ENDBRANCH  11  12
ENDBRANCH   7  11
TORSDOF 2
ENDMDL
MODEL 8
REMARK VINA RESULT:      -7.4      1.572      2.346
REMARK  Name = 
REMARK  4 active torsions:
REMARK  status: ('A' for Active; 'I' for Inactive)
REMARK    1  A    between atoms: C_1  and  C_2
REMARK    2  A    between atoms: C_2  and  C_3
REMARK    3  A    between atoms: C_7  and  C_8
REMARK    4  A    between atoms: C_8  and  C_9
REMARK                            x       y       z     vdW  Elec       q    Type
REMARK                         _______ _______ _______ _____ _____    ______ ____
ROOT
ATOM      1  C   UNL     1       1.633   3.408  20.695  0.00  0.00    +0.000 C 
ATOM      2  C   UNL     1       1.710   3.038  19.199  0.00  0.00    +0.000 C 
ATOM      3  C   UNL     1       0.633   1.973  18.914  0.00  0.00    +0.000 C 
ATOM      4  C   UNL     1       1.419   4.270  18.315  0.00  0.00    +0.000 C 
ATOM      5  C   UNL     1       2.569   5.258  18.236  0.00  0.00    +0.000 C 
ATOM      6  O   UNL     1       2.364   6.474  18.226  0.00  0.00    +0.000 OA
ATOM      7  C   UNL     1       3.960   4.704  18.011  0.00  0.00    +0.000 C 
ATOM      8  C   UNL     1       4.160   3.511  18.925  0.00  0.00    +0.000 C 
ATOM      9  O   UNL     1       5.150   3.405  19.646  0.00  0.00    +0.000 OA
ATOM     10  C   UNL     1       3.092   2.439  18.881  0.00  0.00    +0.000 C 
ENDROOT
BRANCH   7  11
ATOM     11  C   UNL     1       4.201   4.292  16.548  0.00  0.00    +0.000 C 
BRANCH  11  12
ATOM     12  C   UNL     1       5.152   5.201  15.743  0.00  0.00    +0.000 C 
ATOM     13  C   UNL     1       5.244   6.650  16.234  0.00  0.00    +0.000 C 
ATOM     14  C   UNL     1       5.999   6.791  17.550  0.00  0.00    +0.000 C 
ATOM     15  C   UNL     1       7.408   6.221  17.445  0.00  0.00    +0.000 C 
ATOM     16  C   UNL     1       7.437   4.789  16.930  0.00  0.00    +0.000 C 
ATOM     17  C   UNL     1       6.539   4.568  15.730  0.00  0.00    +0.000 C 
ATOM     18  O   UNL     1       6.847   3.761  14.852  0.00  0.00    +0.000 OA
ENDBRANCH  11  12
ENDBRANCH   7  11
TORSDOF 2
ENDMDL
MODEL 9
REMARK VINA RESULT:      -7.4      1.460      5.666
REMARK  Name = 
REMARK  4 active torsions:
REMARK  status: ('A' for Active; 'I' for Inactive)
REMARK    1  A    between atoms: C_1  and  C_2
REMARK    2  A    between atoms: C_2  and  C_3
REMARK    3  A    between atoms: C_7  and  C_8
REMARK    4  A    between atoms: C_8  and  C_9
REMARK                            x       y       z     vdW  Elec       q    Type
REMARK                         _______ _______ _______ _____ _____    ______ ____
ROOT
ATOM      1  C   UNL     1       7.468   7.059  16.764  0.00  0.00    +0.000 C 
ATOM      2  C   UNL     1       6.674   5.767  16.479  0.00  0.00    +0.000 C 
ATOM      3  C   UNL     1       7.279   5.100  15.229  0.00  0.00    +0.000 C 
ATOM      4  C   UNL     1       6.792   4.780  17.661  0.00  0.00    +0.000 C 
ATOM      5  C   UNL     1       5.948   5.155  18.866  0.00  0.00    +0.000 C 
ATOM      6  O   UNL     1       6.368   4.993  20.013  0.00  0.00    +0.000 OA
ATOM      7  C   UNL     1       4.518   5.587  18.617  0.00  0.00    +0.000 C 
ATOM      8  C   UNL     1       4.501   6.560  17.455  0.00  0.00    +0.000 C 
ATOM      9  O   UNL     1       3.925   7.643  17.524  0.00  0.00    +0.000 OA
ATOM     10  C   UNL     1       5.202   6.113  16.189  0.00  0.00    +0.000 C 
ENDROOT
BRANCH   7  11
ATOM     11  C   UNL     1       3.586   4.398  18.324  0.00  0.00    +0.000 C 
BRANCH  11  12
ATOM     12  C   UNL     1       3.384   3.402  19.483  0.00  0.00    +0.000 C 
ATOM     13  C   UNL     1       2.619   3.952  20.693  0.00  0.00    +0.000 C 
ATOM     14  C   UNL     1       1.133   4.152  20.422  0.00  0.00    +0.000 C 
ATOM     15  C   UNL     1       0.471   2.855  19.975  0.00  0.00    +0.000 C 
ATOM     16  C   UNL     1       1.175   2.201  18.794  0.00  0.00    +0.000 C 
ATOM     17  C   UNL     1       2.682   2.161  18.945  0.00  0.00    +0.000 C 
ATOM     18  O   UNL     1       3.337   1.225  18.485  0.00  0.00    +0.000 OA
ENDBRANCH  11  12
ENDBRANCH   7  11
TORSDOF 2
ENDMDL
