MODEL 1
REMARK VINA RESULT:      -8.4      0.000      0.000
REMARK  Name = 
REMARK  6 active torsions:
REMARK  status: ('A' for Active; 'I' for Inactive)
REMARK    1  A    between atoms: C_2  and  C_3
REMARK    2  A    between atoms: C_5  and  S_6
REMARK    3  A    between atoms: S_6  and  N_9
REMARK    4  A    between atoms: C_17  and  O_18
REMARK    5  A    between atoms: O_18  and  C_19
REMARK    6  A    between atoms: C_25  and  C_26
REMARK                            x       y       z     vdW  Elec       q    Type
REMARK                         _______ _______ _______ _____ _____    ______ ____
ROOT
ATOM      1  C   UNL     1       1.113   8.609  20.361  0.00  0.00    +0.000 A 
ATOM      2  C   UNL     1       1.863   7.428  20.342  0.00  0.00    +0.000 A 
ATOM      3  C   UNL     1       2.521   7.007  19.184  0.00  0.00    +0.000 A 
ATOM      4  C   UNL     1       2.413   7.752  18.009  0.00  0.00    +0.000 A 
ATOM      5  C   UNL     1       1.715   8.969  18.039  0.00  0.00    +0.000 A 
ATOM      6  C   UNL     1       1.095   9.426  19.218  0.00  0.00    +0.000 A 
ENDROOT
BRANCH   3   7
ATOM      7  S   UNL     1       3.333   5.426  19.229  0.00  0.00    +0.000 S 
ATOM      8  O   UNL     1       2.850   4.736  20.413  0.00  0.00    +0.000 OA
ATOM      9  O   UNL     1       3.198   4.842  17.911  0.00  0.00    +0.000 OA
BRANCH   7  10
ATOM     10  N   UNL     1       4.941   5.854  19.572  0.00  0.00    +0.000 N 
ATOM     11  C   UNL     1       5.765   5.587  18.450  0.00  0.00    +0.000 A 
ATOM     12  N   UNL     1       6.431   4.461  18.355  0.00  0.00    +0.000 NA
ATOM     13  C   UNL     1       7.105   4.450  17.142  0.00  0.00    +0.000 A 
ATOM     14  C   UNL     1       7.027   5.616  16.407  0.00  0.00    +0.000 A 
ATOM     15  S   UNL     1       6.025   6.742  17.220  0.00  0.00    +0.000 S 
ATOM     16  H   UNL     1       5.236   5.276  20.360  0.00  0.00    +0.000 HD
ENDBRANCH   7  10
ENDBRANCH   3   7
BRANCH   1  18
ATOM     17  N   UNL     1      -0.053   9.060  22.635  0.00  0.00    +0.000 NA
ATOM     18  C   UNL     1       0.419   8.879  21.583  0.00  0.00    +0.000 C 
ENDBRANCH   1  18
BRANCH   6  19
ATOM     19  O   UNL     1       0.449  10.635  19.076  0.00  0.00    +0.000 OA
BRANCH  19  20
ATOM     20  C   UNL     1      -0.862  10.734  18.645  0.00  0.00    +0.000 A 
ATOM     21  C   UNL     1      -1.363   9.915  17.625  0.00  0.00    +0.000 A 
ATOM     22  C   UNL     1      -2.603  10.176  17.053  0.00  0.00    +0.000 A 
ATOM     23  C   UNL     1      -3.400  11.185  17.574  0.00  0.00    +0.000 A 
ATOM     24 CL   UNL     1      -4.911  11.546  16.846  0.00  0.00    +0.000 Cl
ATOM     25  C   UNL     1      -2.977  11.902  18.694  0.00  0.00    +0.000 A 
ATOM     26  C   UNL     1      -1.703  11.696  19.265  0.00  0.00    +0.000 A 
BRANCH  26  27
ATOM     27  C   UNL     1      -1.309  12.478  20.473  0.00  0.00    +0.000 A 
ATOM     28  C   UNL     1      -1.603  12.034  21.775  0.00  0.00    +0.000 A 
ATOM     29  C   UNL     1      -1.241  12.770  22.905  0.00  0.00    +0.000 A 
ATOM     30  C   UNL     1      -0.589  13.989  22.760  0.00  0.00    +0.000 A 
ATOM     31  C   UNL     1      -0.306  14.471  21.488  0.00  0.00    +0.000 A 
ATOM     32  C   UNL     1      -0.662  13.725  20.362  0.00  0.00    +0.000 A 
ENDBRANCH  26  27
ENDBRANCH  19  20
ENDBRANCH   6  19
TORSDOF 6
ENDMDL
MODEL 2
REMARK VINA RESULT:      -8.3      1.846      2.374
REMARK  Name = 
REMARK  6 active torsions:
REMARK  status: ('A' for Active; 'I' for Inactive)
REMARK    1  A    between atoms: C_2  and  C_3
REMARK    2  A    between atoms: C_5  and  S_6
REMARK    3  A    between atoms: S_6  and  N_9
REMARK    4  A    between atoms: C_17  and  O_18
REMARK    5  A    between atoms: O_18  and  C_19
REMARK    6  A    between atoms: C_25  and  C_26
REMARK                            x       y       z     vdW  Elec       q    Type
REMARK                         _______ _______ _______ _____ _____    ______ ____
ROOT
ATOM      1  C   UNL     1       1.071   8.800  20.107  0.00  0.00    +0.000 A 
ATOM      2  C   UNL     1       1.941   7.718  19.930  0.00  0.00    +0.000 A 
ATOM      3  C   UNL     1       2.665   7.558  18.747  0.00  0.00    +0.000 A 
ATOM      4  C   UNL     1       2.506   8.468  17.701  0.00  0.00    +0.000 A 
ATOM      5  C   UNL     1       1.683   9.587  17.895  0.00  0.00    +0.000 A 
ATOM      6  C   UNL     1       0.992   9.784  19.107  0.00  0.00    +0.000 A 
ENDROOT
BRANCH   3   7
ATOM      7  S   UNL     1       3.638   6.080  18.573  0.00  0.00    +0.000 S 
ATOM      8  O   UNL     1       4.784   6.424  17.747  0.00  0.00    +0.000 OA
ATOM      9  O   UNL     1       3.807   5.523  19.898  0.00  0.00    +0.000 OA
BRANCH   7  10
ATOM     10  N   UNL     1       2.646   5.105  17.596  0.00  0.00    +0.000 N 
ATOM     11  C   UNL     1       2.504   3.821  18.176  0.00  0.00    +0.000 A 
ATOM     12  N   UNL     1       3.278   2.827  17.811  0.00  0.00    +0.000 NA
ATOM     13  C   UNL     1       2.952   1.714  18.573  0.00  0.00    +0.000 A 
ATOM     14  C   UNL     1       1.863   1.862  19.408  0.00  0.00    +0.000 A 
ATOM     15  S   UNL     1       1.263   3.462  19.293  0.00  0.00    +0.000 S 
ATOM     16  H   UNL     1       3.114   5.025  16.692  0.00  0.00    +0.000 HD
ENDBRANCH   7  10
ENDBRANCH   3   7
BRANCH   1  18
ATOM     17  N   UNL     1      -0.329   8.897  22.290  0.00  0.00    +0.000 NA
ATOM     18  C   UNL     1       0.325   8.798  21.328  0.00  0.00    +0.000 C 
ENDBRANCH   1  18
BRANCH   6  19
ATOM     19  O   UNL     1       0.226  10.929  19.133  0.00  0.00    +0.000 OA
BRANCH  19  20
ATOM     20  C   UNL     1      -1.111  10.940  18.775  0.00  0.00    +0.000 A 
ATOM     21  C   UNL     1      -1.605  10.111  17.760  0.00  0.00    +0.000 A 
ATOM     22  C   UNL     1      -2.890  10.292  17.261  0.00  0.00    +0.000 A 
ATOM     23  C   UNL     1      -3.730  11.226  17.852  0.00  0.00    +0.000 A 
ATOM     24 CL   UNL     1      -5.301  11.490  17.215  0.00  0.00    +0.000 Cl
ATOM     25  C   UNL     1      -3.300  11.945  18.968  0.00  0.00    +0.000 A 
ATOM     26  C   UNL     1      -1.985  11.821  19.465  0.00  0.00    +0.000 A 
BRANCH  26  27
ATOM     27  C   UNL     1      -1.584  12.601  20.672  0.00  0.00    +0.000 A 
ATOM     28  C   UNL     1      -1.748  12.093  21.974  0.00  0.00    +0.000 A 
ATOM     29  C   UNL     1      -1.379  12.827  23.104  0.00  0.00    +0.000 A 
ATOM     30  C   UNL     1      -0.854  14.105  22.959  0.00  0.00    +0.000 A 
ATOM     31  C   UNL     1      -0.702  14.649  21.690  0.00  0.00    +0.000 A 
ATOM     32  C   UNL     1      -1.062  13.906  20.563  0.00  0.00    +0.000 A 
ENDBRANCH  26  27
ENDBRANCH  19  20
ENDBRANCH   6  19
TORSDOF 6
ENDMDL
MODEL 3
REMARK VINA RESULT:      -8.3      1.956      2.690
REMARK  Name = 
REMARK  6 active torsions:
REMARK  status: ('A' for Active; 'I' for Inactive)
REMARK    1  A    between atoms: C_2  and  C_3
REMARK    2  A    between atoms: C_5  and  S_6
REMARK    3  A    between atoms: S_6  and  N_9
REMARK    4  A    between atoms: C_17  and  O_18
REMARK    5  A    between atoms: O_18  and  C_19
REMARK    6  A    between atoms: C_25  and  C_26
REMARK                            x       y       z     vdW  Elec       q    Type
REMARK                         _______ _______ _______ _____ _____    ______ ____
ROOT
ATOM      1  C   UNL     1       1.034   8.821  20.118  0.00  0.00    +0.000 A 
ATOM      2  C   UNL     1       1.889   7.734  19.902  0.00  0.00    +0.000 A 
ATOM      3  C   UNL     1       2.554   7.569  18.685  0.00  0.00    +0.000 A 
ATOM      4  C   UNL     1       2.349   8.478  17.646  0.00  0.00    +0.000 A 
ATOM      5  C   UNL     1       1.542   9.602  17.879  0.00  0.00    +0.000 A 
ATOM      6  C   UNL     1       0.912   9.804  19.123  0.00  0.00    +0.000 A 
ENDROOT
BRANCH   3   7
ATOM      7  S   UNL     1       3.510   6.085  18.465  0.00  0.00    +0.000 S 
ATOM      8  O   UNL     1       4.374   6.306  17.318  0.00  0.00    +0.000 OA
ATOM      9  O   UNL     1       4.053   5.735  19.759  0.00  0.00    +0.000 OA
BRANCH   7  10
ATOM     10  N   UNL     1       2.336   4.971  17.946  0.00  0.00    +0.000 N 
ATOM     11  C   UNL     1       2.171   3.951  18.915  0.00  0.00    +0.000 A 
ATOM     12  N   UNL     1       2.819   2.815  18.816  0.00  0.00    +0.000 NA
ATOM     13  C   UNL     1       2.508   2.034  19.919  0.00  0.00    +0.000 A 
ATOM     14  C   UNL     1       1.544   2.549  20.761  0.00  0.00    +0.000 A 
ATOM     15  S   UNL     1       1.054   4.091  20.198  0.00  0.00    +0.000 S 
ATOM     16  H   UNL     1       2.682   4.566  17.075  0.00  0.00    +0.000 HD
ENDBRANCH   7  10
ENDBRANCH   3   7
BRANCH   1  18
ATOM     17  N   UNL     1      -0.309   8.832  22.339  0.00  0.00    +0.000 NA
ATOM     18  C   UNL     1       0.349   8.824  21.375  0.00  0.00    +0.000 C 
ENDBRANCH   1  18
BRANCH   6  19
ATOM     19  O   UNL     1       0.154  10.954  19.184  0.00  0.00    +0.000 OA
BRANCH  19  20
ATOM     20  C   UNL     1      -1.179  10.988  18.817  0.00  0.00    +0.000 A 
ATOM     21  C   UNL     1      -1.682  10.163  17.801  0.00  0.00    +0.000 A 
ATOM     22  C   UNL     1      -2.960  10.367  17.293  0.00  0.00    +0.000 A 
ATOM     23  C   UNL     1      -3.786  11.318  17.875  0.00  0.00    +0.000 A 
ATOM     24 CL   UNL     1      -5.348  11.608  17.226  0.00  0.00    +0.000 Cl
ATOM     25  C   UNL     1      -3.351  12.033  18.990  0.00  0.00    +0.000 A 
ATOM     26  C   UNL     1      -2.042  11.887  19.498  0.00  0.00    +0.000 A 
BRANCH  26  27
ATOM     27  C   UNL     1      -1.635  12.664  20.704  0.00  0.00    +0.000 A 
ATOM     28  C   UNL     1      -1.097  13.960  20.608  0.00  0.00    +0.000 A 
ATOM     29  C   UNL     1      -0.709  14.684  21.739  0.00  0.00    +0.000 A 
ATOM     30  C   UNL     1      -0.830  14.116  23.001  0.00  0.00    +0.000 A 
ATOM     31  C   UNL     1      -1.333  12.827  23.132  0.00  0.00    +0.000 A 
ATOM     32  C   UNL     1      -1.729  12.113  21.998  0.00  0.00    +0.000 A 
ENDBRANCH  26  27
ENDBRANCH  19  20
ENDBRANCH   6  19
TORSDOF 6
ENDMDL
MODEL 4
REMARK VINA RESULT:      -8.3      1.862      2.517
REMARK  Name = 
REMARK  6 active torsions:
REMARK  status: ('A' for Active; 'I' for Inactive)
REMARK    1  A    between atoms: C_2  and  C_3
REMARK    2  A    between atoms: C_5  and  S_6
REMARK    3  A    between atoms: S_6  and  N_9
REMARK    4  A    between atoms: C_17  and  O_18
REMARK    5  A    between atoms: O_18  and  C_19
REMARK    6  A    between atoms: C_25  and  C_26
REMARK                            x       y       z     vdW  Elec       q    Type
REMARK                         _______ _______ _______ _____ _____    ______ ____
ROOT
ATOM      1  C   UNL     1       0.998   8.855  20.098  0.00  0.00    +0.000 A 
ATOM      2  C   UNL     1       1.855   7.770  19.882  0.00  0.00    +0.000 A 
ATOM      3  C   UNL     1       2.532   7.613  18.671  0.00  0.00    +0.000 A 
ATOM      4  C   UNL     1       2.336   8.529  17.637  0.00  0.00    +0.000 A 
ATOM      5  C   UNL     1       1.527   9.651  17.869  0.00  0.00    +0.000 A 
ATOM      6  C   UNL     1       0.885   9.845  19.108  0.00  0.00    +0.000 A 
ENDROOT
BRANCH   3   7
ATOM      7  S   UNL     1       3.490   6.131  18.451  0.00  0.00    +0.000 S 
ATOM      8  O   UNL     1       2.640   5.178  17.757  0.00  0.00    +0.000 OA
ATOM      9  O   UNL     1       4.771   6.531  17.909  0.00  0.00    +0.000 OA
BRANCH   7  10
ATOM     10  N   UNL     1       3.628   5.549  20.041  0.00  0.00    +0.000 N 
ATOM     11  C   UNL     1       2.845   4.378  20.200  0.00  0.00    +0.000 A 
ATOM     12  N   UNL     1       1.625   4.442  20.678  0.00  0.00    +0.000 NA
ATOM     13  C   UNL     1       1.084   3.164  20.674  0.00  0.00    +0.000 A 
ATOM     14  C   UNL     1       1.948   2.153  20.306  0.00  0.00    +0.000 A 
ATOM     15  S   UNL     1       3.469   2.821  19.884  0.00  0.00    +0.000 S 
ATOM     16  H   UNL     1       3.274   6.285  20.654  0.00  0.00    +0.000 HD
ENDBRANCH   7  10
ENDBRANCH   3   7
BRANCH   1  18
ATOM     17  N   UNL     1      -0.365   8.873  22.307  0.00  0.00    +0.000 NA
ATOM     18  C   UNL     1       0.300   8.849  21.348  0.00  0.00    +0.000 C 
ENDBRANCH   1  18
BRANCH   6  19
ATOM     19  O   UNL     1       0.126  10.994  19.169  0.00  0.00    +0.000 OA
BRANCH  19  20
ATOM     20  C   UNL     1      -1.214  11.021  18.824  0.00  0.00    +0.000 A 
ATOM     21  C   UNL     1      -1.731  10.187  17.824  0.00  0.00    +0.000 A 
ATOM     22  C   UNL     1      -3.018  10.383  17.336  0.00  0.00    +0.000 A 
ATOM     23  C   UNL     1      -3.837  11.337  17.924  0.00  0.00    +0.000 A 
ATOM     24 CL   UNL     1      -5.410  11.618  17.298  0.00  0.00    +0.000 Cl
ATOM     25  C   UNL     1      -3.385  12.063  19.026  0.00  0.00    +0.000 A 
ATOM     26  C   UNL     1      -2.067  11.924  19.512  0.00  0.00    +0.000 A 
BRANCH  26  27
ATOM     27  C   UNL     1      -1.642  12.712  20.705  0.00  0.00    +0.000 A 
ATOM     28  C   UNL     1      -1.674  12.172  22.003  0.00  0.00    +0.000 A 
ATOM     29  C   UNL     1      -1.282  12.913  23.121  0.00  0.00    +0.000 A 
ATOM     30  C   UNL     1      -0.868  14.231  22.969  0.00  0.00    +0.000 A 
ATOM     31  C   UNL     1      -0.849  14.806  21.704  0.00  0.00    +0.000 A 
ATOM     32  C   UNL     1      -1.231  14.056  20.589  0.00  0.00    +0.000 A 
ENDBRANCH  26  27
ENDBRANCH  19  20
ENDBRANCH   6  19
TORSDOF 6
ENDMDL
MODEL 5
REMARK VINA RESULT:      -8.1      4.094      8.925
REMARK  Name = 
REMARK  6 active torsions:
REMARK  status: ('A' for Active; 'I' for Inactive)
REMARK    1  A    between atoms: C_2  and  C_3
REMARK    2  A    between atoms: C_5  and  S_6
REMARK    3  A    between atoms: S_6  and  N_9
REMARK    4  A    between atoms: C_17  and  O_18
REMARK    5  A    between atoms: O_18  and  C_19
REMARK    6  A    between atoms: C_25  and  C_26
REMARK                            x       y       z     vdW  Elec       q    Type
REMARK                         _______ _______ _______ _____ _____    ______ ____
ROOT
ATOM      1  C   UNL     1       2.683   6.569  19.524  0.00  0.00    +0.000 A 
ATOM      2  C   UNL     1       1.681   7.543  19.440  0.00  0.00    +0.000 A 
ATOM      3  C   UNL     1       1.777   8.604  18.538  0.00  0.00    +0.000 A 
ATOM      4  C   UNL     1       2.901   8.726  17.719  0.00  0.00    +0.000 A 
ATOM      5  C   UNL     1       3.878   7.720  17.754  0.00  0.00    +0.000 A 
ATOM      6  C   UNL     1       3.761   6.618  18.623  0.00  0.00    +0.000 A 
ENDROOT
BRANCH   3   7
ATOM      7  S   UNL     1       0.518   9.858  18.605  0.00  0.00    +0.000 S 
ATOM      8  O   UNL     1      -0.407   9.587  17.517  0.00  0.00    +0.000 OA
ATOM      9  O   UNL     1       0.064   9.929  19.977  0.00  0.00    +0.000 OA
BRANCH   7  10
ATOM     10  N   UNL     1       1.371  11.254  18.145  0.00  0.00    +0.000 N 
ATOM     11  C   UNL     1       0.879  12.379  18.851  0.00  0.00    +0.000 A 
ATOM     12  N   UNL     1      -0.032  13.161  18.323  0.00  0.00    +0.000 NA
ATOM     13  C   UNL     1      -0.360  14.141  19.249  0.00  0.00    +0.000 A 
ATOM     14  C   UNL     1       0.397  14.146  20.403  0.00  0.00    +0.000 A 
ATOM     15  S   UNL     1       1.510  12.845  20.367  0.00  0.00    +0.000 S 
ATOM     16  H   UNL     1       1.210  11.378  17.145  0.00  0.00    +0.000 HD
ENDBRANCH   7  10
ENDBRANCH   3   7
BRANCH   1  18
ATOM     17  N   UNL     1       2.298   4.725  21.309  0.00  0.00    +0.000 NA
ATOM     18  C   UNL     1       2.505   5.588  20.550  0.00  0.00    +0.000 C 
ENDBRANCH   1  18
BRANCH   6  19
ATOM     19  O   UNL     1       4.806   5.725  18.536  0.00  0.00    +0.000 OA
BRANCH  19  20
ATOM     20  C   UNL     1       5.207   5.162  17.337  0.00  0.00    +0.000 A 
ATOM     21  C   UNL     1       6.332   5.631  16.646  0.00  0.00    +0.000 A 
ATOM     22  C   UNL     1       6.589   5.212  15.345  0.00  0.00    +0.000 A 
ATOM     23  C   UNL     1       5.790   4.234  14.769  0.00  0.00    +0.000 A 
ATOM     24 CL   UNL     1       6.071   3.743  13.149  0.00  0.00    +0.000 Cl
ATOM     25  C   UNL     1       4.765   3.645  15.509  0.00  0.00    +0.000 A 
ATOM     26  C   UNL     1       4.446   4.084  16.812  0.00  0.00    +0.000 A 
BRANCH  26  27
ATOM     27  C   UNL     1       3.350   3.406  17.564  0.00  0.00    +0.000 A 
ATOM     28  C   UNL     1       2.007   3.804  17.440  0.00  0.00    +0.000 A 
ATOM     29  C   UNL     1       0.983   3.173  18.151  0.00  0.00    +0.000 A 
ATOM     30  C   UNL     1       1.282   2.136  19.026  0.00  0.00    +0.000 A 
ATOM     31  C   UNL     1       2.602   1.735  19.194  0.00  0.00    +0.000 A 
ATOM     32  C   UNL     1       3.620   2.362  18.472  0.00  0.00    +0.000 A 
ENDBRANCH  26  27
ENDBRANCH  19  20
ENDBRANCH   6  19
TORSDOF 6
ENDMDL
MODEL 6
REMARK VINA RESULT:      -8.1      4.100      8.439
REMARK  Name = 
REMARK  6 active torsions:
REMARK  status: ('A' for Active; 'I' for Inactive)
REMARK    1  A    between atoms: C_2  and  C_3
REMARK    2  A    between atoms: C_5  and  S_6
REMARK    3  A    between atoms: S_6  and  N_9
REMARK    4  A    between atoms: C_17  and  O_18
REMARK    5  A    between atoms: O_18  and  C_19
REMARK    6  A    between atoms: C_25  and  C_26
REMARK                            x       y       z     vdW  Elec       q    Type
REMARK                         _______ _______ _______ _____ _____    ______ ____
ROOT
ATOM      1  C   UNL     1       1.005   9.272  20.509  0.00  0.00    +0.000 A 
ATOM      2  C   UNL     1      -0.046  10.141  20.195  0.00  0.00    +0.000 A 
ATOM      3  C   UNL     1      -0.416  10.381  18.870  0.00  0.00    +0.000 A 
ATOM      4  C   UNL     1       0.286   9.774  17.828  0.00  0.00    +0.000 A 
ATOM      5  C   UNL     1       1.299   8.854  18.137  0.00  0.00    +0.000 A 
ATOM      6  C   UNL     1       1.640   8.566  19.473  0.00  0.00    +0.000 A 
ENDROOT
BRANCH   3   7
ATOM      7  S   UNL     1      -1.673  11.604  18.576  0.00  0.00    +0.000 S 
ATOM      8  O   UNL     1      -2.677  10.981  17.729  0.00  0.00    +0.000 OA
ATOM      9  O   UNL     1      -2.021  12.173  19.860  0.00  0.00    +0.000 OA
BRANCH   7  10
ATOM     10  N   UNL     1      -0.866  12.722  17.582  0.00  0.00    +0.000 N 
ATOM     11  C   UNL     1      -0.061  13.580  18.371  0.00  0.00    +0.000 A 
ATOM     12  N   UNL     1      -0.506  14.749  18.765  0.00  0.00    +0.000 NA
ATOM     13  C   UNL     1       0.464  15.345  19.558  0.00  0.00    +0.000 A 
ATOM     14  C   UNL     1       1.662  14.665  19.643  0.00  0.00    +0.000 A 
ATOM     15  S   UNL     1       1.556  13.199  18.763  0.00  0.00    +0.000 S 
ATOM     16  H   UNL     1      -1.588  13.267  17.109  0.00  0.00    +0.000 HD
ENDBRANCH   7  10
ENDBRANCH   3   7
BRANCH   1  18
ATOM     17  N   UNL     1       1.561   9.217  23.043  0.00  0.00    +0.000 NA
ATOM     18  C   UNL     1       1.338   9.184  21.898  0.00  0.00    +0.000 C 
ENDBRANCH   1  18
BRANCH   6  19
ATOM     19  O   UNL     1       2.657   7.645  19.603  0.00  0.00    +0.000 OA
BRANCH  19  20
ATOM     20  C   UNL     1       2.421   6.290  19.754  0.00  0.00    +0.000 A 
ATOM     21  C   UNL     1       1.216   5.810  20.285  0.00  0.00    +0.000 A 
ATOM     22  C   UNL     1       1.082   4.472  20.639  0.00  0.00    +0.000 A 
ATOM     23  C   UNL     1       2.109   3.582  20.356  0.00  0.00    +0.000 A 
ATOM     24 CL   UNL     1       1.973   1.938  20.830  0.00  0.00    +0.000 Cl
ATOM     25  C   UNL     1       3.248   4.021  19.681  0.00  0.00    +0.000 A 
ATOM     26  C   UNL     1       3.437   5.381  19.356  0.00  0.00    +0.000 A 
BRANCH  26  27
ATOM     27  C   UNL     1       4.666   5.793  18.618  0.00  0.00    +0.000 A 
ATOM     28  C   UNL     1       4.605   6.401  17.351  0.00  0.00    +0.000 A 
ATOM     29  C   UNL     1       5.757   6.779  16.657  0.00  0.00    +0.000 A 
ATOM     30  C   UNL     1       7.009   6.535  17.208  0.00  0.00    +0.000 A 
ATOM     31  C   UNL     1       7.109   5.912  18.446  0.00  0.00    +0.000 A 
ATOM     32  C   UNL     1       5.952   5.547  19.139  0.00  0.00    +0.000 A 
ENDBRANCH  26  27
ENDBRANCH  19  20
ENDBRANCH   6  19
TORSDOF 6
ENDMDL
MODEL 7
REMARK VINA RESULT:      -8.0      3.951      8.948
REMARK  Name = 
REMARK  6 active torsions:
REMARK  status: ('A' for Active; 'I' for Inactive)
REMARK    1  A    between atoms: C_2  and  C_3
REMARK    2  A    between atoms: C_5  and  S_6
REMARK    3  A    between atoms: S_6  and  N_9
REMARK    4  A    between atoms: C_17  and  O_18
REMARK    5  A    between atoms: O_18  and  C_19
REMARK    6  A    between atoms: C_25  and  C_26
REMARK                            x       y       z     vdW  Elec       q    Type
REMARK                         _______ _______ _______ _____ _____    ______ ____
ROOT
ATOM      1  C   UNL     1       2.696   6.606  19.492  0.00  0.00    +0.000 A 
ATOM      2  C   UNL     1       1.718   7.601  19.385  0.00  0.00    +0.000 A 
ATOM      3  C   UNL     1       1.855   8.655  18.479  0.00  0.00    +0.000 A 
ATOM      4  C   UNL     1       2.996   8.748  17.681  0.00  0.00    +0.000 A 
ATOM      5  C   UNL     1       3.950   7.720  17.739  0.00  0.00    +0.000 A 
ATOM      6  C   UNL     1       3.791   6.625  18.612  0.00  0.00    +0.000 A 
ENDROOT
BRANCH   3   7
ATOM      7  S   UNL     1       0.623   9.938  18.517  0.00  0.00    +0.000 S 
ATOM      8  O   UNL     1       1.326  11.202  18.377  0.00  0.00    +0.000 OA
ATOM      9  O   UNL     1      -0.420   9.551  17.591  0.00  0.00    +0.000 OA
BRANCH   7  10
ATOM     10  N   UNL     1       0.094   9.884  20.130  0.00  0.00    +0.000 N 
ATOM     11  C   UNL     1      -0.131  11.197  20.612  0.00  0.00    +0.000 A 
ATOM     12  N   UNL     1       0.797  11.837  21.283  0.00  0.00    +0.000 NA
ATOM     13  C   UNL     1       0.326  13.107  21.582  0.00  0.00    +0.000 A 
ATOM     14  C   UNL     1      -0.987  13.352  21.234  0.00  0.00    +0.000 A 
ATOM     15  S   UNL     1      -1.640  11.978  20.447  0.00  0.00    +0.000 S 
ATOM     16  H   UNL     1       0.840   9.443  20.669  0.00  0.00    +0.000 HD
ENDBRANCH   7  10
ENDBRANCH   3   7
BRANCH   1  18
ATOM     17  N   UNL     1       2.244   4.776  21.276  0.00  0.00    +0.000 NA
ATOM     18  C   UNL     1       2.475   5.634  20.519  0.00  0.00    +0.000 C 
ENDBRANCH   1  18
BRANCH   6  19
ATOM     19  O   UNL     1       4.817   5.708  18.548  0.00  0.00    +0.000 OA
BRANCH  19  20
ATOM     20  C   UNL     1       5.237   5.140  17.358  0.00  0.00    +0.000 A 
ATOM     21  C   UNL     1       6.384   5.593  16.693  0.00  0.00    +0.000 A 
ATOM     22  C   UNL     1       6.664   5.171  15.399  0.00  0.00    +0.000 A 
ATOM     23  C   UNL     1       5.864   4.206  14.804  0.00  0.00    +0.000 A 
ATOM     24 CL   UNL     1       6.173   3.712  13.190  0.00  0.00    +0.000 Cl
ATOM     25  C   UNL     1       4.813   3.631  15.519  0.00  0.00    +0.000 A 
ATOM     26  C   UNL     1       4.471   4.075  16.815  0.00  0.00    +0.000 A 
BRANCH  26  27
ATOM     27  C   UNL     1       3.349   3.413  17.541  0.00  0.00    +0.000 A 
ATOM     28  C   UNL     1       2.017   3.844  17.403  0.00  0.00    +0.000 A 
ATOM     29  C   UNL     1       0.967   3.228  18.090  0.00  0.00    +0.000 A 
ATOM     30  C   UNL     1       1.229   2.173  18.955  0.00  0.00    +0.000 A 
ATOM     31  C   UNL     1       2.536   1.738  19.136  0.00  0.00    +0.000 A 
ATOM     32  C   UNL     1       3.580   2.351  18.438  0.00  0.00    +0.000 A 
ENDBRANCH  26  27
ENDBRANCH  19  20
ENDBRANCH   6  19
TORSDOF 6
ENDMDL
MODEL 8
REMARK VINA RESULT:      -7.9      1.145      1.530
REMARK  Name = 
REMARK  6 active torsions:
REMARK  status: ('A' for Active; 'I' for Inactive)
REMARK    1  A    between atoms: C_2  and  C_3
REMARK    2  A    between atoms: C_5  and  S_6
REMARK    3  A    between atoms: S_6  and  N_9
REMARK    4  A    between atoms: C_17  and  O_18
REMARK    5  A    between atoms: O_18  and  C_19
REMARK    6  A    between atoms: C_25  and  C_26
REMARK                            x       y       z     vdW  Elec       q    Type
REMARK                         _______ _______ _______ _____ _____    ______ ____
ROOT
ATOM      1  C   UNL     1       1.021   8.643  20.420  0.00  0.00    +0.000 A 
ATOM      2  C   UNL     1       1.802   7.482  20.364  0.00  0.00    +0.000 A 
ATOM      3  C   UNL     1       2.519   7.148  19.213  0.00  0.00    +0.000 A 
ATOM      4  C   UNL     1       2.442   7.959  18.081  0.00  0.00    +0.000 A 
ATOM      5  C   UNL     1       1.711   9.155  18.152  0.00  0.00    +0.000 A 
ATOM      6  C   UNL     1       1.030   9.526  19.328  0.00  0.00    +0.000 A 
ENDROOT
BRANCH   3   7
ATOM      7  S   UNL     1       3.370   5.586  19.199  0.00  0.00    +0.000 S 
ATOM      8  O   UNL     1       4.785   5.875  19.359  0.00  0.00    +0.000 OA
ATOM      9  O   UNL     1       2.671   4.714  20.119  0.00  0.00    +0.000 OA
BRANCH   7  10
ATOM     10  N   UNL     1       3.184   5.086  17.586  0.00  0.00    +0.000 N 
ATOM     11  C   UNL     1       4.447   5.023  16.948  0.00  0.00    +0.000 A 
ATOM     12  N   UNL     1       4.896   6.031  16.239  0.00  0.00    +0.000 NA
ATOM     13  C   UNL     1       6.167   5.714  15.780  0.00  0.00    +0.000 A 
ATOM     14  C   UNL     1       6.595   4.431  16.053  0.00  0.00    +0.000 A 
ATOM     15  S   UNL     1       5.405   3.610  16.971  0.00  0.00    +0.000 S 
ATOM     16  H   UNL     1       2.602   5.789  17.127  0.00  0.00    +0.000 HD
ENDBRANCH   7  10
ENDBRANCH   3   7
BRANCH   1  18
ATOM     17  N   UNL     1      -0.434   9.001  22.539  0.00  0.00    +0.000 NA
ATOM     18  C   UNL     1       0.269   8.821  21.624  0.00  0.00    +0.000 C 
ENDBRANCH   1  18
BRANCH   6  19
ATOM     19  O   UNL     1       0.360  10.726  19.229  0.00  0.00    +0.000 OA
BRANCH  19  20
ATOM     20  C   UNL     1      -0.940  10.817  18.764  0.00  0.00    +0.000 A 
ATOM     21  C   UNL     1      -1.411   9.992  17.735  0.00  0.00    +0.000 A 
ATOM     22  C   UNL     1      -2.637  10.245  17.129  0.00  0.00    +0.000 A 
ATOM     23  C   UNL     1      -3.451  11.253  17.625  0.00  0.00    +0.000 A 
ATOM     24 CL   UNL     1      -4.944  11.605  16.856  0.00  0.00    +0.000 Cl
ATOM     25  C   UNL     1      -3.060  11.977  18.752  0.00  0.00    +0.000 A 
ATOM     26  C   UNL     1      -1.801  11.779  19.357  0.00  0.00    +0.000 A 
BRANCH  26  27
ATOM     27  C   UNL     1      -1.442  12.567  20.571  0.00  0.00    +0.000 A 
ATOM     28  C   UNL     1      -0.815  13.824  20.484  0.00  0.00    +0.000 A 
ATOM     29  C   UNL     1      -0.472  14.558  21.622  0.00  0.00    +0.000 A 
ATOM     30  C   UNL     1      -0.729  14.040  22.885  0.00  0.00    +0.000 A 
ATOM     31  C   UNL     1      -1.323  12.790  23.010  0.00  0.00    +0.000 A 
ATOM     32  C   UNL     1      -1.673  12.065  21.868  0.00  0.00    +0.000 A 
ENDBRANCH  26  27
ENDBRANCH  19  20
ENDBRANCH   6  19
TORSDOF 6
ENDMDL
MODEL 9
REMARK VINA RESULT:      -7.9      3.105      4.207
REMARK  Name = 
REMARK  6 active torsions:
REMARK  status: ('A' for Active; 'I' for Inactive)
REMARK    1  A    between atoms: C_2  and  C_3
REMARK    2  A    between atoms: C_5  and  S_6
REMARK    3  A    between atoms: S_6  and  N_9
REMARK    4  A    between atoms: C_17  and  O_18
REMARK    5  A    between atoms: O_18  and  C_19
REMARK    6  A    between atoms: C_25  and  C_26
REMARK                            x       y       z     vdW  Elec       q    Type
REMARK                         _______ _______ _______ _____ _____    ______ ____
ROOT
ATOM      1  C   UNL     1       1.132   9.291  20.558  0.00  0.00    +0.000 A 
ATOM      2  C   UNL     1       1.853   8.151  20.186  0.00  0.00    +0.000 A 
ATOM      3  C   UNL     1       2.179   7.904  18.851  0.00  0.00    +0.000 A 
ATOM      4  C   UNL     1       1.758   8.786  17.854  0.00  0.00    +0.000 A 
ATOM      5  C   UNL     1       1.089   9.961  18.227  0.00  0.00    +0.000 A 
ATOM      6  C   UNL     1       0.805  10.243  19.577  0.00  0.00    +0.000 A 
ENDROOT
BRANCH   3   7
ATOM      7  S   UNL     1       2.979   6.363  18.471  0.00  0.00    +0.000 S 
ATOM      8  O   UNL     1       1.950   5.462  17.980  0.00  0.00    +0.000 OA
ATOM      9  O   UNL     1       4.147   6.675  17.675  0.00  0.00    +0.000 OA
BRANCH   7  10
ATOM     10  N   UNL     1       3.398   5.782  20.013  0.00  0.00    +0.000 N 
ATOM     11  C   UNL     1       2.749   4.548  20.260  0.00  0.00    +0.000 A 
ATOM     12  N   UNL     1       1.612   4.502  20.912  0.00  0.00    +0.000 NA
ATOM     13  C   UNL     1       1.187   3.182  20.961  0.00  0.00    +0.000 A 
ATOM     14  C   UNL     1       2.069   2.253  20.451  0.00  0.00    +0.000 A 
ATOM     15  S   UNL     1       3.449   3.052  19.825  0.00  0.00    +0.000 S 
ATOM     16  H   UNL     1       3.077   6.480  20.685  0.00  0.00    +0.000 HD
ENDBRANCH   7  10
ENDBRANCH   3   7
BRANCH   1  18
ATOM     17  N   UNL     1       0.611   9.502  23.091  0.00  0.00    +0.000 NA
ATOM     18  C   UNL     1       0.788   9.379  21.944  0.00  0.00    +0.000 C 
ENDBRANCH   1  18
BRANCH   6  19
ATOM     19  O   UNL     1       0.141  11.435  19.771  0.00  0.00    +0.000 OA
BRANCH  19  20
ATOM     20  C   UNL     1       0.769  12.569  20.255  0.00  0.00    +0.000 A 
ATOM     21  C   UNL     1       2.021  12.976  19.775  0.00  0.00    +0.000 A 
ATOM     22  C   UNL     1       2.735  13.977  20.422  0.00  0.00    +0.000 A 
ATOM     23  C   UNL     1       2.154  14.658  21.482  0.00  0.00    +0.000 A 
ATOM     24 CL   UNL     1       3.045  15.864  22.318  0.00  0.00    +0.000 Cl
ATOM     25  C   UNL     1       0.844  14.369  21.865  0.00  0.00    +0.000 A 
ATOM     26  C   UNL     1       0.112  13.323  21.263  0.00  0.00    +0.000 A 
BRANCH  26  27
ATOM     27  C   UNL     1      -1.291  13.069  21.699  0.00  0.00    +0.000 A 
ATOM     28  C   UNL     1      -2.396  13.491  20.937  0.00  0.00    +0.000 A 
ATOM     29  C   UNL     1      -3.710  13.259  21.350  0.00  0.00    +0.000 A 
ATOM     30  C   UNL     1      -3.954  12.614  22.556  0.00  0.00    +0.000 A 
ATOM     31  C   UNL     1      -2.887  12.206  23.347  0.00  0.00    +0.000 A 
ATOM     32  C   UNL     1      -1.575  12.431  22.923  0.00  0.00    +0.000 A 
ENDBRANCH  26  27
ENDBRANCH  19  20
ENDBRANCH   6  19
TORSDOF 6
ENDMDL
