MODEL 1
REMARK VINA RESULT:      -7.2      0.000      0.000
REMARK  Name = 
REMARK  10 active torsions:
REMARK  status: ('A' for Active; 'I' for Inactive)
REMARK    1  A    between atoms: C_1  and  C_2
REMARK    2  A    between atoms: C_2  and  O_3
REMARK    3  A    between atoms: O_3  and  C_4
REMARK    4  A    between atoms: C_7  and  C_8
REMARK    5  A    between atoms: C_8  and  C_9
REMARK    6  A    between atoms: C_9  and  C_10
REMARK    7  A    between atoms: C_10  and  C_12
REMARK    8  A    between atoms: C_13  and  O_14
REMARK    9  A    between atoms: C_16  and  O_17
REMARK   10  A    between atoms: C_19  and  O_20
REMARK                            x       y       z     vdW  Elec       q    Type
REMARK                         _______ _______ _______ _____ _____    ______ ____
ROOT
ATOM      1  C   UNL     1       6.170   4.854  18.648  0.00  0.00    +0.000 C 
ATOM      2  O   UNL     1       6.548   5.340  19.716  0.00  0.00    +0.000 OA
ENDROOT
BRANCH   1   3
ATOM      3  C   UNL     1       4.740   4.423  18.537  0.00  0.00    +0.000 A 
ATOM      4  C   UNL     1       4.377   3.171  19.069  0.00  0.00    +0.000 A 
ATOM      5  C   UNL     1       3.075   2.681  18.951  0.00  0.00    +0.000 A 
ATOM      6  C   UNL     1       2.115   3.457  18.316  0.00  0.00    +0.000 A 
ATOM      7  C   UNL     1       2.433   4.709  17.806  0.00  0.00    +0.000 A 
ATOM      8  C   UNL     1       3.740   5.192  17.920  0.00  0.00    +0.000 A 
BRANCH   4   9
ATOM      9  O   UNL     1       5.260   2.351  19.726  0.00  0.00    +0.000 OA
ATOM     10  H   UNL     1       6.038   2.214  19.137  0.00  0.00    +0.000 HD
ENDBRANCH   4   9
BRANCH   6  11
ATOM     11  O   UNL     1       0.830   3.032  18.175  0.00  0.00    +0.000 OA
ATOM     12  H   UNL     1       0.821   2.245  17.605  0.00  0.00    +0.000 HD
ENDBRANCH   6  11
BRANCH   8  13
ATOM     13  O   UNL     1       3.992   6.447  17.442  0.00  0.00    +0.000 OA
ATOM     14  H   UNL     1       4.075   6.422  16.472  0.00  0.00    +0.000 HD
ENDBRANCH   8  13
ENDBRANCH   1   3
BRANCH   1  15
ATOM     15  C   UNL     1       7.122   4.565  17.507  0.00  0.00    +0.000 C 
BRANCH  15  16
ATOM     16  C   UNL     1       7.083   5.616  16.397  0.00  0.00    +0.000 C 
BRANCH  16  20
ATOM     17  C   UNL     1       5.985   3.760  12.646  0.00  0.00    +0.000 A 
ATOM     18  C   UNL     1       5.168   3.620  13.765  0.00  0.00    +0.000 A 
ATOM     19  C   UNL     1       5.506   4.243  14.965  0.00  0.00    +0.000 A 
ATOM     20  C   UNL     1       6.692   4.985  15.077  0.00  0.00    +0.000 A 
ATOM     21  C   UNL     1       7.517   5.107  13.954  0.00  0.00    +0.000 A 
ATOM     22  C   UNL     1       7.168   4.493  12.745  0.00  0.00    +0.000 A 
BRANCH  17  23
ATOM     23  O   UNL     1       5.535   3.128  11.521  0.00  0.00    +0.000 OA
BRANCH  23  25
ATOM     24  C   UNL     1       3.607   3.858  10.339  0.00  0.00    +0.000 C 
ATOM     25  C   UNL     1       4.124   2.943  11.434  0.00  0.00    +0.000 C 
ENDBRANCH  23  25
ENDBRANCH  17  23
ENDBRANCH  16  20
ENDBRANCH  15  16
ENDBRANCH   1  15
TORSDOF 9
ENDMDL
MODEL 2
REMARK VINA RESULT:      -6.8      3.589      6.465
REMARK  Name = 
REMARK  10 active torsions:
REMARK  status: ('A' for Active; 'I' for Inactive)
REMARK    1  A    between atoms: C_1  and  C_2
REMARK    2  A    between atoms: C_2  and  O_3
REMARK    3  A    between atoms: O_3  and  C_4
REMARK    4  A    between atoms: C_7  and  C_8
REMARK    5  A    between atoms: C_8  and  C_9
REMARK    6  A    between atoms: C_9  and  C_10
REMARK    7  A    between atoms: C_10  and  C_12
REMARK    8  A    between atoms: C_13  and  O_14
REMARK    9  A    between atoms: C_16  and  O_17
REMARK   10  A    between atoms: C_19  and  O_20
REMARK                            x       y       z     vdW  Elec       q    Type
REMARK                         _______ _______ _______ _____ _____    ______ ____
ROOT
ATOM      1  C   UNL     1       3.874   3.566  17.554  0.00  0.00    +0.000 C 
ATOM      2  O   UNL     1       4.408   2.652  16.923  0.00  0.00    +0.000 OA
ENDROOT
BRANCH   1   3
ATOM      3  C   UNL     1       3.171   3.222  18.832  0.00  0.00    +0.000 A 
ATOM      4  C   UNL     1       1.772   3.376  18.886  0.00  0.00    +0.000 A 
ATOM      5  C   UNL     1       1.059   3.129  20.060  0.00  0.00    +0.000 A 
ATOM      6  C   UNL     1       1.742   2.699  21.190  0.00  0.00    +0.000 A 
ATOM      7  C   UNL     1       3.117   2.510  21.161  0.00  0.00    +0.000 A 
ATOM      8  C   UNL     1       3.828   2.766  19.986  0.00  0.00    +0.000 A 
BRANCH   4   9
ATOM      9  O   UNL     1       1.020   3.779  17.811  0.00  0.00    +0.000 OA
ATOM     10  H   UNL     1       1.607   3.790  17.020  0.00  0.00    +0.000 HD
ENDBRANCH   4   9
BRANCH   6  11
ATOM     11  O   UNL     1       1.099   2.440  22.360  0.00  0.00    +0.000 OA
ATOM     12  H   UNL     1       0.448   3.144  22.522  0.00  0.00    +0.000 HD
ENDBRANCH   6  11
BRANCH   8  13
ATOM     13  O   UNL     1       5.173   2.522  19.995  0.00  0.00    +0.000 OA
ATOM     14  H   UNL     1       5.648   3.267  19.586  0.00  0.00    +0.000 HD
ENDBRANCH   8  13
ENDBRANCH   1   3
BRANCH   1  15
ATOM     15  C   UNL     1       3.796   4.981  17.024  0.00  0.00    +0.000 C 
BRANCH  15  16
ATOM     16  C   UNL     1       4.386   6.024  17.973  0.00  0.00    +0.000 C 
BRANCH  16  20
ATOM     17  C   UNL     1       1.366   8.795  19.357  0.00  0.00    +0.000 A 
ATOM     18  C   UNL     1       1.997   8.998  18.133  0.00  0.00    +0.000 A 
ATOM     19  C   UNL     1       2.948   8.088  17.672  0.00  0.00    +0.000 A 
ATOM     20  C   UNL     1       3.314   6.980  18.451  0.00  0.00    +0.000 A 
ATOM     21  C   UNL     1       2.688   6.792  19.688  0.00  0.00    +0.000 A 
ATOM     22  C   UNL     1       1.722   7.698  20.142  0.00  0.00    +0.000 A 
BRANCH  17  23
ATOM     23  O   UNL     1       0.432   9.736  19.687  0.00  0.00    +0.000 OA
BRANCH  23  25
ATOM     24  C   UNL     1      -1.442  10.293  18.336  0.00  0.00    +0.000 C 
ATOM     25  C   UNL     1       0.016  10.597  18.629  0.00  0.00    +0.000 C 
ENDBRANCH  23  25
ENDBRANCH  17  23
ENDBRANCH  16  20
ENDBRANCH  15  16
ENDBRANCH   1  15
TORSDOF 9
ENDMDL
MODEL 3
REMARK VINA RESULT:      -6.7      3.582      7.010
REMARK  Name = 
REMARK  10 active torsions:
REMARK  status: ('A' for Active; 'I' for Inactive)
REMARK    1  A    between atoms: C_1  and  C_2
REMARK    2  A    between atoms: C_2  and  O_3
REMARK    3  A    between atoms: O_3  and  C_4
REMARK    4  A    between atoms: C_7  and  C_8
REMARK    5  A    between atoms: C_8  and  C_9
REMARK    6  A    between atoms: C_9  and  C_10
REMARK    7  A    between atoms: C_10  and  C_12
REMARK    8  A    between atoms: C_13  and  O_14
REMARK    9  A    between atoms: C_16  and  O_17
REMARK   10  A    between atoms: C_19  and  O_20
REMARK                            x       y       z     vdW  Elec       q    Type
REMARK                         _______ _______ _______ _____ _____    ______ ____
ROOT
ATOM      1  C   UNL     1       4.026   4.552  17.474  0.00  0.00    +0.000 C 
ATOM      2  O   UNL     1       4.122   3.934  16.412  0.00  0.00    +0.000 OA
ENDROOT
BRANCH   1   3
ATOM      3  C   UNL     1       3.254   3.918  18.590  0.00  0.00    +0.000 A 
ATOM      4  C   UNL     1       1.847   3.950  18.531  0.00  0.00    +0.000 A 
ATOM      5  C   UNL     1       1.065   3.429  19.563  0.00  0.00    +0.000 A 
ATOM      6  C   UNL     1       1.688   2.846  20.658  0.00  0.00    +0.000 A 
ATOM      7  C   UNL     1       3.073   2.772  20.733  0.00  0.00    +0.000 A 
ATOM      8  C   UNL     1       3.853   3.301  19.701  0.00  0.00    +0.000 A 
BRANCH   4   9
ATOM      9  O   UNL     1       1.154   4.492  17.478  0.00  0.00    +0.000 OA
ATOM     10  H   UNL     1       1.788   4.626  16.737  0.00  0.00    +0.000 HD
ENDBRANCH   4   9
BRANCH   6  11
ATOM     11  O   UNL     1       0.977   2.320  21.691  0.00  0.00    +0.000 OA
ATOM     12  H   UNL     1       1.134   2.856  22.485  0.00  0.00    +0.000 HD
ENDBRANCH   6  11
BRANCH   8  13
ATOM     13  O   UNL     1       5.208   3.164  19.801  0.00  0.00    +0.000 OA
ATOM     14  H   UNL     1       5.472   2.268  19.525  0.00  0.00    +0.000 HD
ENDBRANCH   8  13
ENDBRANCH   1   3
BRANCH   1  15
ATOM     15  C   UNL     1       4.547   5.963  17.643  0.00  0.00    +0.000 C 
BRANCH  15  16
ATOM     16  C   UNL     1       3.654   7.025  17.003  0.00  0.00    +0.000 C 
BRANCH  16  20
ATOM     17  C   UNL     1       1.198   8.957  19.995  0.00  0.00    +0.000 A 
ATOM     18  C   UNL     1       1.319   9.510  18.722  0.00  0.00    +0.000 A 
ATOM     19  C   UNL     1       2.086   8.870  17.748  0.00  0.00    +0.000 A 
ATOM     20  C   UNL     1       2.779   7.687  18.046  0.00  0.00    +0.000 A 
ATOM     21  C   UNL     1       2.666   7.148  19.332  0.00  0.00    +0.000 A 
ATOM     22  C   UNL     1       1.883   7.783  20.304  0.00  0.00    +0.000 A 
BRANCH  17  23
ATOM     23  O   UNL     1       0.397   9.657  20.853  0.00  0.00    +0.000 OA
BRANCH  23  25
ATOM     24  C   UNL     1      -0.555   9.822  23.024  0.00  0.00    +0.000 C 
ATOM     25  C   UNL     1      -0.252   8.890  21.865  0.00  0.00    +0.000 C 
ENDBRANCH  23  25
ENDBRANCH  17  23
ENDBRANCH  16  20
ENDBRANCH  15  16
ENDBRANCH   1  15
TORSDOF 9
ENDMDL
MODEL 4
REMARK VINA RESULT:      -6.7      1.321      2.250
REMARK  Name = 
REMARK  10 active torsions:
REMARK  status: ('A' for Active; 'I' for Inactive)
REMARK    1  A    between atoms: C_1  and  C_2
REMARK    2  A    between atoms: C_2  and  O_3
REMARK    3  A    between atoms: O_3  and  C_4
REMARK    4  A    between atoms: C_7  and  C_8
REMARK    5  A    between atoms: C_8  and  C_9
REMARK    6  A    between atoms: C_9  and  C_10
REMARK    7  A    between atoms: C_10  and  C_12
REMARK    8  A    between atoms: C_13  and  O_14
REMARK    9  A    between atoms: C_16  and  O_17
REMARK   10  A    between atoms: C_19  and  O_20
REMARK                            x       y       z     vdW  Elec       q    Type
REMARK                         _______ _______ _______ _____ _____    ______ ____
ROOT
ATOM      1  C   UNL     1       5.173   5.107  19.049  0.00  0.00    +0.000 C 
ATOM      2  O   UNL     1       6.051   4.849  19.875  0.00  0.00    +0.000 OA
ENDROOT
BRANCH   1   3
ATOM      3  C   UNL     1       3.834   4.456  19.219  0.00  0.00    +0.000 A 
ATOM      4  C   UNL     1       2.789   5.216  19.780  0.00  0.00    +0.000 A 
ATOM      5  C   UNL     1       1.533   4.657  20.020  0.00  0.00    +0.000 A 
ATOM      6  C   UNL     1       1.303   3.333  19.674  0.00  0.00    +0.000 A 
ATOM      7  C   UNL     1       2.303   2.565  19.092  0.00  0.00    +0.000 A 
ATOM      8  C   UNL     1       3.562   3.126  18.861  0.00  0.00    +0.000 A 
BRANCH   4   9
ATOM      9  O   UNL     1       2.928   6.535  20.134  0.00  0.00    +0.000 OA
ATOM     10  H   UNL     1       2.545   6.647  21.034  0.00  0.00    +0.000 HD
ENDBRANCH   4   9
BRANCH   6  11
ATOM     11  O   UNL     1       0.098   2.737  19.881  0.00  0.00    +0.000 OA
ATOM     12  H   UNL     1      -0.163   2.267  19.071  0.00  0.00    +0.000 HD
ENDBRANCH   6  11
BRANCH   8  13
ATOM     13  O   UNL     1       4.498   2.344  18.245  0.00  0.00    +0.000 OA
ATOM     14  H   UNL     1       4.070   1.565  17.848  0.00  0.00    +0.000 HD
ENDBRANCH   8  13
ENDBRANCH   1   3
BRANCH   1  15
ATOM     15  C   UNL     1       5.437   5.945  17.817  0.00  0.00    +0.000 C 
BRANCH  15  16
ATOM     16  C   UNL     1       6.801   5.681  17.179  0.00  0.00    +0.000 C 
BRANCH  16  20
ATOM     17  C   UNL     1       6.312   3.980  13.231  0.00  0.00    +0.000 A 
ATOM     18  C   UNL     1       7.379   4.833  13.501  0.00  0.00    +0.000 A 
ATOM     19  C   UNL     1       7.554   5.357  14.781  0.00  0.00    +0.000 A 
ATOM     20  C   UNL     1       6.638   5.067  15.805  0.00  0.00    +0.000 A 
ATOM     21  C   UNL     1       5.559   4.223  15.521  0.00  0.00    +0.000 A 
ATOM     22  C   UNL     1       5.394   3.686  14.238  0.00  0.00    +0.000 A 
BRANCH  17  23
ATOM     23  O   UNL     1       6.262   3.507  11.950  0.00  0.00    +0.000 OA
BRANCH  23  25
ATOM     24  C   UNL     1       4.064   3.149  11.120  0.00  0.00    +0.000 C 
ATOM     25  C   UNL     1       5.299   2.485  11.701  0.00  0.00    +0.000 C 
ENDBRANCH  23  25
ENDBRANCH  17  23
ENDBRANCH  16  20
ENDBRANCH  15  16
ENDBRANCH   1  15
TORSDOF 9
ENDMDL
MODEL 5
REMARK VINA RESULT:      -6.7      3.778      7.033
REMARK  Name = 
REMARK  10 active torsions:
REMARK  status: ('A' for Active; 'I' for Inactive)
REMARK    1  A    between atoms: C_1  and  C_2
REMARK    2  A    between atoms: C_2  and  O_3
REMARK    3  A    between atoms: O_3  and  C_4
REMARK    4  A    between atoms: C_7  and  C_8
REMARK    5  A    between atoms: C_8  and  C_9
REMARK    6  A    between atoms: C_9  and  C_10
REMARK    7  A    between atoms: C_10  and  C_12
REMARK    8  A    between atoms: C_13  and  O_14
REMARK    9  A    between atoms: C_16  and  O_17
REMARK   10  A    between atoms: C_19  and  O_20
REMARK                            x       y       z     vdW  Elec       q    Type
REMARK                         _______ _______ _______ _____ _____    ______ ____
ROOT
ATOM      1  C   UNL     1       3.866   4.295  17.839  0.00  0.00    +0.000 C 
ATOM      2  O   UNL     1       3.806   3.704  16.759  0.00  0.00    +0.000 OA
ENDROOT
BRANCH   1   3
ATOM      3  C   UNL     1       3.188   3.674  19.021  0.00  0.00    +0.000 A 
ATOM      4  C   UNL     1       1.789   3.796  19.129  0.00  0.00    +0.000 A 
ATOM      5  C   UNL     1       1.099   3.290  20.232  0.00  0.00    +0.000 A 
ATOM      6  C   UNL     1       1.806   2.633  21.230  0.00  0.00    +0.000 A 
ATOM      7  C   UNL     1       3.181   2.470  21.139  0.00  0.00    +0.000 A 
ATOM      8  C   UNL     1       3.869   2.984  20.037  0.00  0.00    +0.000 A 
BRANCH   4   9
ATOM      9  O   UNL     1       1.015   4.415  18.180  0.00  0.00    +0.000 OA
ATOM     10  H   UNL     1       1.239   4.021  17.305  0.00  0.00    +0.000 HD
ENDBRANCH   4   9
BRANCH   6  11
ATOM     11  O   UNL     1       1.185   2.117  22.326  0.00  0.00    +0.000 OA
ATOM     12  H   UNL     1       1.758   1.437  22.719  0.00  0.00    +0.000 HD
ENDBRANCH   6  11
BRANCH   8  13
ATOM     13  O   UNL     1       5.216   2.759  19.972  0.00  0.00    +0.000 OA
ATOM     14  H   UNL     1       5.438   2.320  19.132  0.00  0.00    +0.000 HD
ENDBRANCH   8  13
ENDBRANCH   1   3
BRANCH   1  15
ATOM     15  C   UNL     1       4.483   5.671  17.977  0.00  0.00    +0.000 C 
BRANCH  15  16
ATOM     16  C   UNL     1       3.728   6.759  17.215  0.00  0.00    +0.000 C 
BRANCH  16  20
ATOM     17  C   UNL     1       1.184   9.013  19.892  0.00  0.00    +0.000 A 
ATOM     18  C   UNL     1       1.825   7.860  20.337  0.00  0.00    +0.000 A 
ATOM     19  C   UNL     1       2.670   7.151  19.484  0.00  0.00    +0.000 A 
ATOM     20  C   UNL     1       2.854   7.562  18.154  0.00  0.00    +0.000 A 
ATOM     21  C   UNL     1       2.192   8.712  17.709  0.00  0.00    +0.000 A 
ATOM     22  C   UNL     1       1.356   9.431  18.572  0.00  0.00    +0.000 A 
BRANCH  17  23
ATOM     23  O   UNL     1       0.407   9.637  20.826  0.00  0.00    +0.000 OA
BRANCH  23  25
ATOM     24  C   UNL     1      -0.495   9.896  23.010  0.00  0.00    +0.000 C 
ATOM     25  C   UNL     1       0.416   9.059  22.130  0.00  0.00    +0.000 C 
ENDBRANCH  23  25
ENDBRANCH  17  23
ENDBRANCH  16  20
ENDBRANCH  15  16
ENDBRANCH   1  15
TORSDOF 9
ENDMDL
MODEL 6
REMARK VINA RESULT:      -6.7      1.222      1.860
REMARK  Name = 
REMARK  10 active torsions:
REMARK  status: ('A' for Active; 'I' for Inactive)
REMARK    1  A    between atoms: C_1  and  C_2
REMARK    2  A    between atoms: C_2  and  O_3
REMARK    3  A    between atoms: O_3  and  C_4
REMARK    4  A    between atoms: C_7  and  C_8
REMARK    5  A    between atoms: C_8  and  C_9
REMARK    6  A    between atoms: C_9  and  C_10
REMARK    7  A    between atoms: C_10  and  C_12
REMARK    8  A    between atoms: C_13  and  O_14
REMARK    9  A    between atoms: C_16  and  O_17
REMARK   10  A    between atoms: C_19  and  O_20
REMARK                            x       y       z     vdW  Elec       q    Type
REMARK                         _______ _______ _______ _____ _____    ______ ____
ROOT
ATOM      1  C   UNL     1       5.232   4.810  18.720  0.00  0.00    +0.000 C 
ATOM      2  O   UNL     1       6.163   4.357  19.389  0.00  0.00    +0.000 OA
ENDROOT
BRANCH   1   3
ATOM      3  C   UNL     1       3.868   4.227  18.926  0.00  0.00    +0.000 A 
ATOM      4  C   UNL     1       2.910   4.996  19.614  0.00  0.00    +0.000 A 
ATOM      5  C   UNL     1       1.637   4.493  19.891  0.00  0.00    +0.000 A 
ATOM      6  C   UNL     1       1.304   3.218  19.456  0.00  0.00    +0.000 A 
ATOM      7  C   UNL     1       2.215   2.445  18.749  0.00  0.00    +0.000 A 
ATOM      8  C   UNL     1       3.491   2.949  18.481  0.00  0.00    +0.000 A 
BRANCH   4   9
ATOM      9  O   UNL     1       3.153   6.271  20.062  0.00  0.00    +0.000 OA
ATOM     10  H   UNL     1       2.287   6.733  20.139  0.00  0.00    +0.000 HD
ENDBRANCH   4   9
BRANCH   6  11
ATOM     11  O   UNL     1       0.078   2.678  19.694  0.00  0.00    +0.000 OA
ATOM     12  H   UNL     1       0.139   2.091  20.466  0.00  0.00    +0.000 HD
ENDBRANCH   6  11
BRANCH   8  13
ATOM     13  O   UNL     1       4.336   2.169  17.744  0.00  0.00    +0.000 OA
ATOM     14  H   UNL     1       3.824   1.619  17.125  0.00  0.00    +0.000 HD
ENDBRANCH   8  13
ENDBRANCH   1   3
BRANCH   1  15
ATOM     15  C   UNL     1       5.443   5.832  17.623  0.00  0.00    +0.000 C 
BRANCH  15  16
ATOM     16  C   UNL     1       6.756   5.651  16.862  0.00  0.00    +0.000 C 
BRANCH  16  20
ATOM     17  C   UNL     1       6.045   3.923  12.960  0.00  0.00    +0.000 A 
ATOM     18  C   UNL     1       5.095   3.792  13.970  0.00  0.00    +0.000 A 
ATOM     19  C   UNL     1       5.310   4.376  15.217  0.00  0.00    +0.000 A 
ATOM     20  C   UNL     1       6.502   5.066  15.489  0.00  0.00    +0.000 A 
ATOM     21  C   UNL     1       7.459   5.178  14.475  0.00  0.00    +0.000 A 
ATOM     22  C   UNL     1       7.234   4.605  13.218  0.00  0.00    +0.000 A 
BRANCH  17  23
ATOM     23  O   UNL     1       5.709   3.335  11.773  0.00  0.00    +0.000 OA
BRANCH  23  25
ATOM     24  C   UNL     1       3.768   3.806  10.485  0.00  0.00    +0.000 C 
ATOM     25  C   UNL     1       4.337   2.977  11.622  0.00  0.00    +0.000 C 
ENDBRANCH  23  25
ENDBRANCH  17  23
ENDBRANCH  16  20
ENDBRANCH  15  16
ENDBRANCH   1  15
TORSDOF 9
ENDMDL
MODEL 7
REMARK VINA RESULT:      -6.7      3.836      7.199
REMARK  Name = 
REMARK  10 active torsions:
REMARK  status: ('A' for Active; 'I' for Inactive)
REMARK    1  A    between atoms: C_1  and  C_2
REMARK    2  A    between atoms: C_2  and  O_3
REMARK    3  A    between atoms: O_3  and  C_4
REMARK    4  A    between atoms: C_7  and  C_8
REMARK    5  A    between atoms: C_8  and  C_9
REMARK    6  A    between atoms: C_9  and  C_10
REMARK    7  A    between atoms: C_10  and  C_12
REMARK    8  A    between atoms: C_13  and  O_14
REMARK    9  A    between atoms: C_16  and  O_17
REMARK   10  A    between atoms: C_19  and  O_20
REMARK                            x       y       z     vdW  Elec       q    Type
REMARK                         _______ _______ _______ _____ _____    ______ ____
ROOT
ATOM      1  C   UNL     1       4.001   4.637  17.329  0.00  0.00    +0.000 C 
ATOM      2  O   UNL     1       4.103   3.560  16.737  0.00  0.00    +0.000 OA
ENDROOT
BRANCH   1   3
ATOM      3  C   UNL     1       5.259   5.373  17.674  0.00  0.00    +0.000 A 
ATOM      4  C   UNL     1       6.037   4.899  18.748  0.00  0.00    +0.000 A 
ATOM      5  C   UNL     1       7.190   5.568  19.160  0.00  0.00    +0.000 A 
ATOM      6  C   UNL     1       7.590   6.711  18.481  0.00  0.00    +0.000 A 
ATOM      7  C   UNL     1       6.861   7.187  17.399  0.00  0.00    +0.000 A 
ATOM      8  C   UNL     1       5.703   6.519  16.994  0.00  0.00    +0.000 A 
BRANCH   4   9
ATOM      9  O   UNL     1       5.721   3.769  19.460  0.00  0.00    +0.000 OA
ATOM     10  H   UNL     1       6.430   3.105  19.301  0.00  0.00    +0.000 HD
ENDBRANCH   4   9
BRANCH   6  11
ATOM     11  O   UNL     1       8.707   7.401  18.836  0.00  0.00    +0.000 OA
ATOM     12  H   UNL     1       9.326   7.404  18.087  0.00  0.00    +0.000 HD
ENDBRANCH   6  11
BRANCH   8  13
ATOM     13  O   UNL     1       5.046   7.002  15.898  0.00  0.00    +0.000 OA
ATOM     14  H   UNL     1       4.529   6.289  15.481  0.00  0.00    +0.000 HD
ENDBRANCH   8  13
ENDBRANCH   1   3
BRANCH   1  15
ATOM     15  C   UNL     1       2.672   5.168  17.824  0.00  0.00    +0.000 C 
BRANCH  15  16
ATOM     16  C   UNL     1       2.756   5.846  19.191  0.00  0.00    +0.000 C 
BRANCH  16  20
ATOM     17  C   UNL     1       1.193   9.875  18.975  0.00  0.00    +0.000 A 
ATOM     18  C   UNL     1       1.118   9.155  20.166  0.00  0.00    +0.000 A 
ATOM     19  C   UNL     1       1.650   7.869  20.244  0.00  0.00    +0.000 A 
ATOM     20  C   UNL     1       2.229   7.264  19.117  0.00  0.00    +0.000 A 
ATOM     21  C   UNL     1       2.284   7.987  17.921  0.00  0.00    +0.000 A 
ATOM     22  C   UNL     1       1.764   9.285  17.848  0.00  0.00    +0.000 A 
BRANCH  17  23
ATOM     23  O   UNL     1       0.665  11.134  19.030  0.00  0.00    +0.000 OA
BRANCH  23  25
ATOM     24  C   UNL     1       0.837  13.455  18.547  0.00  0.00    +0.000 C 
ATOM     25  C   UNL     1       1.602  12.206  18.944  0.00  0.00    +0.000 C 
ENDBRANCH  23  25
ENDBRANCH  17  23
ENDBRANCH  16  20
ENDBRANCH  15  16
ENDBRANCH   1  15
TORSDOF 9
ENDMDL
MODEL 8
REMARK VINA RESULT:      -6.6      3.584      6.471
REMARK  Name = 
REMARK  10 active torsions:
REMARK  status: ('A' for Active; 'I' for Inactive)
REMARK    1  A    between atoms: C_1  and  C_2
REMARK    2  A    between atoms: C_2  and  O_3
REMARK    3  A    between atoms: O_3  and  C_4
REMARK    4  A    between atoms: C_7  and  C_8
REMARK    5  A    between atoms: C_8  and  C_9
REMARK    6  A    between atoms: C_9  and  C_10
REMARK    7  A    between atoms: C_10  and  C_12
REMARK    8  A    between atoms: C_13  and  O_14
REMARK    9  A    between atoms: C_16  and  O_17
REMARK   10  A    between atoms: C_19  and  O_20
REMARK                            x       y       z     vdW  Elec       q    Type
REMARK                         _______ _______ _______ _____ _____    ______ ____
ROOT
ATOM      1  C   UNL     1       3.844   3.408  17.601  0.00  0.00    +0.000 C 
ATOM      2  O   UNL     1       4.264   2.440  16.962  0.00  0.00    +0.000 OA
ENDROOT
BRANCH   1   3
ATOM      3  C   UNL     1       3.103   3.142  18.875  0.00  0.00    +0.000 A 
ATOM      4  C   UNL     1       1.713   3.369  18.898  0.00  0.00    +0.000 A 
ATOM      5  C   UNL     1       0.969   3.198  20.066  0.00  0.00    +0.000 A 
ATOM      6  C   UNL     1       1.609   2.770  21.221  0.00  0.00    +0.000 A 
ATOM      7  C   UNL     1       2.973   2.509  21.224  0.00  0.00    +0.000 A 
ATOM      8  C   UNL     1       3.716   2.690  20.054  0.00  0.00    +0.000 A 
BRANCH   4   9
ATOM      9  O   UNL     1       1.001   3.776  17.797  0.00  0.00    +0.000 OA
ATOM     10  H   UNL     1       0.201   4.255  18.116  0.00  0.00    +0.000 HD
ENDBRANCH   4   9
BRANCH   6  11
ATOM     11  O   UNL     1       0.934   2.582  22.387  0.00  0.00    +0.000 OA
ATOM     12  H   UNL     1       1.443   2.983  23.112  0.00  0.00    +0.000 HD
ENDBRANCH   6  11
BRANCH   8  13
ATOM     13  O   UNL     1       5.045   2.377  20.096  0.00  0.00    +0.000 OA
ATOM     14  H   UNL     1       5.510   2.805  19.355  0.00  0.00    +0.000 HD
ENDBRANCH   8  13
ENDBRANCH   1   3
BRANCH   1  15
ATOM     15  C   UNL     1       3.939   4.826  17.081  0.00  0.00    +0.000 C 
BRANCH  15  16
ATOM     16  C   UNL     1       4.490   5.817  18.106  0.00  0.00    +0.000 C 
BRANCH  16  20
ATOM     17  C   UNL     1       1.470   8.756  19.087  0.00  0.00    +0.000 A 
ATOM     18  C   UNL     1       1.746   7.712  19.967  0.00  0.00    +0.000 A 
ATOM     19  C   UNL     1       2.741   6.783  19.665  0.00  0.00    +0.000 A 
ATOM     20  C   UNL     1       3.449   6.859  18.455  0.00  0.00    +0.000 A 
ATOM     21  C   UNL     1       3.153   7.901  17.569  0.00  0.00    +0.000 A 
ATOM     22  C   UNL     1       2.164   8.842  17.881  0.00  0.00    +0.000 A 
BRANCH  17  23
ATOM     23  O   UNL     1       0.496   9.619  19.505  0.00  0.00    +0.000 OA
BRANCH  23  25
ATOM     24  C   UNL     1       0.257  11.901  18.886  0.00  0.00    +0.000 C 
ATOM     25  C   UNL     1       0.933  10.934  19.841  0.00  0.00    +0.000 C 
ENDBRANCH  23  25
ENDBRANCH  17  23
ENDBRANCH  16  20
ENDBRANCH  15  16
ENDBRANCH   1  15
TORSDOF 9
ENDMDL
MODEL 9
REMARK VINA RESULT:      -6.6      2.869      6.821
REMARK  Name = 
REMARK  10 active torsions:
REMARK  status: ('A' for Active; 'I' for Inactive)
REMARK    1  A    between atoms: C_1  and  C_2
REMARK    2  A    between atoms: C_2  and  O_3
REMARK    3  A    between atoms: O_3  and  C_4
REMARK    4  A    between atoms: C_7  and  C_8
REMARK    5  A    between atoms: C_8  and  C_9
REMARK    6  A    between atoms: C_9  and  C_10
REMARK    7  A    between atoms: C_10  and  C_12
REMARK    8  A    between atoms: C_13  and  O_14
REMARK    9  A    between atoms: C_16  and  O_17
REMARK   10  A    between atoms: C_19  and  O_20
REMARK                            x       y       z     vdW  Elec       q    Type
REMARK                         _______ _______ _______ _____ _____    ______ ____
ROOT
ATOM      1  C   UNL     1       4.489   3.139  18.327  0.00  0.00    +0.000 C 
ATOM      2  O   UNL     1       4.703   2.618  19.424  0.00  0.00    +0.000 OA
ENDROOT
BRANCH   1   3
ATOM      3  C   UNL     1       5.438   4.196  17.852  0.00  0.00    +0.000 A 
ATOM      4  C   UNL     1       5.678   5.302  18.689  0.00  0.00    +0.000 A 
ATOM      5  C   UNL     1       6.506   6.351  18.286  0.00  0.00    +0.000 A 
ATOM      6  C   UNL     1       7.124   6.289  17.045  0.00  0.00    +0.000 A 
ATOM      7  C   UNL     1       6.931   5.198  16.208  0.00  0.00    +0.000 A 
ATOM      8  C   UNL     1       6.095   4.153  16.611  0.00  0.00    +0.000 A 
BRANCH   4   9
ATOM      9  O   UNL     1       5.121   5.433  19.937  0.00  0.00    +0.000 OA
ATOM     10  H   UNL     1       5.691   6.044  20.458  0.00  0.00    +0.000 HD
ENDBRANCH   4   9
BRANCH   6  11
ATOM     11  O   UNL     1       7.943   7.280  16.602  0.00  0.00    +0.000 OA
ATOM     12  H   UNL     1       7.918   8.015  17.237  0.00  0.00    +0.000 HD
ENDBRANCH   6  11
BRANCH   8  13
ATOM     13  O   UNL     1       5.973   3.082  15.772  0.00  0.00    +0.000 OA
ATOM     14  H   UNL     1       6.674   3.109  15.096  0.00  0.00    +0.000 HD
ENDBRANCH   8  13
ENDBRANCH   1   3
BRANCH   1  15
ATOM     15  C   UNL     1       3.247   2.840  17.515  0.00  0.00    +0.000 C 
BRANCH  15  16
ATOM     16  C   UNL     1       1.945   3.134  18.260  0.00  0.00    +0.000 C 
BRANCH  16  20
ATOM     17  C   UNL     1       1.930   7.139  19.896  0.00  0.00    +0.000 A 
ATOM     18  C   UNL     1       1.683   6.043  20.719  0.00  0.00    +0.000 A 
ATOM     19  C   UNL     1       1.719   4.751  20.198  0.00  0.00    +0.000 A 
ATOM     20  C   UNL     1       1.961   4.535  18.833  0.00  0.00    +0.000 A 
ATOM     21  C   UNL     1       2.190   5.643  18.008  0.00  0.00    +0.000 A 
ATOM     22  C   UNL     1       2.169   6.939  18.536  0.00  0.00    +0.000 A 
BRANCH  17  23
ATOM     23  O   UNL     1       1.897   8.351  20.525  0.00  0.00    +0.000 OA
BRANCH  23  25
ATOM     24  C   UNL     1      -0.052   9.688  20.779  0.00  0.00    +0.000 C 
ATOM     25  C   UNL     1       0.782   8.575  21.387  0.00  0.00    +0.000 C 
ENDBRANCH  23  25
ENDBRANCH  17  23
ENDBRANCH  16  20
ENDBRANCH  15  16
ENDBRANCH   1  15
TORSDOF 9
ENDMDL
