MODEL 1
REMARK VINA RESULT:      -8.7      0.000      0.000
REMARK  Name = 
REMARK  7 active torsions:
REMARK  status: ('A' for Active; 'I' for Inactive)
REMARK    1  A    between atoms: C_4  and  N_5
REMARK    2  A    between atoms: N_5  and  C_6
REMARK    3  A    between atoms: C_6  and  C_7
REMARK    4  A    between atoms: C_7  and  C_8
REMARK    5  A    between atoms: C_8  and  N_9
REMARK    6  A    between atoms: N_9  and  C_10
REMARK    7  A    between atoms: C_10  and  C_11
REMARK                            x       y       z     vdW  Elec       q    Type
REMARK                         _______ _______ _______ _____ _____    ______ ____
ROOT
ATOM      1  C   UNL     1       0.987   3.463  19.919  0.00  0.00    +0.000 C 
ENDROOT
BRANCH   1   2
ATOM      2  C   UNL     1       2.144   3.672  20.911  0.00  0.00    +0.000 C 
BRANCH   2   3
ATOM      3  N   UNL     1       2.212   5.055  21.361  0.00  0.00    +0.000 N 
ATOM      4  H   UNL     1       2.151   5.223  22.375  0.00  0.00    +0.000 HD
BRANCH   3   8
ATOM      5  O   UNL     1       3.311   7.296  17.334  0.00  0.00    +0.000 OA
ATOM      6  C   UNL     1       2.748   7.317  18.416  0.00  0.00    +0.000 A 
ATOM      7  C   UNL     1       2.833   6.199  19.249  0.00  0.00    +0.000 A 
ATOM      8  C   UNL     1       2.181   6.196  20.496  0.00  0.00    +0.000 A 
ATOM      9  N   UNL     1       1.472   7.303  20.877  0.00  0.00    +0.000 N 
ATOM     10  C   UNL     1       1.378   8.417  20.088  0.00  0.00    +0.000 A 
ATOM     11  C   UNL     1       0.643   9.537  20.516  0.00  0.00    +0.000 A 
ATOM     12  C   UNL     1       0.548  10.671  19.703  0.00  0.00    +0.000 A 
ATOM     13  C   UNL     1       1.178  10.698  18.458  0.00  0.00    +0.000 A 
ATOM     14  C   UNL     1       1.908   9.593  18.017  0.00  0.00    +0.000 A 
ATOM     15  C   UNL     1       2.017   8.444  18.826  0.00  0.00    +0.000 A 
ATOM     16  H   UNL     1       0.985   7.295  21.803  0.00  0.00    +0.000 HD
ENDBRANCH   3   8
ENDBRANCH   2   3
ENDBRANCH   1   2
BRANCH   1  17
ATOM     17  C   UNL     1       1.076   2.086  19.229  0.00  0.00    +0.000 C 
BRANCH  17  18
ATOM     18  N   UNL     1       2.010   2.142  18.095  0.00  0.00    +0.000 NA
ATOM     19  H   UNL     1       2.045   3.128  17.741  0.00  0.00    +0.000 HD
BRANCH  18  20
ATOM     20  C   UNL     1       3.369   1.745  18.490  0.00  0.00    +0.000 C 
BRANCH  20  21
ATOM     21  C   UNL     1       4.327   2.862  18.188  0.00  0.00    +0.000 A 
ATOM     22  C   UNL     1       4.501   3.452  16.939  0.00  0.00    +0.000 A 
ATOM     23  C   UNL     1       5.432   4.452  17.133  0.00  0.00    +0.000 A 
ATOM     24  C   UNL     1       5.977   5.381  16.245  0.00  0.00    +0.000 A 
ATOM     25 CL   UNL     1       5.518   5.412  14.551  0.00  0.00    +0.000 Cl
ATOM     26  C   UNL     1       6.904   6.310  16.753  0.00  0.00    +0.000 A 
ATOM     27  C   UNL     1       7.267   6.287  18.119  0.00  0.00    +0.000 A 
ATOM     28 CL   UNL     1       8.413   7.465  18.734  0.00  0.00    +0.000 Cl
ATOM     29  C   UNL     1       6.709   5.329  18.988  0.00  0.00    +0.000 A 
ATOM     30  C   UNL     1       5.789   4.426  18.457  0.00  0.00    +0.000 A 
ATOM     31  N   UNL     1       5.127   3.452  19.109  0.00  0.00    +0.000 N 
ATOM     32  H   UNL     1       5.200   3.216  20.125  0.00  0.00    +0.000 HD
ENDBRANCH  20  21
ENDBRANCH  18  20
ENDBRANCH  17  18
ENDBRANCH   1  17
TORSDOF 7
ENDMDL
MODEL 2
REMARK VINA RESULT:      -8.5      3.067      6.672
REMARK  Name = 
REMARK  7 active torsions:
REMARK  status: ('A' for Active; 'I' for Inactive)
REMARK    1  A    between atoms: C_4  and  N_5
REMARK    2  A    between atoms: N_5  and  C_6
REMARK    3  A    between atoms: C_6  and  C_7
REMARK    4  A    between atoms: C_7  and  C_8
REMARK    5  A    between atoms: C_8  and  N_9
REMARK    6  A    between atoms: N_9  and  C_10
REMARK    7  A    between atoms: C_10  and  C_11
REMARK                            x       y       z     vdW  Elec       q    Type
REMARK                         _______ _______ _______ _____ _____    ______ ____
ROOT
ATOM      1  C   UNL     1       1.357   3.109  20.692  0.00  0.00    +0.000 C 
ENDROOT
BRANCH   1   2
ATOM      2  C   UNL     1       1.951   2.219  19.587  0.00  0.00    +0.000 C 
BRANCH   2   3
ATOM      3  N   UNL     1       3.406   2.249  19.608  0.00  0.00    +0.000 N 
ATOM      4  H   UNL     1       3.877   1.687  20.332  0.00  0.00    +0.000 HD
BRANCH   3   8
ATOM      5  O   UNL     1       4.632   4.267  15.501  0.00  0.00    +0.000 OA
ATOM      6  C   UNL     1       4.815   4.159  16.702  0.00  0.00    +0.000 A 
ATOM      7  C   UNL     1       4.031   3.261  17.432  0.00  0.00    +0.000 A 
ATOM      8  C   UNL     1       4.216   3.129  18.820  0.00  0.00    +0.000 A 
ATOM      9  N   UNL     1       5.176   3.885  19.437  0.00  0.00    +0.000 N 
ATOM     10  C   UNL     1       5.965   4.765  18.749  0.00  0.00    +0.000 A 
ATOM     11  C   UNL     1       6.943   5.523  19.418  0.00  0.00    +0.000 A 
ATOM     12  C   UNL     1       7.745   6.423  18.710  0.00  0.00    +0.000 A 
ATOM     13  C   UNL     1       7.578   6.580  17.333  0.00  0.00    +0.000 A 
ATOM     14  C   UNL     1       6.609   5.839  16.654  0.00  0.00    +0.000 A 
ATOM     15  C   UNL     1       5.796   4.924  17.354  0.00  0.00    +0.000 A 
ATOM     16  H   UNL     1       5.307   3.787  20.470  0.00  0.00    +0.000 HD
ENDBRANCH   3   8
ENDBRANCH   2   3
ENDBRANCH   1   2
BRANCH   1  17
ATOM     17  C   UNL     1       1.202   4.569  20.220  0.00  0.00    +0.000 C 
BRANCH  17  18
ATOM     18  N   UNL     1       2.336   5.380  20.686  0.00  0.00    +0.000 NA
ATOM     19  H   UNL     1       3.147   4.743  20.871  0.00  0.00    +0.000 HD
BRANCH  18  20
ATOM     20  C   UNL     1       2.747   6.370  19.679  0.00  0.00    +0.000 C 
BRANCH  20  21
ATOM     21  C   UNL     1       1.946   7.629  19.857  0.00  0.00    +0.000 A 
ATOM     22  C   UNL     1       1.328   8.024  21.040  0.00  0.00    +0.000 A 
ATOM     23  C   UNL     1       0.753   9.248  20.763  0.00  0.00    +0.000 A 
ATOM     24  C   UNL     1       0.025  10.122  21.570  0.00  0.00    +0.000 A 
ATOM     25 CL   UNL     1      -0.324   9.746  23.250  0.00  0.00    +0.000 Cl
ATOM     26  C   UNL     1      -0.416  11.330  21.000  0.00  0.00    +0.000 A 
ATOM     27  C   UNL     1      -0.129  11.632  19.650  0.00  0.00    +0.000 A 
ATOM     28 CL   UNL     1      -0.675  13.152  18.963  0.00  0.00    +0.000 Cl
ATOM     29  C   UNL     1       0.599  10.724  18.856  0.00  0.00    +0.000 A 
ATOM     30  C   UNL     1       1.028   9.538  19.450  0.00  0.00    +0.000 A 
ATOM     31  N   UNL     1       1.748   8.551  18.885  0.00  0.00    +0.000 N 
ATOM     32  H   UNL     1       2.100   8.517  17.901  0.00  0.00    +0.000 HD
ENDBRANCH  20  21
ENDBRANCH  18  20
ENDBRANCH  17  18
ENDBRANCH   1  17
TORSDOF 7
ENDMDL
MODEL 3
REMARK VINA RESULT:      -8.5      1.380      1.931
REMARK  Name = 
REMARK  7 active torsions:
REMARK  status: ('A' for Active; 'I' for Inactive)
REMARK    1  A    between atoms: C_4  and  N_5
REMARK    2  A    between atoms: N_5  and  C_6
REMARK    3  A    between atoms: C_6  and  C_7
REMARK    4  A    between atoms: C_7  and  C_8
REMARK    5  A    between atoms: C_8  and  N_9
REMARK    6  A    between atoms: N_9  and  C_10
REMARK    7  A    between atoms: C_10  and  C_11
REMARK                            x       y       z     vdW  Elec       q    Type
REMARK                         _______ _______ _______ _____ _____    ______ ____
ROOT
ATOM      1  C   UNL     1       1.072   4.077  20.081  0.00  0.00    +0.000 C 
ENDROOT
BRANCH   1   2
ATOM      2  C   UNL     1       1.971   5.098  19.361  0.00  0.00    +0.000 C 
BRANCH   2   3
ATOM      3  N   UNL     1       2.402   6.154  20.265  0.00  0.00    +0.000 N 
ATOM      4  H   UNL     1       3.118   5.909  20.965  0.00  0.00    +0.000 HD
BRANCH   3   8
ATOM      5  O   UNL     1       1.074  10.322  18.446  0.00  0.00    +0.000 OA
ATOM      6  C   UNL     1       1.106   9.568  19.404  0.00  0.00    +0.000 A 
ATOM      7  C   UNL     1       1.750   8.334  19.279  0.00  0.00    +0.000 A 
ATOM      8  C   UNL     1       1.787   7.443  20.367  0.00  0.00    +0.000 A 
ATOM      9  N   UNL     1       1.191   7.807  21.544  0.00  0.00    +0.000 N 
ATOM     10  C   UNL     1       0.561   9.012  21.701  0.00  0.00    +0.000 A 
ATOM     11  C   UNL     1      -0.036   9.351  22.928  0.00  0.00    +0.000 A 
ATOM     12  C   UNL     1      -0.681  10.583  23.082  0.00  0.00    +0.000 A 
ATOM     13  C   UNL     1      -0.740  11.482  22.016  0.00  0.00    +0.000 A 
ATOM     14  C   UNL     1      -0.155  11.159  20.790  0.00  0.00    +0.000 A 
ATOM     15  C   UNL     1       0.502   9.924  20.622  0.00  0.00    +0.000 A 
ATOM     16  H   UNL     1       1.217   7.140  22.349  0.00  0.00    +0.000 HD
ENDBRANCH   3   8
ENDBRANCH   2   3
ENDBRANCH   1   2
BRANCH   1  17
ATOM     17  C   UNL     1       1.755   2.699  20.188  0.00  0.00    +0.000 C 
BRANCH  17  18
ATOM     18  N   UNL     1       2.107   2.198  18.852  0.00  0.00    +0.000 NA
ATOM     19  H   UNL     1       2.002   2.981  18.164  0.00  0.00    +0.000 HD
BRANCH  18  20
ATOM     20  C   UNL     1       3.496   1.719  18.799  0.00  0.00    +0.000 C 
BRANCH  20  21
ATOM     21  C   UNL     1       4.404   2.855  18.419  0.00  0.00    +0.000 A 
ATOM     22  C   UNL     1       4.509   3.405  17.145  0.00  0.00    +0.000 A 
ATOM     23  C   UNL     1       5.414   4.439  17.265  0.00  0.00    +0.000 A 
ATOM     24  C   UNL     1       5.892   5.352  16.324  0.00  0.00    +0.000 A 
ATOM     25 CL   UNL     1       5.365   5.307  14.650  0.00  0.00    +0.000 Cl
ATOM     26  C   UNL     1       6.808   6.328  16.761  0.00  0.00    +0.000 A 
ATOM     27  C   UNL     1       7.226   6.365  18.111  0.00  0.00    +0.000 A 
ATOM     28 CL   UNL     1       8.356   7.600  18.637  0.00  0.00    +0.000 Cl
ATOM     29  C   UNL     1       6.734   5.423  19.034  0.00  0.00    +0.000 A 
ATOM     30  C   UNL     1       5.823   4.472  18.574  0.00  0.00    +0.000 A 
ATOM     31  N   UNL     1       5.220   3.502  19.286  0.00  0.00    +0.000 N 
ATOM     32  H   UNL     1       5.342   3.305  20.305  0.00  0.00    +0.000 HD
ENDBRANCH  20  21
ENDBRANCH  18  20
ENDBRANCH  17  18
ENDBRANCH   1  17
TORSDOF 7
ENDMDL
MODEL 4
REMARK VINA RESULT:      -8.4      3.045      6.649
REMARK  Name = 
REMARK  7 active torsions:
REMARK  status: ('A' for Active; 'I' for Inactive)
REMARK    1  A    between atoms: C_4  and  N_5
REMARK    2  A    between atoms: N_5  and  C_6
REMARK    3  A    between atoms: C_6  and  C_7
REMARK    4  A    between atoms: C_7  and  C_8
REMARK    5  A    between atoms: C_8  and  N_9
REMARK    6  A    between atoms: N_9  and  C_10
REMARK    7  A    between atoms: C_10  and  C_11
REMARK                            x       y       z     vdW  Elec       q    Type
REMARK                         _______ _______ _______ _____ _____    ______ ____
ROOT
ATOM      1  C   UNL     1       2.274   3.766  18.911  0.00  0.00    +0.000 C 
ENDROOT
BRANCH   1   2
ATOM      2  C   UNL     1       3.051   2.447  18.755  0.00  0.00    +0.000 C 
BRANCH   2   3
ATOM      3  N   UNL     1       4.108   2.570  17.762  0.00  0.00    +0.000 N 
ATOM      4  H   UNL     1       4.404   1.709  17.281  0.00  0.00    +0.000 HD
BRANCH   3   8
ATOM      5  O   UNL     1       5.235   6.418  15.238  0.00  0.00    +0.000 OA
ATOM      6  C   UNL     1       5.427   5.730  16.226  0.00  0.00    +0.000 A 
ATOM      7  C   UNL     1       4.683   4.559  16.395  0.00  0.00    +0.000 A 
ATOM      8  C   UNL     1       4.879   3.756  17.533  0.00  0.00    +0.000 A 
ATOM      9  N   UNL     1       5.810   4.136  18.462  0.00  0.00    +0.000 N 
ATOM     10  C   UNL     1       6.560   5.271  18.320  0.00  0.00    +0.000 A 
ATOM     11  C   UNL     1       7.510   5.627  19.295  0.00  0.00    +0.000 A 
ATOM     12  C   UNL     1       8.272   6.790  19.146  0.00  0.00    +0.000 A 
ATOM     13  C   UNL     1       8.092   7.609  18.030  0.00  0.00    +0.000 A 
ATOM     14  C   UNL     1       7.151   7.272  17.056  0.00  0.00    +0.000 A 
ATOM     15  C   UNL     1       6.379   6.101  17.190  0.00  0.00    +0.000 A 
ATOM     16  H   UNL     1       5.949   3.538  19.309  0.00  0.00    +0.000 HD
ENDBRANCH   3   8
ENDBRANCH   2   3
ENDBRANCH   1   2
BRANCH   1  17
ATOM     17  C   UNL     1       2.484   4.384  20.308  0.00  0.00    +0.000 C 
BRANCH  17  18
ATOM     18  N   UNL     1       3.241   5.640  20.203  0.00  0.00    +0.000 NA
ATOM     19  H   UNL     1       4.262   5.411  20.163  0.00  0.00    +0.000 HD
BRANCH  18  20
ATOM     20  C   UNL     1       2.886   6.388  18.988  0.00  0.00    +0.000 C 
BRANCH  20  21
ATOM     21  C   UNL     1       2.096   7.610  19.363  0.00  0.00    +0.000 A 
ATOM     22  C   UNL     1       1.579   7.871  20.629  0.00  0.00    +0.000 A 
ATOM     23  C   UNL     1       0.976   9.108  20.530  0.00  0.00    +0.000 A 
ATOM     24  C   UNL     1       0.314   9.884  21.483  0.00  0.00    +0.000 A 
ATOM     25 CL   UNL     1       0.112   9.332  23.138  0.00  0.00    +0.000 Cl
ATOM     26  C   UNL     1      -0.182  11.138  21.081  0.00  0.00    +0.000 A 
ATOM     27  C   UNL     1      -0.013  11.582  19.750  0.00  0.00    +0.000 A 
ATOM     28 CL   UNL     1      -0.625  13.157  19.274  0.00  0.00    +0.000 Cl
ATOM     29  C   UNL     1       0.650  10.772  18.807  0.00  0.00    +0.000 A 
ATOM     30  C   UNL     1       1.136   9.537  19.236  0.00  0.00    +0.000 A 
ATOM     31  N   UNL     1       1.810   8.625  18.513  0.00  0.00    +0.000 N 
ATOM     32  H   UNL     1       2.077   8.698  17.504  0.00  0.00    +0.000 HD
ENDBRANCH  20  21
ENDBRANCH  18  20
ENDBRANCH  17  18
ENDBRANCH   1  17
TORSDOF 7
ENDMDL
MODEL 5
REMARK VINA RESULT:      -8.4      3.127      6.835
REMARK  Name = 
REMARK  7 active torsions:
REMARK  status: ('A' for Active; 'I' for Inactive)
REMARK    1  A    between atoms: C_4  and  N_5
REMARK    2  A    between atoms: N_5  and  C_6
REMARK    3  A    between atoms: C_6  and  C_7
REMARK    4  A    between atoms: C_7  and  C_8
REMARK    5  A    between atoms: C_8  and  N_9
REMARK    6  A    between atoms: N_9  and  C_10
REMARK    7  A    between atoms: C_10  and  C_11
REMARK                            x       y       z     vdW  Elec       q    Type
REMARK                         _______ _______ _______ _____ _____    ______ ____
ROOT
ATOM      1  C   UNL     1       6.350   5.548  17.194  0.00  0.00    +0.000 C 
ENDROOT
BRANCH   1   2
ATOM      2  C   UNL     1       6.430   4.428  16.141  0.00  0.00    +0.000 C 
BRANCH   2   3
ATOM      3  N   UNL     1       5.604   3.290  16.516  0.00  0.00    +0.000 N 
ATOM      4  H   UNL     1       5.804   2.392  16.053  0.00  0.00    +0.000 HD
BRANCH   3   8
ATOM      5  O   UNL     1       1.005   4.198  17.200  0.00  0.00    +0.000 OA
ATOM      6  C   UNL     1       2.071   3.826  17.660  0.00  0.00    +0.000 A 
ATOM      7  C   UNL     1       3.198   3.803  16.835  0.00  0.00    +0.000 A 
ATOM      8  C   UNL     1       4.436   3.365  17.341  0.00  0.00    +0.000 A 
ATOM      9  N   UNL     1       4.516   2.972  18.650  0.00  0.00    +0.000 N 
ATOM     10  C   UNL     1       3.433   2.992  19.486  0.00  0.00    +0.000 A 
ATOM     11  C   UNL     1       3.556   2.584  20.826  0.00  0.00    +0.000 A 
ATOM     12  C   UNL     1       2.445   2.605  21.674  0.00  0.00    +0.000 A 
ATOM     13  C   UNL     1       1.203   3.027  21.196  0.00  0.00    +0.000 A 
ATOM     14  C   UNL     1       1.064   3.431  19.867  0.00  0.00    +0.000 A 
ATOM     15  C   UNL     1       2.175   3.420  19.001  0.00  0.00    +0.000 A 
ATOM     16  H   UNL     1       5.437   2.644  19.021  0.00  0.00    +0.000 HD
ENDBRANCH   3   8
ENDBRANCH   2   3
ENDBRANCH   1   2
BRANCH   1  17
ATOM     17  C   UNL     1       5.431   6.696  16.730  0.00  0.00    +0.000 C 
BRANCH  17  18
ATOM     18  N   UNL     1       4.447   7.017  17.773  0.00  0.00    +0.000 NA
ATOM     19  H   UNL     1       4.828   7.794  18.363  0.00  0.00    +0.000 HD
BRANCH  18  20
ATOM     20  C   UNL     1       3.168   7.458  17.197  0.00  0.00    +0.000 C 
BRANCH  20  21
ATOM     21  C   UNL     1       2.379   8.203  18.236  0.00  0.00    +0.000 A 
ATOM     22  C   UNL     1       1.743   9.425  18.034  0.00  0.00    +0.000 A 
ATOM     23  C   UNL     1       1.110   9.710  19.227  0.00  0.00    +0.000 A 
ATOM     24  C   UNL     1       0.308  10.787  19.604  0.00  0.00    +0.000 A 
ATOM     25 CL   UNL     1      -0.047  12.102  18.494  0.00  0.00    +0.000 Cl
ATOM     26  C   UNL     1      -0.226  10.786  20.906  0.00  0.00    +0.000 A 
ATOM     27  C   UNL     1       0.056   9.724  21.795  0.00  0.00    +0.000 A 
ATOM     28 CL   UNL     1      -0.632   9.735  23.409  0.00  0.00    +0.000 Cl
ATOM     29  C   UNL     1       0.880   8.656  21.390  0.00  0.00    +0.000 A 
ATOM     30  C   UNL     1       1.389   8.681  20.091  0.00  0.00    +0.000 A 
ATOM     31  N   UNL     1       2.171   7.761  19.499  0.00  0.00    +0.000 N 
ATOM     32  H   UNL     1       2.526   6.874  19.924  0.00  0.00    +0.000 HD
ENDBRANCH  20  21
ENDBRANCH  18  20
ENDBRANCH  17  18
ENDBRANCH   1  17
TORSDOF 7
ENDMDL
MODEL 6
REMARK VINA RESULT:      -8.3      1.267      2.267
REMARK  Name = 
REMARK  7 active torsions:
REMARK  status: ('A' for Active; 'I' for Inactive)
REMARK    1  A    between atoms: C_4  and  N_5
REMARK    2  A    between atoms: N_5  and  C_6
REMARK    3  A    between atoms: C_6  and  C_7
REMARK    4  A    between atoms: C_7  and  C_8
REMARK    5  A    between atoms: C_8  and  N_9
REMARK    6  A    between atoms: N_9  and  C_10
REMARK    7  A    between atoms: C_10  and  C_11
REMARK                            x       y       z     vdW  Elec       q    Type
REMARK                         _______ _______ _______ _____ _____    ______ ____
ROOT
ATOM      1  C   UNL     1       0.952   4.112  20.211  0.00  0.00    +0.000 C 
ENDROOT
BRANCH   1   2
ATOM      2  C   UNL     1       2.002   4.764  21.128  0.00  0.00    +0.000 C 
BRANCH   2   3
ATOM      3  N   UNL     1       2.736   5.810  20.431  0.00  0.00    +0.000 N 
ATOM      4  H   UNL     1       3.749   5.669  20.306  0.00  0.00    +0.000 HD
BRANCH   3   8
ATOM      5  O   UNL     1       1.958   9.305  17.329  0.00  0.00    +0.000 OA
ATOM      6  C   UNL     1       1.797   8.856  18.451  0.00  0.00    +0.000 A 
ATOM      7  C   UNL     1       2.376   7.627  18.782  0.00  0.00    +0.000 A 
ATOM      8  C   UNL     1       2.192   7.084  20.067  0.00  0.00    +0.000 A 
ATOM      9  N   UNL     1       1.449   7.778  20.982  0.00  0.00    +0.000 N 
ATOM     10  C   UNL     1       0.877   8.987  20.691  0.00  0.00    +0.000 A 
ATOM     11  C   UNL     1       0.122   9.673  21.660  0.00  0.00    +0.000 A 
ATOM     12  C   UNL     1      -0.462  10.907  21.356  0.00  0.00    +0.000 A 
ATOM     13  C   UNL     1      -0.303  11.465  20.086  0.00  0.00    +0.000 A 
ATOM     14  C   UNL     1       0.441  10.796  19.113  0.00  0.00    +0.000 A 
ATOM     15  C   UNL     1       1.039   9.553  19.405  0.00  0.00    +0.000 A 
ATOM     16  H   UNL     1       1.311   7.369  21.934  0.00  0.00    +0.000 HD
ENDBRANCH   3   8
ENDBRANCH   2   3
ENDBRANCH   1   2
BRANCH   1  17
ATOM     17  C   UNL     1       1.564   3.695  18.858  0.00  0.00    +0.000 C 
BRANCH  17  18
ATOM     18  N   UNL     1       2.100   2.330  18.939  0.00  0.00    +0.000 NA
ATOM     19  H   UNL     1       2.091   1.911  17.978  0.00  0.00    +0.000 HD
BRANCH  18  20
ATOM     20  C   UNL     1       3.484   2.317  19.435  0.00  0.00    +0.000 C 
BRANCH  20  21
ATOM     21  C   UNL     1       4.364   3.084  18.490  0.00  0.00    +0.000 A 
ATOM     22  C   UNL     1       5.290   4.054  18.865  0.00  0.00    +0.000 A 
ATOM     23  C   UNL     1       5.897   4.455  17.693  0.00  0.00    +0.000 A 
ATOM     24  C   UNL     1       6.912   5.383  17.458  0.00  0.00    +0.000 A 
ATOM     25 CL   UNL     1       7.644   6.296  18.768  0.00  0.00    +0.000 Cl
ATOM     26  C   UNL     1       7.348   5.560  16.131  0.00  0.00    +0.000 A 
ATOM     27  C   UNL     1       6.761   4.819  15.080  0.00  0.00    +0.000 A 
ATOM     28 CL   UNL     1       7.329   5.044  13.435  0.00  0.00    +0.000 Cl
ATOM     29  C   UNL     1       5.729   3.898  15.347  0.00  0.00    +0.000 A 
ATOM     30  C   UNL     1       5.324   3.739  16.672  0.00  0.00    +0.000 A 
ATOM     31  N   UNL     1       4.379   2.907  17.146  0.00  0.00    +0.000 N 
ATOM     32  H   UNL     1       3.793   2.242  16.591  0.00  0.00    +0.000 HD
ENDBRANCH  20  21
ENDBRANCH  18  20
ENDBRANCH  17  18
ENDBRANCH   1  17
TORSDOF 7
ENDMDL
MODEL 7
REMARK VINA RESULT:      -8.3      2.831      6.288
REMARK  Name = 
REMARK  7 active torsions:
REMARK  status: ('A' for Active; 'I' for Inactive)
REMARK    1  A    between atoms: C_4  and  N_5
REMARK    2  A    between atoms: N_5  and  C_6
REMARK    3  A    between atoms: C_6  and  C_7
REMARK    4  A    between atoms: C_7  and  C_8
REMARK    5  A    between atoms: C_8  and  N_9
REMARK    6  A    between atoms: N_9  and  C_10
REMARK    7  A    between atoms: C_10  and  C_11
REMARK                            x       y       z     vdW  Elec       q    Type
REMARK                         _______ _______ _______ _____ _____    ______ ____
ROOT
ATOM      1  C   UNL     1       2.255   2.096  19.192  0.00  0.00    +0.000 C 
ENDROOT
BRANCH   1   2
ATOM      2  C   UNL     1       2.807   2.386  17.785  0.00  0.00    +0.000 C 
BRANCH   2   3
ATOM      3  N   UNL     1       4.257   2.519  17.803  0.00  0.00    +0.000 N 
ATOM      4  H   UNL     1       4.799   1.707  18.131  0.00  0.00    +0.000 HD
BRANCH   3   8
ATOM      5  O   UNL     1       5.121   6.454  15.310  0.00  0.00    +0.000 OA
ATOM      6  C   UNL     1       5.380   5.758  16.277  0.00  0.00    +0.000 A 
ATOM      7  C   UNL     1       4.693   4.553  16.452  0.00  0.00    +0.000 A 
ATOM      8  C   UNL     1       4.967   3.740  17.567  0.00  0.00    +0.000 A 
ATOM      9  N   UNL     1       5.917   4.144  18.467  0.00  0.00    +0.000 N 
ATOM     10  C   UNL     1       6.612   5.313  18.317  0.00  0.00    +0.000 A 
ATOM     11  C   UNL     1       7.583   5.692  19.262  0.00  0.00    +0.000 A 
ATOM     12  C   UNL     1       8.289   6.889  19.105  0.00  0.00    +0.000 A 
ATOM     13  C   UNL     1       8.032   7.719  18.012  0.00  0.00    +0.000 A 
ATOM     14  C   UNL     1       7.069   7.358  17.069  0.00  0.00    +0.000 A 
ATOM     15  C   UNL     1       6.352   6.153  17.210  0.00  0.00    +0.000 A 
ATOM     16  H   UNL     1       6.114   3.539  19.296  0.00  0.00    +0.000 HD
ENDBRANCH   3   8
ENDBRANCH   2   3
ENDBRANCH   1   2
BRANCH   1  17
ATOM     17  C   UNL     1       2.621   3.219  20.184  0.00  0.00    +0.000 C 
BRANCH  17  18
ATOM     18  N   UNL     1       1.881   4.447  19.863  0.00  0.00    +0.000 NA
ATOM     19  H   UNL     1       1.289   4.705  20.689  0.00  0.00    +0.000 HD
BRANCH  18  20
ATOM     20  C   UNL     1       2.787   5.568  19.575  0.00  0.00    +0.000 C 
BRANCH  20  21
ATOM     21  C   UNL     1       2.137   6.858  19.988  0.00  0.00    +0.000 A 
ATOM     22  C   UNL     1       2.069   8.008  19.205  0.00  0.00    +0.000 A 
ATOM     23  C   UNL     1       1.353   8.919  19.953  0.00  0.00    +0.000 A 
ATOM     24  C   UNL     1       0.958  10.227  19.671  0.00  0.00    +0.000 A 
ATOM     25 CL   UNL     1       1.375  11.005  18.152  0.00  0.00    +0.000 Cl
ATOM     26  C   UNL     1       0.198  10.909  20.640  0.00  0.00    +0.000 A 
ATOM     27  C   UNL     1      -0.140  10.278  21.858  0.00  0.00    +0.000 A 
ATOM     28 CL   UNL     1      -1.101  11.141  23.047  0.00  0.00    +0.000 Cl
ATOM     29  C   UNL     1       0.283   8.961  22.120  0.00  0.00    +0.000 A 
ATOM     30  C   UNL     1       1.029   8.308  21.138  0.00  0.00    +0.000 A 
ATOM     31  N   UNL     1       1.511   7.052  21.174  0.00  0.00    +0.000 N 
ATOM     32  H   UNL     1       1.404   6.362  21.952  0.00  0.00    +0.000 HD
ENDBRANCH  20  21
ENDBRANCH  18  20
ENDBRANCH  17  18
ENDBRANCH   1  17
TORSDOF 7
ENDMDL
MODEL 8
REMARK VINA RESULT:      -8.1      4.638      7.438
REMARK  Name = 
REMARK  7 active torsions:
REMARK  status: ('A' for Active; 'I' for Inactive)
REMARK    1  A    between atoms: C_4  and  N_5
REMARK    2  A    between atoms: N_5  and  C_6
REMARK    3  A    between atoms: C_6  and  C_7
REMARK    4  A    between atoms: C_7  and  C_8
REMARK    5  A    between atoms: C_8  and  N_9
REMARK    6  A    between atoms: N_9  and  C_10
REMARK    7  A    between atoms: C_10  and  C_11
REMARK                            x       y       z     vdW  Elec       q    Type
REMARK                         _______ _______ _______ _____ _____    ______ ____
ROOT
ATOM      1  C   UNL     1       7.517   5.817  17.481  0.00  0.00    +0.000 C 
ENDROOT
BRANCH   1   2
ATOM      2  C   UNL     1       7.194   4.313  17.466  0.00  0.00    +0.000 C 
BRANCH   2   3
ATOM      3  N   UNL     1       5.897   4.057  16.857  0.00  0.00    +0.000 N 
ATOM      4  H   UNL     1       5.841   4.113  15.829  0.00  0.00    +0.000 HD
BRANCH   3   8
ATOM      5  O   UNL     1       1.178   4.280  17.204  0.00  0.00    +0.000 OA
ATOM      6  C   UNL     1       2.247   4.018  17.727  0.00  0.00    +0.000 A 
ATOM      7  C   UNL     1       3.426   4.214  17.002  0.00  0.00    +0.000 A 
ATOM      8  C   UNL     1       4.671   3.906  17.581  0.00  0.00    +0.000 A 
ATOM      9  N   UNL     1       4.707   3.421  18.860  0.00  0.00    +0.000 N 
ATOM     10  C   UNL     1       3.571   3.226  19.599  0.00  0.00    +0.000 A 
ATOM     11  C   UNL     1       3.649   2.729  20.912  0.00  0.00    +0.000 A 
ATOM     12  C   UNL     1       2.485   2.530  21.661  0.00  0.00    +0.000 A 
ATOM     13  C   UNL     1       1.236   2.819  21.108  0.00  0.00    +0.000 A 
ATOM     14  C   UNL     1       1.142   3.310  19.805  0.00  0.00    +0.000 A 
ATOM     15  C   UNL     1       2.306   3.520  19.039  0.00  0.00    +0.000 A 
ATOM     16  H   UNL     1       5.634   3.189  19.285  0.00  0.00    +0.000 HD
ENDBRANCH   3   8
ENDBRANCH   2   3
ENDBRANCH   1   2
BRANCH   1  17
ATOM     17  C   UNL     1       7.801   6.321  18.911  0.00  0.00    +0.000 C 
BRANCH  17  18
ATOM     18  N   UNL     1       8.536   7.592  18.868  0.00  0.00    +0.000 NA
ATOM     19  H   UNL     1       9.539   7.390  18.641  0.00  0.00    +0.000 HD
BRANCH  18  20
ATOM     20  C   UNL     1       8.001   8.495  17.839  0.00  0.00    +0.000 C 
BRANCH  20  21
ATOM     21  C   UNL     1       8.512   9.888  18.078  0.00  0.00    +0.000 A 
ATOM     22  C   UNL     1       9.631  10.211  18.841  0.00  0.00    +0.000 A 
ATOM     23  C   UNL     1       9.755  11.582  18.749  0.00  0.00    +0.000 A 
ATOM     24  C   UNL     1      10.700  12.454  19.290  0.00  0.00    +0.000 A 
ATOM     25 CL   UNL     1      12.017  11.875  20.296  0.00  0.00    +0.000 Cl
ATOM     26  C   UNL     1      10.575  13.825  18.994  0.00  0.00    +0.000 A 
ATOM     27  C   UNL     1       9.517  14.288  18.178  0.00  0.00    +0.000 A 
ATOM     28 CL   UNL     1       9.389  15.999  17.809  0.00  0.00    +0.000 Cl
ATOM     29  C   UNL     1       8.572  13.384  17.657  0.00  0.00    +0.000 A 
ATOM     30  C   UNL     1       8.725  12.032  17.962  0.00  0.00    +0.000 A 
ATOM     31  N   UNL     1       7.954  11.007  17.555  0.00  0.00    +0.000 N 
ATOM     32  H   UNL     1       7.110  11.063  16.941  0.00  0.00    +0.000 HD
ENDBRANCH  20  21
ENDBRANCH  18  20
ENDBRANCH  17  18
ENDBRANCH   1  17
TORSDOF 7
ENDMDL
MODEL 9
REMARK VINA RESULT:      -8.0      2.983      6.607
REMARK  Name = 
REMARK  7 active torsions:
REMARK  status: ('A' for Active; 'I' for Inactive)
REMARK    1  A    between atoms: C_4  and  N_5
REMARK    2  A    between atoms: N_5  and  C_6
REMARK    3  A    between atoms: C_6  and  C_7
REMARK    4  A    between atoms: C_7  and  C_8
REMARK    5  A    between atoms: C_8  and  N_9
REMARK    6  A    between atoms: N_9  and  C_10
REMARK    7  A    between atoms: C_10  and  C_11
REMARK                            x       y       z     vdW  Elec       q    Type
REMARK                         _______ _______ _______ _____ _____    ______ ____
ROOT
ATOM      1  C   UNL     1       7.210   6.210  17.238  0.00  0.00    +0.000 C 
ENDROOT
BRANCH   1   2
ATOM      2  C   UNL     1       7.101   5.455  18.574  0.00  0.00    +0.000 C 
BRANCH   2   3
ATOM      3  N   UNL     1       6.528   4.129  18.388  0.00  0.00    +0.000 N 
ATOM      4  H   UNL     1       7.159   3.390  18.045  0.00  0.00    +0.000 HD
BRANCH   3   8
ATOM      5  O   UNL     1       2.326   3.114  16.450  0.00  0.00    +0.000 OA
ATOM      6  C   UNL     1       2.991   3.292  17.456  0.00  0.00    +0.000 A 
ATOM      7  C   UNL     1       4.342   3.627  17.329  0.00  0.00    +0.000 A 
ATOM      8  C   UNL     1       5.132   3.824  18.477  0.00  0.00    +0.000 A 
ATOM      9  N   UNL     1       4.556   3.690  19.711  0.00  0.00    +0.000 N 
ATOM     10  C   UNL     1       3.234   3.372  19.868  0.00  0.00    +0.000 A 
ATOM     11  C   UNL     1       2.677   3.246  21.153  0.00  0.00    +0.000 A 
ATOM     12  C   UNL     1       1.326   2.918  21.308  0.00  0.00    +0.000 A 
ATOM     13  C   UNL     1       0.522   2.709  20.186  0.00  0.00    +0.000 A 
ATOM     14  C   UNL     1       1.060   2.826  18.904  0.00  0.00    +0.000 A 
ATOM     15  C   UNL     1       2.419   3.160  18.732  0.00  0.00    +0.000 A 
ATOM     16  H   UNL     1       5.148   3.833  20.561  0.00  0.00    +0.000 HD
ENDBRANCH   3   8
ENDBRANCH   2   3
ENDBRANCH   1   2
BRANCH   1  17
ATOM     17  C   UNL     1       6.068   7.233  17.072  0.00  0.00    +0.000 C 
BRANCH  17  18
ATOM     18  N   UNL     1       4.928   6.870  17.926  0.00  0.00    +0.000 NA
ATOM     19  H   UNL     1       4.981   7.432  18.809  0.00  0.00    +0.000 HD
BRANCH  18  20
ATOM     20  C   UNL     1       3.644   7.159  17.270  0.00  0.00    +0.000 C 
BRANCH  20  21
ATOM     21  C   UNL     1       2.729   7.850  18.240  0.00  0.00    +0.000 A 
ATOM     22  C   UNL     1       1.902   8.927  17.933  0.00  0.00    +0.000 A 
ATOM     23  C   UNL     1       1.215   9.206  19.096  0.00  0.00    +0.000 A 
ATOM     24  C   UNL     1       0.240  10.164  19.377  0.00  0.00    +0.000 A 
ATOM     25 CL   UNL     1      -0.311  11.300  18.157  0.00  0.00    +0.000 Cl
ATOM     26  C   UNL     1      -0.304  10.188  20.675  0.00  0.00    +0.000 A 
ATOM     27  C   UNL     1       0.137   9.268  21.654  0.00  0.00    +0.000 A 
ATOM     28 CL   UNL     1      -0.565   9.305  23.261  0.00  0.00    +0.000 Cl
ATOM     29  C   UNL     1       1.131   8.320  21.343  0.00  0.00    +0.000 A 
ATOM     30  C   UNL     1       1.647   8.317  20.047  0.00  0.00    +0.000 A 
ATOM     31  N   UNL     1       2.579   7.490  19.538  0.00  0.00    +0.000 N 
ATOM     32  H   UNL     1       3.070   6.715  20.038  0.00  0.00    +0.000 HD
ENDBRANCH  20  21
ENDBRANCH  18  20
ENDBRANCH  17  18
ENDBRANCH   1  17
TORSDOF 7
ENDMDL
