MODEL 1
REMARK VINA RESULT:      -8.1      0.000      0.000
REMARK  Name = 
REMARK  8 active torsions:
REMARK  status: ('A' for Active; 'I' for Inactive)
REMARK    1  A    between atoms: C_1  and  C_2
REMARK    2  A    between atoms: C_2  and  N_3
REMARK    3  A    between atoms: N_3  and  C_4
REMARK    4  A    between atoms: N_3  and  C_6
REMARK    5  A    between atoms: C_4  and  C_5
REMARK    6  A    between atoms: C_9  and  N_10
REMARK    7  A    between atoms: C_11  and  C_13
REMARK    8  A    between atoms: C_17  and  C_18
REMARK                            x       y       z     vdW  Elec       q    Type
REMARK                         _______ _______ _______ _____ _____    ______ ____
ROOT
ATOM      1  N   UNL     1       2.868   6.393  19.919  0.00  0.00    +0.000 N 
ATOM      2  C   UNL     1       2.545   5.148  19.398  0.00  0.00    +0.000 C 
ATOM      3  O   UNL     1       1.533   4.882  18.761  0.00  0.00    +0.000 OA
ATOM      4  H   UNL     1       3.743   6.490  20.417  0.00  0.00    +0.000 HD
ENDROOT
BRANCH   1   8
ATOM      5  C   UNL     1       0.596   9.932  19.178  0.00  0.00    +0.000 A 
ATOM      6  C   UNL     1       0.589   9.312  20.429  0.00  0.00    +0.000 A 
ATOM      7  C   UNL     1       1.331   8.160  20.694  0.00  0.00    +0.000 A 
ATOM      8  C   UNL     1       2.136   7.587  19.717  0.00  0.00    +0.000 A 
ATOM      9  C   UNL     1       2.197   8.211  18.469  0.00  0.00    +0.000 A 
ATOM     10  C   UNL     1       1.430   9.362  18.207  0.00  0.00    +0.000 A 
BRANCH   5  11
ATOM     11  N   UNL     1      -0.186  11.049  18.928  0.00  0.00    +0.000 N 
BRANCH  11  13
ATOM     12  C   UNL     1      -2.030  10.183  17.482  0.00  0.00    +0.000 C 
ATOM     13  C   UNL     1      -1.637  10.914  18.759  0.00  0.00    +0.000 C 
ENDBRANCH  11  13
BRANCH  11  14
ATOM     14  C   UNL     1       0.437  12.352  18.687  0.00  0.00    +0.000 C 
ATOM     15  C   UNL     1      -0.592  13.477  18.702  0.00  0.00    +0.000 C 
ENDBRANCH  11  14
ENDBRANCH   5  11
ENDBRANCH   1   8
BRANCH   2  16
ATOM     16  C   UNL     1       3.534   4.122  19.637  0.00  0.00    +0.000 A 
ATOM     17  C   UNL     1       3.382   2.842  20.208  0.00  0.00    +0.000 A 
ATOM     18  N   UNL     1       4.519   2.146  20.206  0.00  0.00    +0.000 NA
ATOM     19  O   UNL     1       5.452   2.976  19.608  0.00  0.00    +0.000 OA
ATOM     20  C   UNL     1       4.869   4.166  19.268  0.00  0.00    +0.000 A 
BRANCH  20  21
ATOM     21  C   UNL     1       5.763   5.148  18.649  0.00  0.00    +0.000 A 
ATOM     22  C   UNL     1       5.415   5.770  17.441  0.00  0.00    +0.000 A 
ATOM     23  C   UNL     1       6.254   6.729  16.858  0.00  0.00    +0.000 A 
ATOM     24  C   UNL     1       7.451   7.081  17.477  0.00  0.00    +0.000 A 
ATOM     25  C   UNL     1       7.819   6.466  18.666  0.00  0.00    +0.000 A 
ATOM     26  C   UNL     1       6.986   5.499  19.241  0.00  0.00    +0.000 A 
ENDBRANCH  20  21
ENDBRANCH   2  16
TORSDOF 6
ENDMDL
MODEL 2
REMARK VINA RESULT:      -8.1      0.261      1.619
REMARK  Name = 
REMARK  8 active torsions:
REMARK  status: ('A' for Active; 'I' for Inactive)
REMARK    1  A    between atoms: C_1  and  C_2
REMARK    2  A    between atoms: C_2  and  N_3
REMARK    3  A    between atoms: N_3  and  C_4
REMARK    4  A    between atoms: N_3  and  C_6
REMARK    5  A    between atoms: C_4  and  C_5
REMARK    6  A    between atoms: C_9  and  N_10
REMARK    7  A    between atoms: C_11  and  C_13
REMARK    8  A    between atoms: C_17  and  C_18
REMARK                            x       y       z     vdW  Elec       q    Type
REMARK                         _______ _______ _______ _____ _____    ______ ____
ROOT
ATOM      1  N   UNL     1       2.871   6.442  19.801  0.00  0.00    +0.000 N 
ATOM      2  C   UNL     1       2.558   5.174  19.330  0.00  0.00    +0.000 C 
ATOM      3  O   UNL     1       1.544   4.874  18.711  0.00  0.00    +0.000 OA
ATOM      4  H   UNL     1       3.749   6.566  20.288  0.00  0.00    +0.000 HD
ENDROOT
BRANCH   1   8
ATOM      5  C   UNL     1       0.691  10.063  19.199  0.00  0.00    +0.000 A 
ATOM      6  C   UNL     1       1.434   9.483  18.170  0.00  0.00    +0.000 A 
ATOM      7  C   UNL     1       2.147   8.296  18.344  0.00  0.00    +0.000 A 
ATOM      8  C   UNL     1       2.127   7.620  19.558  0.00  0.00    +0.000 A 
ATOM      9  C   UNL     1       1.356   8.154  20.593  0.00  0.00    +0.000 A 
ATOM     10  C   UNL     1       0.656   9.363  20.412  0.00  0.00    +0.000 A 
BRANCH   5  11
ATOM     11  N   UNL     1       0.030  11.268  19.014  0.00  0.00    +0.000 N 
BRANCH  11  13
ATOM     12  C   UNL     1      -0.090  13.720  18.552  0.00  0.00    +0.000 C 
ATOM     13  C   UNL     1       0.790  12.510  18.835  0.00  0.00    +0.000 C 
ENDBRANCH  11  13
BRANCH  11  14
ATOM     14  C   UNL     1      -1.428  11.341  19.136  0.00  0.00    +0.000 C 
ATOM     15  C   UNL     1      -2.121  10.433  18.125  0.00  0.00    +0.000 C 
ENDBRANCH  11  14
ENDBRANCH   5  11
ENDBRANCH   1   8
BRANCH   2  16
ATOM     16  C   UNL     1       3.559   4.169  19.600  0.00  0.00    +0.000 A 
ATOM     17  C   UNL     1       3.416   2.890  20.178  0.00  0.00    +0.000 A 
ATOM     18  N   UNL     1       4.564   2.214  20.209  0.00  0.00    +0.000 NA
ATOM     19  O   UNL     1       5.496   3.057  19.627  0.00  0.00    +0.000 OA
ATOM     20  C   UNL     1       4.901   4.233  19.263  0.00  0.00    +0.000 A 
BRANCH  20  21
ATOM     21  C   UNL     1       5.792   5.226  18.659  0.00  0.00    +0.000 A 
ATOM     22  C   UNL     1       5.418   5.904  17.488  0.00  0.00    +0.000 A 
ATOM     23  C   UNL     1       6.255   6.874  16.920  0.00  0.00    +0.000 A 
ATOM     24  C   UNL     1       7.476   7.181  17.515  0.00  0.00    +0.000 A 
ATOM     25  C   UNL     1       7.870   6.511  18.665  0.00  0.00    +0.000 A 
ATOM     26  C   UNL     1       7.039   5.534  19.225  0.00  0.00    +0.000 A 
ENDBRANCH  20  21
ENDBRANCH   2  16
TORSDOF 6
ENDMDL
MODEL 3
REMARK VINA RESULT:      -8.0      0.407      1.074
REMARK  Name = 
REMARK  8 active torsions:
REMARK  status: ('A' for Active; 'I' for Inactive)
REMARK    1  A    between atoms: C_1  and  C_2
REMARK    2  A    between atoms: C_2  and  N_3
REMARK    3  A    between atoms: N_3  and  C_4
REMARK    4  A    between atoms: N_3  and  C_6
REMARK    5  A    between atoms: C_4  and  C_5
REMARK    6  A    between atoms: C_9  and  N_10
REMARK    7  A    between atoms: C_11  and  C_13
REMARK    8  A    between atoms: C_17  and  C_18
REMARK                            x       y       z     vdW  Elec       q    Type
REMARK                         _______ _______ _______ _____ _____    ______ ____
ROOT
ATOM      1  N   UNL     1       2.747   6.538  19.888  0.00  0.00    +0.000 N 
ATOM      2  C   UNL     1       2.551   5.356  19.187  0.00  0.00    +0.000 C 
ATOM      3  O   UNL     1       1.665   5.153  18.366  0.00  0.00    +0.000 OA
ATOM      4  H   UNL     1       3.526   6.588  20.532  0.00  0.00    +0.000 HD
ENDROOT
BRANCH   1   8
ATOM      5  C   UNL     1       0.499  10.101  19.189  0.00  0.00    +0.000 A 
ATOM      6  C   UNL     1       0.481   9.463  20.429  0.00  0.00    +0.000 A 
ATOM      7  C   UNL     1       1.215   8.302  20.681  0.00  0.00    +0.000 A 
ATOM      8  C   UNL     1       2.023   7.740  19.700  0.00  0.00    +0.000 A 
ATOM      9  C   UNL     1       2.095   8.382  18.462  0.00  0.00    +0.000 A 
ATOM     10  C   UNL     1       1.336   9.541  18.213  0.00  0.00    +0.000 A 
BRANCH   5  11
ATOM     11  N   UNL     1      -0.276  11.226  18.951  0.00  0.00    +0.000 N 
BRANCH  11  13
ATOM     12  C   UNL     1      -2.181  10.088  17.804  0.00  0.00    +0.000 C 
ATOM     13  C   UNL     1      -1.734  11.111  18.839  0.00  0.00    +0.000 C 
ENDBRANCH  11  13
BRANCH  11  14
ATOM     14  C   UNL     1       0.358  12.516  18.666  0.00  0.00    +0.000 C 
ATOM     15  C   UNL     1       1.014  13.105  19.910  0.00  0.00    +0.000 C 
ENDBRANCH  11  14
ENDBRANCH   5  11
ENDBRANCH   1   8
BRANCH   2  16
ATOM     16  C   UNL     1       3.517   4.322  19.473  0.00  0.00    +0.000 A 
ATOM     17  C   UNL     1       3.321   3.026  19.994  0.00  0.00    +0.000 A 
ATOM     18  N   UNL     1       4.453   2.327  20.060  0.00  0.00    +0.000 NA
ATOM     19  O   UNL     1       5.430   3.171  19.560  0.00  0.00    +0.000 OA
ATOM     20  C   UNL     1       4.877   4.372  19.209  0.00  0.00    +0.000 A 
BRANCH  20  21
ATOM     21  C   UNL     1       5.816   5.368  18.690  0.00  0.00    +0.000 A 
ATOM     22  C   UNL     1       7.071   5.550  19.292  0.00  0.00    +0.000 A 
ATOM     23  C   UNL     1       7.984   6.484  18.784  0.00  0.00    +0.000 A 
ATOM     24  C   UNL     1       7.656   7.246  17.666  0.00  0.00    +0.000 A 
ATOM     25  C   UNL     1       6.415   7.091  17.065  0.00  0.00    +0.000 A 
ATOM     26  C   UNL     1       5.498   6.167  17.581  0.00  0.00    +0.000 A 
ENDBRANCH  20  21
ENDBRANCH   2  16
TORSDOF 6
ENDMDL
MODEL 4
REMARK VINA RESULT:      -8.0      0.452      1.472
REMARK  Name = 
REMARK  8 active torsions:
REMARK  status: ('A' for Active; 'I' for Inactive)
REMARK    1  A    between atoms: C_1  and  C_2
REMARK    2  A    between atoms: C_2  and  N_3
REMARK    3  A    between atoms: N_3  and  C_4
REMARK    4  A    between atoms: N_3  and  C_6
REMARK    5  A    between atoms: C_4  and  C_5
REMARK    6  A    between atoms: C_9  and  N_10
REMARK    7  A    between atoms: C_11  and  C_13
REMARK    8  A    between atoms: C_17  and  C_18
REMARK                            x       y       z     vdW  Elec       q    Type
REMARK                         _______ _______ _______ _____ _____    ______ ____
ROOT
ATOM      1  N   UNL     1       2.850   6.382  19.901  0.00  0.00    +0.000 N 
ATOM      2  C   UNL     1       2.522   5.120  19.424  0.00  0.00    +0.000 C 
ATOM      3  O   UNL     1       1.491   4.829  18.830  0.00  0.00    +0.000 OA
ATOM      4  H   UNL     1       3.741   6.500  20.365  0.00  0.00    +0.000 HD
ENDROOT
BRANCH   1   8
ATOM      5  C   UNL     1       0.658  10.012  19.402  0.00  0.00    +0.000 A 
ATOM      6  C   UNL     1       1.387   9.453  18.351  0.00  0.00    +0.000 A 
ATOM      7  C   UNL     1       2.103   8.263  18.491  0.00  0.00    +0.000 A 
ATOM      8  C   UNL     1       2.101   7.564  19.692  0.00  0.00    +0.000 A 
ATOM      9  C   UNL     1       1.346   8.077  20.748  0.00  0.00    +0.000 A 
ATOM     10  C   UNL     1       0.642   9.288  20.602  0.00  0.00    +0.000 A 
BRANCH   5  11
ATOM     11  N   UNL     1      -0.006  11.219  19.250  0.00  0.00    +0.000 N 
BRANCH  11  13
ATOM     12  C   UNL     1      -2.071  10.461  18.067  0.00  0.00    +0.000 C 
ATOM     13  C   UNL     1      -1.472  11.259  19.217  0.00  0.00    +0.000 C 
ENDBRANCH  11  13
BRANCH  11  14
ATOM     14  C   UNL     1       0.743  12.449  18.978  0.00  0.00    +0.000 C 
ATOM     15  C   UNL     1       1.527  12.909  20.202  0.00  0.00    +0.000 C 
ENDBRANCH  11  14
ENDBRANCH   5  11
ENDBRANCH   1   8
BRANCH   2  16
ATOM     16  C   UNL     1       3.528   4.110  19.656  0.00  0.00    +0.000 A 
ATOM     17  C   UNL     1       3.399   2.825  20.221  0.00  0.00    +0.000 A 
ATOM     18  N   UNL     1       4.547   2.147  20.213  0.00  0.00    +0.000 NA
ATOM     19  O   UNL     1       5.465   2.996  19.617  0.00  0.00    +0.000 OA
ATOM     20  C   UNL     1       4.862   4.178  19.284  0.00  0.00    +0.000 A 
BRANCH  20  21
ATOM     21  C   UNL     1       5.737   5.177  18.668  0.00  0.00    +0.000 A 
ATOM     22  C   UNL     1       6.968   5.509  19.257  0.00  0.00    +0.000 A 
ATOM     23  C   UNL     1       7.821   6.447  18.658  0.00  0.00    +0.000 A 
ATOM     24  C   UNL     1       7.457   7.062  17.464  0.00  0.00    +0.000 A 
ATOM     25  C   UNL     1       6.238   6.758  16.874  0.00  0.00    +0.000 A 
ATOM     26  C   UNL     1       5.381   5.831  17.478  0.00  0.00    +0.000 A 
ENDBRANCH  20  21
ENDBRANCH   2  16
TORSDOF 6
ENDMDL
MODEL 5
REMARK VINA RESULT:      -7.9      0.423      1.276
REMARK  Name = 
REMARK  8 active torsions:
REMARK  status: ('A' for Active; 'I' for Inactive)
REMARK    1  A    between atoms: C_1  and  C_2
REMARK    2  A    between atoms: C_2  and  N_3
REMARK    3  A    between atoms: N_3  and  C_4
REMARK    4  A    between atoms: N_3  and  C_6
REMARK    5  A    between atoms: C_4  and  C_5
REMARK    6  A    between atoms: C_9  and  N_10
REMARK    7  A    between atoms: C_11  and  C_13
REMARK    8  A    between atoms: C_17  and  C_18
REMARK                            x       y       z     vdW  Elec       q    Type
REMARK                         _______ _______ _______ _____ _____    ______ ____
ROOT
ATOM      1  N   UNL     1       2.913   6.385  19.819  0.00  0.00    +0.000 N 
ATOM      2  C   UNL     1       2.541   5.111  19.412  0.00  0.00    +0.000 C 
ATOM      3  O   UNL     1       1.482   4.817  18.870  0.00  0.00    +0.000 OA
ATOM      4  H   UNL     1       3.823   6.503  20.244  0.00  0.00    +0.000 HD
ENDROOT
BRANCH   1   8
ATOM      5  C   UNL     1       0.634   9.899  18.990  0.00  0.00    +0.000 A 
ATOM      6  C   UNL     1       0.686   9.353  20.272  0.00  0.00    +0.000 A 
ATOM      7  C   UNL     1       1.431   8.210  20.566  0.00  0.00    +0.000 A 
ATOM      8  C   UNL     1       2.182   7.574  19.585  0.00  0.00    +0.000 A 
ATOM      9  C   UNL     1       2.184   8.124  18.302  0.00  0.00    +0.000 A 
ATOM     10  C   UNL     1       1.414   9.266  18.012  0.00  0.00    +0.000 A 
BRANCH   5  11
ATOM     11  N   UNL     1      -0.152  11.008  18.715  0.00  0.00    +0.000 N 
BRANCH  11  13
ATOM     12  C   UNL     1       1.615  12.773  18.676  0.00  0.00    +0.000 C 
ATOM     13  C   UNL     1       0.250  12.337  19.189  0.00  0.00    +0.000 C 
ENDBRANCH  11  13
BRANCH  11  14
ATOM     14  C   UNL     1      -1.459  10.850  18.073  0.00  0.00    +0.000 C 
ATOM     15  C   UNL     1      -2.530  11.681  18.771  0.00  0.00    +0.000 C 
ENDBRANCH  11  14
ENDBRANCH   5  11
ENDBRANCH   1   8
BRANCH   2  16
ATOM     16  C   UNL     1       3.533   4.090  19.652  0.00  0.00    +0.000 A 
ATOM     17  C   UNL     1       3.389   2.815  20.238  0.00  0.00    +0.000 A 
ATOM     18  N   UNL     1       4.527   2.121  20.232  0.00  0.00    +0.000 NA
ATOM     19  O   UNL     1       5.452   2.946  19.617  0.00  0.00    +0.000 OA
ATOM     20  C   UNL     1       4.865   4.132  19.270  0.00  0.00    +0.000 A 
BRANCH  20  21
ATOM     21  C   UNL     1       5.751   5.109  18.634  0.00  0.00    +0.000 A 
ATOM     22  C   UNL     1       5.399   5.704  17.412  0.00  0.00    +0.000 A 
ATOM     23  C   UNL     1       6.232   6.659  16.811  0.00  0.00    +0.000 A 
ATOM     24  C   UNL     1       7.424   7.033  17.425  0.00  0.00    +0.000 A 
ATOM     25  C   UNL     1       7.796   6.445  18.626  0.00  0.00    +0.000 A 
ATOM     26  C   UNL     1       6.971   5.483  19.219  0.00  0.00    +0.000 A 
ENDBRANCH  20  21
ENDBRANCH   2  16
TORSDOF 6
ENDMDL
MODEL 6
REMARK VINA RESULT:      -7.9      0.534      1.690
REMARK  Name = 
REMARK  8 active torsions:
REMARK  status: ('A' for Active; 'I' for Inactive)
REMARK    1  A    between atoms: C_1  and  C_2
REMARK    2  A    between atoms: C_2  and  N_3
REMARK    3  A    between atoms: N_3  and  C_4
REMARK    4  A    between atoms: N_3  and  C_6
REMARK    5  A    between atoms: C_4  and  C_5
REMARK    6  A    between atoms: C_9  and  N_10
REMARK    7  A    between atoms: C_11  and  C_13
REMARK    8  A    between atoms: C_17  and  C_18
REMARK                            x       y       z     vdW  Elec       q    Type
REMARK                         _______ _______ _______ _____ _____    ______ ____
ROOT
ATOM      1  N   UNL     1       2.879   6.427  19.883  0.00  0.00    +0.000 N 
ATOM      2  C   UNL     1       2.475   5.150  19.521  0.00  0.00    +0.000 C 
ATOM      3  O   UNL     1       1.376   4.851  19.069  0.00  0.00    +0.000 OA
ATOM      4  H   UNL     1       3.821   6.548  20.233  0.00  0.00    +0.000 HD
ENDROOT
BRANCH   1   8
ATOM      5  C   UNL     1       0.554   9.941  19.195  0.00  0.00    +0.000 A 
ATOM      6  C   UNL     1       0.602   9.337  20.452  0.00  0.00    +0.000 A 
ATOM      7  C   UNL     1       1.363   8.192  20.700  0.00  0.00    +0.000 A 
ATOM      8  C   UNL     1       2.132   7.614  19.697  0.00  0.00    +0.000 A 
ATOM      9  C   UNL     1       2.137   8.223  18.441  0.00  0.00    +0.000 A 
ATOM     10  C   UNL     1       1.352   9.365  18.197  0.00  0.00    +0.000 A 
BRANCH   5  11
ATOM     11  N   UNL     1      -0.247  11.049  18.964  0.00  0.00    +0.000 N 
BRANCH  11  13
ATOM     12  C   UNL     1       1.032  12.977  19.905  0.00  0.00    +0.000 C 
ATOM     13  C   UNL     1      -0.257  12.167  19.914  0.00  0.00    +0.000 C 
ENDBRANCH  11  13
BRANCH  11  14
ATOM     14  C   UNL     1      -1.196  11.059  17.848  0.00  0.00    +0.000 C 
ATOM     15  C   UNL     1      -2.323  10.055  18.063  0.00  0.00    +0.000 C 
ENDBRANCH  11  14
ENDBRANCH   5  11
ENDBRANCH   1   8
BRANCH   2  16
ATOM     16  C   UNL     1       3.484   4.130  19.690  0.00  0.00    +0.000 A 
ATOM     17  C   UNL     1       3.368   2.829  20.224  0.00  0.00    +0.000 A 
ATOM     18  N   UNL     1       4.511   2.148  20.158  0.00  0.00    +0.000 NA
ATOM     19  O   UNL     1       5.412   3.009  19.555  0.00  0.00    +0.000 OA
ATOM     20  C   UNL     1       4.804   4.202  19.275  0.00  0.00    +0.000 A 
BRANCH  20  21
ATOM     21  C   UNL     1       5.663   5.215  18.658  0.00  0.00    +0.000 A 
ATOM     22  C   UNL     1       6.924   5.508  19.198  0.00  0.00    +0.000 A 
ATOM     23  C   UNL     1       7.761   6.458  18.596  0.00  0.00    +0.000 A 
ATOM     24  C   UNL     1       7.349   7.126  17.446  0.00  0.00    +0.000 A 
ATOM     25  C   UNL     1       6.099   6.860  16.905  0.00  0.00    +0.000 A 
ATOM     26  C   UNL     1       5.259   5.920  17.513  0.00  0.00    +0.000 A 
ENDBRANCH  20  21
ENDBRANCH   2  16
TORSDOF 6
ENDMDL
MODEL 7
REMARK VINA RESULT:      -7.8      0.629      1.149
REMARK  Name = 
REMARK  8 active torsions:
REMARK  status: ('A' for Active; 'I' for Inactive)
REMARK    1  A    between atoms: C_1  and  C_2
REMARK    2  A    between atoms: C_2  and  N_3
REMARK    3  A    between atoms: N_3  and  C_4
REMARK    4  A    between atoms: N_3  and  C_6
REMARK    5  A    between atoms: C_4  and  C_5
REMARK    6  A    between atoms: C_9  and  N_10
REMARK    7  A    between atoms: C_11  and  C_13
REMARK    8  A    between atoms: C_17  and  C_18
REMARK                            x       y       z     vdW  Elec       q    Type
REMARK                         _______ _______ _______ _____ _____    ______ ____
ROOT
ATOM      1  N   UNL     1       2.719   6.514  19.964  0.00  0.00    +0.000 N 
ATOM      2  C   UNL     1       2.559   5.350  19.225  0.00  0.00    +0.000 C 
ATOM      3  O   UNL     1       1.704   5.161  18.368  0.00  0.00    +0.000 OA
ATOM      4  H   UNL     1       3.474   6.553  20.636  0.00  0.00    +0.000 HD
ENDROOT
BRANCH   1   8
ATOM      5  C   UNL     1       0.590  10.192  19.551  0.00  0.00    +0.000 A 
ATOM      6  C   UNL     1       1.301   9.640  18.484  0.00  0.00    +0.000 A 
ATOM      7  C   UNL     1       1.996   8.435  18.596  0.00  0.00    +0.000 A 
ATOM      8  C   UNL     1       1.990   7.713  19.784  0.00  0.00    +0.000 A 
ATOM      9  C   UNL     1       1.251   8.219  20.855  0.00  0.00    +0.000 A 
ATOM     10  C   UNL     1       0.569   9.445  20.736  0.00  0.00    +0.000 A 
BRANCH   5  11
ATOM     11  N   UNL     1      -0.053  11.414  19.427  0.00  0.00    +0.000 N 
BRANCH  11  13
ATOM     12  C   UNL     1      -2.430  11.733  18.729  0.00  0.00    +0.000 C 
ATOM     13  C   UNL     1      -1.441  11.569  19.875  0.00  0.00    +0.000 C 
ENDBRANCH  11  13
BRANCH  11  14
ATOM     14  C   UNL     1       0.592  12.523  18.719  0.00  0.00    +0.000 C 
ATOM     15  C   UNL     1       0.654  13.778  19.583  0.00  0.00    +0.000 C 
ENDBRANCH  11  14
ENDBRANCH   5  11
ENDBRANCH   1   8
BRANCH   2  16
ATOM     16  C   UNL     1       3.526   4.317  19.515  0.00  0.00    +0.000 A 
ATOM     17  C   UNL     1       3.332   3.033  20.066  0.00  0.00    +0.000 A 
ATOM     18  N   UNL     1       4.463   2.330  20.127  0.00  0.00    +0.000 NA
ATOM     19  O   UNL     1       5.435   3.159  19.595  0.00  0.00    +0.000 OA
ATOM     20  C   UNL     1       4.881   4.355  19.229  0.00  0.00    +0.000 A 
BRANCH  20  21
ATOM     21  C   UNL     1       5.816   5.337  18.675  0.00  0.00    +0.000 A 
ATOM     22  C   UNL     1       5.471   6.096  17.546  0.00  0.00    +0.000 A 
ATOM     23  C   UNL     1       6.352   7.054  17.028  0.00  0.00    +0.000 A 
ATOM     24  C   UNL     1       7.588   7.269  17.632  0.00  0.00    +0.000 A 
ATOM     25  C   UNL     1       7.954   6.518  18.741  0.00  0.00    +0.000 A 
ATOM     26  C   UNL     1       7.079   5.552  19.251  0.00  0.00    +0.000 A 
ENDBRANCH  20  21
ENDBRANCH   2  16
TORSDOF 6
ENDMDL
MODEL 8
REMARK VINA RESULT:      -7.8      0.981      1.449
REMARK  Name = 
REMARK  8 active torsions:
REMARK  status: ('A' for Active; 'I' for Inactive)
REMARK    1  A    between atoms: C_1  and  C_2
REMARK    2  A    between atoms: C_2  and  N_3
REMARK    3  A    between atoms: N_3  and  C_4
REMARK    4  A    between atoms: N_3  and  C_6
REMARK    5  A    between atoms: C_4  and  C_5
REMARK    6  A    between atoms: C_9  and  N_10
REMARK    7  A    between atoms: C_11  and  C_13
REMARK    8  A    between atoms: C_17  and  C_18
REMARK                            x       y       z     vdW  Elec       q    Type
REMARK                         _______ _______ _______ _____ _____    ______ ____
ROOT
ATOM      1  N   UNL     1       2.677   6.275  20.038  0.00  0.00    +0.000 N 
ATOM      2  C   UNL     1       2.478   5.119  19.296  0.00  0.00    +0.000 C 
ATOM      3  O   UNL     1       1.671   4.988  18.383  0.00  0.00    +0.000 OA
ATOM      4  H   UNL     1       3.386   6.263  20.759  0.00  0.00    +0.000 HD
ENDROOT
BRANCH   1   8
ATOM      5  C   UNL     1       0.748   9.989  19.190  0.00  0.00    +0.000 A 
ATOM      6  C   UNL     1       0.622   9.372  20.435  0.00  0.00    +0.000 A 
ATOM      7  C   UNL     1       1.251   8.163  20.735  0.00  0.00    +0.000 A 
ATOM      8  C   UNL     1       2.059   7.526  19.801  0.00  0.00    +0.000 A 
ATOM      9  C   UNL     1       2.239   8.141  18.561  0.00  0.00    +0.000 A 
ATOM     10  C   UNL     1       1.584   9.352  18.263  0.00  0.00    +0.000 A 
BRANCH   5  11
ATOM     11  N   UNL     1       0.075  11.166  18.902  0.00  0.00    +0.000 N 
BRANCH  11  13
ATOM     12  C   UNL     1      -1.764  10.168  17.538  0.00  0.00    +0.000 C 
ATOM     13  C   UNL     1      -1.367  11.148  18.633  0.00  0.00    +0.000 C 
ENDBRANCH  11  13
BRANCH  11  14
ATOM     14  C   UNL     1       0.814  12.418  18.721  0.00  0.00    +0.000 C 
ATOM     15  C   UNL     1      -0.125  13.590  18.456  0.00  0.00    +0.000 C 
ENDBRANCH  11  14
ENDBRANCH   5  11
ENDBRANCH   1   8
BRANCH   2  16
ATOM     16  C   UNL     1       3.338   4.017  19.657  0.00  0.00    +0.000 A 
ATOM     17  C   UNL     1       3.191   3.060  20.682  0.00  0.00    +0.000 A 
ATOM     18  N   UNL     1       4.163   2.148  20.671  0.00  0.00    +0.000 NA
ATOM     19  O   UNL     1       4.975   2.497  19.605  0.00  0.00    +0.000 OA
ATOM     20  C   UNL     1       4.489   3.620  18.994  0.00  0.00    +0.000 A 
BRANCH  20  21
ATOM     21  C   UNL     1       5.278   4.111  17.863  0.00  0.00    +0.000 A 
ATOM     22  C   UNL     1       6.530   4.711  18.071  0.00  0.00    +0.000 A 
ATOM     23  C   UNL     1       7.301   5.159  16.989  0.00  0.00    +0.000 A 
ATOM     24  C   UNL     1       6.833   5.012  15.687  0.00  0.00    +0.000 A 
ATOM     25  C   UNL     1       5.591   4.434  15.461  0.00  0.00    +0.000 A 
ATOM     26  C   UNL     1       4.816   3.998  16.542  0.00  0.00    +0.000 A 
ENDBRANCH  20  21
ENDBRANCH   2  16
TORSDOF 6
ENDMDL
MODEL 9
REMARK VINA RESULT:      -7.8      1.075      2.258
REMARK  Name = 
REMARK  8 active torsions:
REMARK  status: ('A' for Active; 'I' for Inactive)
REMARK    1  A    between atoms: C_1  and  C_2
REMARK    2  A    between atoms: C_2  and  N_3
REMARK    3  A    between atoms: N_3  and  C_4
REMARK    4  A    between atoms: N_3  and  C_6
REMARK    5  A    between atoms: C_4  and  C_5
REMARK    6  A    between atoms: C_9  and  N_10
REMARK    7  A    between atoms: C_11  and  C_13
REMARK    8  A    between atoms: C_17  and  C_18
REMARK                            x       y       z     vdW  Elec       q    Type
REMARK                         _______ _______ _______ _____ _____    ______ ____
ROOT
ATOM      1  N   UNL     1       2.849   6.221  19.854  0.00  0.00    +0.000 N 
ATOM      2  C   UNL     1       2.459   4.970  19.395  0.00  0.00    +0.000 C 
ATOM      3  O   UNL     1       1.461   4.736  18.725  0.00  0.00    +0.000 OA
ATOM      4  H   UNL     1       3.705   6.287  20.389  0.00  0.00    +0.000 HD
ENDROOT
BRANCH   1   8
ATOM      5  C   UNL     1       1.012   9.989  19.043  0.00  0.00    +0.000 A 
ATOM      6  C   UNL     1       1.740   9.310  18.065  0.00  0.00    +0.000 A 
ATOM      7  C   UNL     1       2.341   8.073  18.308  0.00  0.00    +0.000 A 
ATOM      8  C   UNL     1       2.218   7.448  19.543  0.00  0.00    +0.000 A 
ATOM      9  C   UNL     1       1.459   8.084  20.527  0.00  0.00    +0.000 A 
ATOM     10  C   UNL     1       0.873   9.340  20.277  0.00  0.00    +0.000 A 
BRANCH   5  11
ATOM     11  N   UNL     1       0.465  11.238  18.791  0.00  0.00    +0.000 N 
BRANCH  11  13
ATOM     12  C   UNL     1       1.759  12.982  20.025  0.00  0.00    +0.000 C 
ATOM     13  C   UNL     1       1.331  12.417  18.677  0.00  0.00    +0.000 C 
ENDBRANCH  11  13
BRANCH  11  14
ATOM     14  C   UNL     1      -0.988  11.421  18.777  0.00  0.00    +0.000 C 
ATOM     15  C   UNL     1      -1.662  10.482  17.783  0.00  0.00    +0.000 C 
ENDBRANCH  11  14
ENDBRANCH   5  11
ENDBRANCH   1   8
BRANCH   2  16
ATOM     16  C   UNL     1       3.358   3.895  19.746  0.00  0.00    +0.000 A 
ATOM     17  C   UNL     1       3.243   2.922  20.760  0.00  0.00    +0.000 A 
ATOM     18  N   UNL     1       4.247   2.045  20.740  0.00  0.00    +0.000 NA
ATOM     19  O   UNL     1       5.046   2.433  19.679  0.00  0.00    +0.000 OA
ATOM     20  C   UNL     1       4.522   3.545  19.080  0.00  0.00    +0.000 A 
BRANCH  20  21
ATOM     21  C   UNL     1       5.294   4.076  17.954  0.00  0.00    +0.000 A 
ATOM     22  C   UNL     1       6.541   4.684  18.167  0.00  0.00    +0.000 A 
ATOM     23  C   UNL     1       7.296   5.171  17.091  0.00  0.00    +0.000 A 
ATOM     24  C   UNL     1       6.817   5.053  15.789  0.00  0.00    +0.000 A 
ATOM     25  C   UNL     1       5.580   4.467  15.560  0.00  0.00    +0.000 A 
ATOM     26  C   UNL     1       4.820   3.993  16.636  0.00  0.00    +0.000 A 
ENDBRANCH  20  21
ENDBRANCH   2  16
TORSDOF 6
ENDMDL
