MODEL 1
REMARK VINA RESULT:      -7.4      0.000      0.000
REMARK  Name = 
REMARK  3 active torsions:
REMARK  status: ('A' for Active; 'I' for Inactive)
REMARK    1  A    between atoms: C_1  and  C_2
REMARK    2  A    between atoms: C_7  and  C_8
REMARK    3  A    between atoms: C_15  and  C_16
REMARK                            x       y       z     vdW  Elec       q    Type
REMARK                         _______ _______ _______ _____ _____    ______ ____
ROOT
ATOM      1  C   UNL     1       3.930   4.796  17.259  0.00  0.00    +0.000 C 
ATOM      2  C   UNL     1       3.233   5.920  17.933  0.00  0.00    +0.000 A 
ATOM      3  N   UNL     1       3.287   7.203  17.437  0.00  0.00    +0.000 N 
ATOM      4  C   UNL     1       2.549   8.058  18.223  0.00  0.00    +0.000 A 
ATOM      5  C   UNL     1       2.307   9.428  18.081  0.00  0.00    +0.000 A 
ATOM      6  C   UNL     1       1.512  10.049  19.052  0.00  0.00    +0.000 A 
ATOM      7  C   UNL     1       0.968   9.337  20.130  0.00  0.00    +0.000 A 
ATOM      8  C   UNL     1       1.222   7.958  20.236  0.00  0.00    +0.000 A 
ATOM      9  C   UNL     1       2.022   7.307  19.269  0.00  0.00    +0.000 A 
ATOM     10  C   UNL     1       2.443   5.959  19.065  0.00  0.00    +0.000 A 
ATOM     11  H   UNL     1       3.783   7.481  16.603  0.00  0.00    +0.000 HD
ENDROOT
BRANCH  10  12
ATOM     12  C   UNL     1       2.073   4.829  19.851  0.00  0.00    +0.000 C 
ATOM     13  C   UNL     1       2.548   4.606  21.089  0.00  0.00    +0.000 C 
ATOM     14  C   UNL     1       2.223   3.381  21.887  0.00  0.00    +0.000 C 
ATOM     15  N   UNL     1       1.150   2.556  21.322  0.00  0.00    +0.000 NA
ATOM     16  C   UNL     1       1.287   2.448  19.863  0.00  0.00    +0.000 C 
ATOM     17  C   UNL     1       1.184   3.820  19.174  0.00  0.00    +0.000 C 
ATOM     18  H   UNL     1       0.261   3.006  21.533  0.00  0.00    +0.000 HD
ENDBRANCH  10  12
BRANCH   7  19
ATOM     19  C   UNL     1       0.150  10.005  21.147  0.00  0.00    +0.000 A 
ATOM     20  C   UNL     1      -0.183   9.513  22.454  0.00  0.00    +0.000 A 
ATOM     21  C   UNL     1      -0.973  10.386  23.170  0.00  0.00    +0.000 A 
ATOM     22  S   UNL     1      -1.325  11.801  22.283  0.00  0.00    +0.000 S 
ATOM     23  C   UNL     1      -0.428  11.244  20.937  0.00  0.00    +0.000 A 
ENDBRANCH   7  19
TORSDOF 2
ENDMDL
MODEL 2
REMARK VINA RESULT:      -7.3      2.282      4.809
REMARK  Name = 
REMARK  3 active torsions:
REMARK  status: ('A' for Active; 'I' for Inactive)
REMARK    1  A    between atoms: C_1  and  C_2
REMARK    2  A    between atoms: C_7  and  C_8
REMARK    3  A    between atoms: C_15  and  C_16
REMARK                            x       y       z     vdW  Elec       q    Type
REMARK                         _______ _______ _______ _____ _____    ______ ____
ROOT
ATOM      1  C   UNL     1       4.552   1.516  19.117  0.00  0.00    +0.000 C 
ATOM      2  C   UNL     1       3.921   2.853  19.237  0.00  0.00    +0.000 A 
ATOM      3  N   UNL     1       2.918   3.098  20.149  0.00  0.00    +0.000 N 
ATOM      4  C   UNL     1       2.512   4.412  20.081  0.00  0.00    +0.000 A 
ATOM      5  C   UNL     1       1.550   5.095  20.831  0.00  0.00    +0.000 A 
ATOM      6  C   UNL     1       1.338   6.447  20.533  0.00  0.00    +0.000 A 
ATOM      7  C   UNL     1       2.058   7.106  19.527  0.00  0.00    +0.000 A 
ATOM      8  C   UNL     1       3.026   6.390  18.800  0.00  0.00    +0.000 A 
ATOM      9  C   UNL     1       3.259   5.025  19.081  0.00  0.00    +0.000 A 
ATOM     10  C   UNL     1       4.156   4.039  18.570  0.00  0.00    +0.000 A 
ATOM     11  H   UNL     1       2.542   2.418  20.792  0.00  0.00    +0.000 HD
ENDROOT
BRANCH  10  12
ATOM     12  C   UNL     1       5.166   4.245  17.585  0.00  0.00    +0.000 C 
ATOM     13  C   UNL     1       5.053   3.816  16.315  0.00  0.00    +0.000 C 
ATOM     14  C   UNL     1       6.142   3.960  15.297  0.00  0.00    +0.000 C 
ATOM     15  N   UNL     1       7.251   4.823  15.715  0.00  0.00    +0.000 NA
ATOM     16  C   UNL     1       7.607   4.576  17.118  0.00  0.00    +0.000 C 
ATOM     17  C   UNL     1       6.438   4.887  18.070  0.00  0.00    +0.000 C 
ATOM     18  H   UNL     1       6.950   5.792  15.621  0.00  0.00    +0.000 HD
ENDBRANCH  10  12
BRANCH   7  19
ATOM     19  C   UNL     1       1.813   8.517  19.218  0.00  0.00    +0.000 A 
ATOM     20  C   UNL     1       2.181   9.221  18.022  0.00  0.00    +0.000 A 
ATOM     21  C   UNL     1       1.805  10.546  18.042  0.00  0.00    +0.000 A 
ATOM     22  S   UNL     1       1.012  10.962  19.494  0.00  0.00    +0.000 S 
ATOM     23  C   UNL     1       1.177   9.371  20.102  0.00  0.00    +0.000 A 
ENDBRANCH   7  19
TORSDOF 2
ENDMDL
MODEL 3
REMARK VINA RESULT:      -7.1      2.254      4.696
REMARK  Name = 
REMARK  3 active torsions:
REMARK  status: ('A' for Active; 'I' for Inactive)
REMARK    1  A    between atoms: C_1  and  C_2
REMARK    2  A    between atoms: C_7  and  C_8
REMARK    3  A    between atoms: C_15  and  C_16
REMARK                            x       y       z     vdW  Elec       q    Type
REMARK                         _______ _______ _______ _____ _____    ______ ____
ROOT
ATOM      1  C   UNL     1       4.540   1.486  19.131  0.00  0.00    +0.000 C 
ATOM      2  C   UNL     1       3.900   2.820  19.244  0.00  0.00    +0.000 A 
ATOM      3  N   UNL     1       2.862   3.049  20.120  0.00  0.00    +0.000 N 
ATOM      4  C   UNL     1       2.453   4.362  20.054  0.00  0.00    +0.000 A 
ATOM      5  C   UNL     1       1.460   5.032  20.775  0.00  0.00    +0.000 A 
ATOM      6  C   UNL     1       1.254   6.387  20.487  0.00  0.00    +0.000 A 
ATOM      7  C   UNL     1       2.011   7.062  19.519  0.00  0.00    +0.000 A 
ATOM      8  C   UNL     1       3.009   6.359  18.820  0.00  0.00    +0.000 A 
ATOM      9  C   UNL     1       3.236   4.991  19.092  0.00  0.00    +0.000 A 
ATOM     10  C   UNL     1       4.156   4.015  18.603  0.00  0.00    +0.000 A 
ATOM     11  H   UNL     1       2.464   2.360  20.739  0.00  0.00    +0.000 HD
ENDROOT
BRANCH  10  12
ATOM     12  C   UNL     1       5.202   4.237  17.660  0.00  0.00    +0.000 C 
ATOM     13  C   UNL     1       6.443   4.613  18.013  0.00  0.00    +0.000 C 
ATOM     14  C   UNL     1       7.523   4.923  17.022  0.00  0.00    +0.000 C 
ATOM     15  N   UNL     1       7.203   4.549  15.641  0.00  0.00    +0.000 NA
ATOM     16  C   UNL     1       5.811   4.887  15.316  0.00  0.00    +0.000 C 
ATOM     17  C   UNL     1       4.814   4.129  16.209  0.00  0.00    +0.000 C 
ATOM     18  H   UNL     1       7.323   3.541  15.551  0.00  0.00    +0.000 HD
ENDBRANCH  10  12
BRANCH   7  19
ATOM     19  C   UNL     1       1.772   8.476  19.218  0.00  0.00    +0.000 A 
ATOM     20  C   UNL     1       2.190   9.199  18.050  0.00  0.00    +0.000 A 
ATOM     21  C   UNL     1       1.807  10.522  18.072  0.00  0.00    +0.000 A 
ATOM     22  S   UNL     1       0.946  10.913  19.493  0.00  0.00    +0.000 S 
ATOM     23  C   UNL     1       1.092   9.314  20.084  0.00  0.00    +0.000 A 
ENDBRANCH   7  19
TORSDOF 2
ENDMDL
MODEL 4
REMARK VINA RESULT:      -7.1      2.381      4.802
REMARK  Name = 
REMARK  3 active torsions:
REMARK  status: ('A' for Active; 'I' for Inactive)
REMARK    1  A    between atoms: C_1  and  C_2
REMARK    2  A    between atoms: C_7  and  C_8
REMARK    3  A    between atoms: C_15  and  C_16
REMARK                            x       y       z     vdW  Elec       q    Type
REMARK                         _______ _______ _______ _____ _____    ______ ____
ROOT
ATOM      1  C   UNL     1       4.439   1.190  18.658  0.00  0.00    +0.000 C 
ATOM      2  C   UNL     1       3.793   2.497  18.934  0.00  0.00    +0.000 A 
ATOM      3  N   UNL     1       2.748   2.611  19.824  0.00  0.00    +0.000 N 
ATOM      4  C   UNL     1       2.336   3.921  19.922  0.00  0.00    +0.000 A 
ATOM      5  C   UNL     1       1.336   4.492  20.715  0.00  0.00    +0.000 A 
ATOM      6  C   UNL     1       1.128   5.873  20.600  0.00  0.00    +0.000 A 
ATOM      7  C   UNL     1       1.890   6.666  19.730  0.00  0.00    +0.000 A 
ATOM      8  C   UNL     1       2.895   6.060  18.956  0.00  0.00    +0.000 A 
ATOM      9  C   UNL     1       3.124   4.669  19.054  0.00  0.00    +0.000 A 
ATOM     10  C   UNL     1       4.050   3.765  18.452  0.00  0.00    +0.000 A 
ATOM     11  H   UNL     1       2.348   1.848  20.348  0.00  0.00    +0.000 HD
ENDROOT
BRANCH  10  12
ATOM     12  C   UNL     1       5.103   4.107  17.553  0.00  0.00    +0.000 C 
ATOM     13  C   UNL     1       5.065   3.832  16.237  0.00  0.00    +0.000 C 
ATOM     14  C   UNL     1       6.200   4.118  15.303  0.00  0.00    +0.000 C 
ATOM     15  N   UNL     1       7.264   4.946  15.878  0.00  0.00    +0.000 NA
ATOM     16  C   UNL     1       7.555   4.539  17.259  0.00  0.00    +0.000 C 
ATOM     17  C   UNL     1       6.332   4.711  18.177  0.00  0.00    +0.000 C 
ATOM     18  H   UNL     1       6.943   5.913  15.884  0.00  0.00    +0.000 HD
ENDBRANCH  10  12
BRANCH   7  19
ATOM     19  C   UNL     1       1.649   8.107  19.610  0.00  0.00    +0.000 A 
ATOM     20  C   UNL     1       1.089   8.980  20.603  0.00  0.00    +0.000 A 
ATOM     21  C   UNL     1       0.993  10.286  20.176  0.00  0.00    +0.000 A 
ATOM     22  S   UNL     1       1.570  10.480  18.581  0.00  0.00    +0.000 S 
ATOM     23  C   UNL     1       1.941   8.814  18.457  0.00  0.00    +0.000 A 
ENDBRANCH   7  19
TORSDOF 2
ENDMDL
MODEL 5
REMARK VINA RESULT:      -6.9      0.376      1.129
REMARK  Name = 
REMARK  3 active torsions:
REMARK  status: ('A' for Active; 'I' for Inactive)
REMARK    1  A    between atoms: C_1  and  C_2
REMARK    2  A    between atoms: C_7  and  C_8
REMARK    3  A    between atoms: C_15  and  C_16
REMARK                            x       y       z     vdW  Elec       q    Type
REMARK                         _______ _______ _______ _____ _____    ______ ____
ROOT
ATOM      1  C   UNL     1       4.157   4.922  16.851  0.00  0.00    +0.000 C 
ATOM      2  C   UNL     1       3.448   5.991  17.596  0.00  0.00    +0.000 A 
ATOM      3  N   UNL     1       3.492   7.305  17.187  0.00  0.00    +0.000 N 
ATOM      4  C   UNL     1       2.743   8.100  18.026  0.00  0.00    +0.000 A 
ATOM      5  C   UNL     1       2.489   9.473  17.974  0.00  0.00    +0.000 A 
ATOM      6  C   UNL     1       1.686  10.021  18.983  0.00  0.00    +0.000 A 
ATOM      7  C   UNL     1       1.146   9.233  20.009  0.00  0.00    +0.000 A 
ATOM      8  C   UNL     1       1.413   7.853  20.023  0.00  0.00    +0.000 A 
ATOM      9  C   UNL     1       2.221   7.276  19.017  0.00  0.00    +0.000 A 
ATOM     10  C   UNL     1       2.655   5.948  18.726  0.00  0.00    +0.000 A 
ATOM     11  H   UNL     1       3.987   7.643  16.375  0.00  0.00    +0.000 HD
ENDROOT
BRANCH  10  12
ATOM     12  C   UNL     1       2.293   4.765  19.433  0.00  0.00    +0.000 C 
ATOM     13  C   UNL     1       1.369   3.895  18.989  0.00  0.00    +0.000 C 
ATOM     14  C   UNL     1       0.929   2.692  19.766  0.00  0.00    +0.000 C 
ATOM     15  N   UNL     1       1.756   2.393  20.939  0.00  0.00    +0.000 NA
ATOM     16  C   UNL     1       2.107   3.625  21.659  0.00  0.00    +0.000 C 
ATOM     17  C   UNL     1       2.933   4.584  20.784  0.00  0.00    +0.000 C 
ATOM     18  H   UNL     1       2.613   1.948  20.616  0.00  0.00    +0.000 HD
ENDBRANCH  10  12
BRANCH   7  19
ATOM     19  C   UNL     1       0.320   9.825  21.066  0.00  0.00    +0.000 A 
ATOM     20  C   UNL     1      -0.004   9.248  22.340  0.00  0.00    +0.000 A 
ATOM     21  C   UNL     1      -0.806  10.063  23.109  0.00  0.00    +0.000 A 
ATOM     22  S   UNL     1      -1.182  11.525  22.311  0.00  0.00    +0.000 S 
ATOM     23  C   UNL     1      -0.278  11.066  20.933  0.00  0.00    +0.000 A 
ENDBRANCH   7  19
TORSDOF 2
ENDMDL
MODEL 6
REMARK VINA RESULT:      -6.8      1.047      1.370
REMARK  Name = 
REMARK  3 active torsions:
REMARK  status: ('A' for Active; 'I' for Inactive)
REMARK    1  A    between atoms: C_1  and  C_2
REMARK    2  A    between atoms: C_7  and  C_8
REMARK    3  A    between atoms: C_15  and  C_16
REMARK                            x       y       z     vdW  Elec       q    Type
REMARK                         _______ _______ _______ _____ _____    ______ ____
ROOT
ATOM      1  C   UNL     1       4.617   4.638  17.103  0.00  0.00    +0.000 C 
ATOM      2  C   UNL     1       3.824   5.723  17.732  0.00  0.00    +0.000 A 
ATOM      3  N   UNL     1       3.648   6.940  17.112  0.00  0.00    +0.000 N 
ATOM      4  C   UNL     1       2.863   7.768  17.882  0.00  0.00    +0.000 A 
ATOM      5  C   UNL     1       2.413   9.068  17.634  0.00  0.00    +0.000 A 
ATOM      6  C   UNL     1       1.623   9.679  18.616  0.00  0.00    +0.000 A 
ATOM      7  C   UNL     1       1.283   9.021  19.807  0.00  0.00    +0.000 A 
ATOM      8  C   UNL     1       1.744   7.710  20.019  0.00  0.00    +0.000 A 
ATOM      9  C   UNL     1       2.543   7.072  19.043  0.00  0.00    +0.000 A 
ATOM     10  C   UNL     1       3.138   5.779  18.929  0.00  0.00    +0.000 A 
ATOM     11  H   UNL     1       4.024   7.190  16.210  0.00  0.00    +0.000 HD
ENDROOT
BRANCH  10  12
ATOM     12  C   UNL     1       3.004   4.703  19.854  0.00  0.00    +0.000 C 
ATOM     13  C   UNL     1       3.865   3.671  19.911  0.00  0.00    +0.000 C 
ATOM     14  C   UNL     1       3.685   2.499  20.826  0.00  0.00    +0.000 C 
ATOM     15  N   UNL     1       2.636   2.673  21.835  0.00  0.00    +0.000 NA
ATOM     16  C   UNL     1       1.452   3.316  21.251  0.00  0.00    +0.000 C 
ATOM     17  C   UNL     1       1.769   4.723  20.713  0.00  0.00    +0.000 C 
ATOM     18  H   UNL     1       3.002   3.272  22.572  0.00  0.00    +0.000 HD
ENDBRANCH  10  12
BRANCH   7  19
ATOM     19  C   UNL     1       0.468   9.680  20.832  0.00  0.00    +0.000 A 
ATOM     20  C   UNL     1      -0.287  10.893  20.693  0.00  0.00    +0.000 A 
ATOM     21  C   UNL     1      -0.947  11.248  21.849  0.00  0.00    +0.000 A 
ATOM     22  S   UNL     1      -0.666  10.135  23.112  0.00  0.00    +0.000 S 
ATOM     23  C   UNL     1       0.346   9.180  22.116  0.00  0.00    +0.000 A 
ENDBRANCH   7  19
TORSDOF 2
ENDMDL
MODEL 7
REMARK VINA RESULT:      -6.8      3.191      6.165
REMARK  Name = 
REMARK  3 active torsions:
REMARK  status: ('A' for Active; 'I' for Inactive)
REMARK    1  A    between atoms: C_1  and  C_2
REMARK    2  A    between atoms: C_7  and  C_8
REMARK    3  A    between atoms: C_15  and  C_16
REMARK                            x       y       z     vdW  Elec       q    Type
REMARK                         _______ _______ _______ _____ _____    ______ ____
ROOT
ATOM      1  C   UNL     1       0.712  12.229  18.688  0.00  0.00    +0.000 C 
ATOM      2  C   UNL     1       1.165  10.820  18.797  0.00  0.00    +0.000 A 
ATOM      3  N   UNL     1       1.931  10.230  17.817  0.00  0.00    +0.000 N 
ATOM      4  C   UNL     1       2.238   8.932  18.156  0.00  0.00    +0.000 A 
ATOM      5  C   UNL     1       3.006   7.982  17.476  0.00  0.00    +0.000 A 
ATOM      6  C   UNL     1       3.142   6.718  18.064  0.00  0.00    +0.000 A 
ATOM      7  C   UNL     1       2.542   6.404  19.292  0.00  0.00    +0.000 A 
ATOM      8  C   UNL     1       1.785   7.387  19.953  0.00  0.00    +0.000 A 
ATOM      9  C   UNL     1       1.632   8.671  19.381  0.00  0.00    +0.000 A 
ATOM     10  C   UNL     1       0.976   9.872  19.784  0.00  0.00    +0.000 A 
ATOM     11  H   UNL     1       2.243  10.687  16.974  0.00  0.00    +0.000 HD
ENDROOT
BRANCH  10  12
ATOM     12  C   UNL     1       0.291  10.089  21.015  0.00  0.00    +0.000 C 
ATOM     13  C   UNL     1      -0.306  11.252  21.330  0.00  0.00    +0.000 C 
ATOM     14  C   UNL     1      -0.959  11.511  22.653  0.00  0.00    +0.000 C 
ATOM     15  N   UNL     1      -1.118  10.320  23.493  0.00  0.00    +0.000 NA
ATOM     16  C   UNL     1       0.082   9.476  23.437  0.00  0.00    +0.000 C 
ATOM     17  C   UNL     1       0.357   8.964  22.013  0.00  0.00    +0.000 C 
ATOM     18  H   UNL     1      -1.909   9.786  23.137  0.00  0.00    +0.000 HD
ENDBRANCH  10  12
BRANCH   7  19
ATOM     19  C   UNL     1       2.681   5.072  19.886  0.00  0.00    +0.000 A 
ATOM     20  C   UNL     1       1.993   4.558  21.037  0.00  0.00    +0.000 A 
ATOM     21  C   UNL     1       2.351   3.263  21.341  0.00  0.00    +0.000 A 
ATOM     22  S   UNL     1       3.517   2.651  20.255  0.00  0.00    +0.000 S 
ATOM     23  C   UNL     1       3.550   4.121  19.380  0.00  0.00    +0.000 A 
ENDBRANCH   7  19
TORSDOF 2
ENDMDL
MODEL 8
REMARK VINA RESULT:      -6.7      2.205      4.576
REMARK  Name = 
REMARK  3 active torsions:
REMARK  status: ('A' for Active; 'I' for Inactive)
REMARK    1  A    between atoms: C_1  and  C_2
REMARK    2  A    between atoms: C_7  and  C_8
REMARK    3  A    between atoms: C_15  and  C_16
REMARK                            x       y       z     vdW  Elec       q    Type
REMARK                         _______ _______ _______ _____ _____    ______ ____
ROOT
ATOM      1  C   UNL     1       4.400   1.479  17.891  0.00  0.00    +0.000 C 
ATOM      2  C   UNL     1       3.737   2.690  18.435  0.00  0.00    +0.000 A 
ATOM      3  N   UNL     1       2.681   2.600  19.315  0.00  0.00    +0.000 N 
ATOM      4  C   UNL     1       2.253   3.853  19.689  0.00  0.00    +0.000 A 
ATOM      5  C   UNL     1       1.238   4.231  20.573  0.00  0.00    +0.000 A 
ATOM      6  C   UNL     1       1.017   5.601  20.757  0.00  0.00    +0.000 A 
ATOM      7  C   UNL     1       1.779   6.571  20.091  0.00  0.00    +0.000 A 
ATOM      8  C   UNL     1       2.799   6.156  19.217  0.00  0.00    +0.000 A 
ATOM      9  C   UNL     1       3.043   4.778  19.014  0.00  0.00    +0.000 A 
ATOM     10  C   UNL     1       3.986   4.034  18.243  0.00  0.00    +0.000 A 
ATOM     11  H   UNL     1       2.283   1.738  19.654  0.00  0.00    +0.000 HD
ENDROOT
BRANCH  10  12
ATOM     12  C   UNL     1       5.044   4.572  17.453  0.00  0.00    +0.000 C 
ATOM     13  C   UNL     1       6.075   5.260  17.974  0.00  0.00    +0.000 C 
ATOM     14  C   UNL     1       7.147   5.894  17.142  0.00  0.00    +0.000 C 
ATOM     15  N   UNL     1       7.129   5.501  15.730  0.00  0.00    +0.000 NA
ATOM     16  C   UNL     1       5.754   5.456  15.217  0.00  0.00    +0.000 C 
ATOM     17  C   UNL     1       4.897   4.419  15.963  0.00  0.00    +0.000 C 
ATOM     18  H   UNL     1       7.535   4.570  15.656  0.00  0.00    +0.000 HD
ENDBRANCH  10  12
BRANCH   7  19
ATOM     19  C   UNL     1       1.524   8.001  20.283  0.00  0.00    +0.000 A 
ATOM     20  C   UNL     1       1.259   8.678  21.521  0.00  0.00    +0.000 A 
ATOM     21  C   UNL     1       1.060  10.031  21.360  0.00  0.00    +0.000 A 
ATOM     22  S   UNL     1       1.184  10.505  19.726  0.00  0.00    +0.000 S 
ATOM     23  C   UNL     1       1.497   8.898  19.229  0.00  0.00    +0.000 A 
ENDBRANCH   7  19
TORSDOF 2
ENDMDL
MODEL 9
REMARK VINA RESULT:      -6.7      5.365      8.030
REMARK  Name = 
REMARK  3 active torsions:
REMARK  status: ('A' for Active; 'I' for Inactive)
REMARK    1  A    between atoms: C_1  and  C_2
REMARK    2  A    between atoms: C_7  and  C_8
REMARK    3  A    between atoms: C_15  and  C_16
REMARK                            x       y       z     vdW  Elec       q    Type
REMARK                         _______ _______ _______ _____ _____    ______ ____
ROOT
ATOM      1  C   UNL     1      -2.818  10.562  15.158  0.00  0.00    +0.000 C 
ATOM      2  C   UNL     1      -3.578  10.983  16.361  0.00  0.00    +0.000 A 
ATOM      3  N   UNL     1      -4.952  11.076  16.350  0.00  0.00    +0.000 N 
ATOM      4  C   UNL     1      -5.421  11.466  17.584  0.00  0.00    +0.000 A 
ATOM      5  C   UNL     1      -6.732  11.660  18.028  0.00  0.00    +0.000 A 
ATOM      6  C   UNL     1      -6.913  12.072  19.354  0.00  0.00    +0.000 A 
ATOM      7  C   UNL     1      -5.829  12.283  20.218  0.00  0.00    +0.000 A 
ATOM      8  C   UNL     1      -4.524  12.068  19.742  0.00  0.00    +0.000 A 
ATOM      9  C   UNL     1      -4.315  11.651  18.407  0.00  0.00    +0.000 A 
ATOM     10  C   UNL     1      -3.162  11.326  17.632  0.00  0.00    +0.000 A 
ATOM     11  H   UNL     1      -5.539  10.871  15.557  0.00  0.00    +0.000 HD
ENDROOT
BRANCH  10  12
ATOM     12  C   UNL     1      -1.813  11.298  18.094  0.00  0.00    +0.000 C 
ATOM     13  C   UNL     1      -1.200  10.175  18.508  0.00  0.00    +0.000 C 
ATOM     14  C   UNL     1       0.189  10.153  19.067  0.00  0.00    +0.000 C 
ATOM     15  N   UNL     1       0.929  11.408  18.902  0.00  0.00    +0.000 NA
ATOM     16  C   UNL     1       0.063  12.564  19.172  0.00  0.00    +0.000 C 
ATOM     17  C   UNL     1      -1.124  12.632  18.196  0.00  0.00    +0.000 C 
ATOM     18  H   UNL     1       1.250  11.460  17.937  0.00  0.00    +0.000 HD
ENDBRANCH  10  12
BRANCH   7  19
ATOM     19  C   UNL     1      -6.035  12.730  21.599  0.00  0.00    +0.000 A 
ATOM     20  C   UNL     1      -5.070  13.347  22.464  0.00  0.00    +0.000 A 
ATOM     21  C   UNL     1      -5.581  13.649  23.708  0.00  0.00    +0.000 A 
ATOM     22  S   UNL     1      -7.219  13.192  23.853  0.00  0.00    +0.000 S 
ATOM     23  C   UNL     1      -7.245  12.583  22.254  0.00  0.00    +0.000 A 
ENDBRANCH   7  19
TORSDOF 2
ENDMDL
