MODEL 1
REMARK VINA RESULT:      -6.7      0.000      0.000
REMARK  Name = 
REMARK  6 active torsions:
REMARK  status: ('A' for Active; 'I' for Inactive)
REMARK    1  A    between atoms: C_1  and  O_2
REMARK    2  A    between atoms: O_2  and  C_3
REMARK    3  A    between atoms: C_6  and  C_7
REMARK    4  A    between atoms: C_7  and  N_8
REMARK    5  A    between atoms: N_8  and  C_9
REMARK    6  A    between atoms: C_10  and  C_12
REMARK                            x       y       z     vdW  Elec       q    Type
REMARK                         _______ _______ _______ _____ _____    ______ ____
ROOT
ATOM      1  C   UNL     1       6.950   6.619  17.108  0.00  0.00    +0.000 A 
ATOM      2  C   UNL     1       5.834   6.585  16.264  0.00  0.00    +0.000 A 
ATOM      3  C   UNL     1       4.897   5.546  16.351  0.00  0.00    +0.000 A 
ATOM      4  C   UNL     1       5.062   4.511  17.281  0.00  0.00    +0.000 A 
ATOM      5  C   UNL     1       6.149   4.580  18.161  0.00  0.00    +0.000 A 
ATOM      6  C   UNL     1       7.080   5.617  18.069  0.00  0.00    +0.000 A 
ATOM      7  F   UNL     1       8.111   5.597  18.927  0.00  0.00    +0.000 F 
ENDROOT
BRANCH   1   9
ATOM      8  C   UNL     1       7.942   8.629  17.914  0.00  0.00    +0.000 C 
ATOM      9  O   UNL     1       7.805   7.663  16.877  0.00  0.00    +0.000 OA
ENDBRANCH   1   9
BRANCH   4  10
ATOM     10  C   UNL     1       4.148   3.306  17.269  0.00  0.00    +0.000 C 
BRANCH  10  11
ATOM     11  N   UNL     1       2.981   3.394  18.144  0.00  0.00    +0.000 N 
ATOM     12  C   UNL     1       1.844   4.160  17.656  0.00  0.00    +0.000 C 
ATOM     13  C   UNL     1       3.043   2.774  19.392  0.00  0.00    +0.000 C 
ATOM     14  O   UNL     1       4.022   2.142  19.773  0.00  0.00    +0.000 OA
BRANCH  13  15
ATOM     15  C   UNL     1       1.874   2.931  20.323  0.00  0.00    +0.000 C 
ATOM     16  C   UNL     1       2.013   2.646  21.802  0.00  0.00    +0.000 C 
ATOM     17  C   UNL     1       1.884   4.064  21.328  0.00  0.00    +0.000 C 
ENDBRANCH  13  15
ENDBRANCH  10  11
ENDBRANCH   4  10
TORSDOF 4
ENDMDL
MODEL 2
REMARK VINA RESULT:      -6.6      1.425      1.632
REMARK  Name = 
REMARK  6 active torsions:
REMARK  status: ('A' for Active; 'I' for Inactive)
REMARK    1  A    between atoms: C_1  and  O_2
REMARK    2  A    between atoms: O_2  and  C_3
REMARK    3  A    between atoms: C_6  and  C_7
REMARK    4  A    between atoms: C_7  and  N_8
REMARK    5  A    between atoms: N_8  and  C_9
REMARK    6  A    between atoms: C_10  and  C_12
REMARK                            x       y       z     vdW  Elec       q    Type
REMARK                         _______ _______ _______ _____ _____    ______ ____
ROOT
ATOM      1  C   UNL     1       6.798   5.987  16.599  0.00  0.00    +0.000 A 
ATOM      2  C   UNL     1       6.020   5.949  17.762  0.00  0.00    +0.000 A 
ATOM      3  C   UNL     1       4.965   5.035  17.893  0.00  0.00    +0.000 A 
ATOM      4  C   UNL     1       4.659   4.143  16.857  0.00  0.00    +0.000 A 
ATOM      5  C   UNL     1       5.476   4.146  15.718  0.00  0.00    +0.000 A 
ATOM      6  C   UNL     1       6.525   5.060  15.593  0.00  0.00    +0.000 A 
ATOM      7  F   UNL     1       7.243   5.021  14.461  0.00  0.00    +0.000 F 
ENDROOT
BRANCH   1   9
ATOM      8  C   UNL     1       7.707   7.931  17.631  0.00  0.00    +0.000 C 
ATOM      9  O   UNL     1       7.759   6.962  16.589  0.00  0.00    +0.000 OA
ENDBRANCH   1   9
BRANCH   4  10
ATOM     10  C   UNL     1       3.426   3.271  16.923  0.00  0.00    +0.000 C 
BRANCH  10  11
ATOM     11  N   UNL     1       2.478   3.603  17.985  0.00  0.00    +0.000 N 
ATOM     12  C   UNL     1       1.644   4.778  17.785  0.00  0.00    +0.000 C 
ATOM     13  C   UNL     1       2.457   2.800  19.126  0.00  0.00    +0.000 C 
ATOM     14  O   UNL     1       3.180   1.820  19.263  0.00  0.00    +0.000 OA
BRANCH  13  15
ATOM     15  C   UNL     1       1.538   3.186  20.250  0.00  0.00    +0.000 C 
ATOM     16  C   UNL     1       1.731   2.624  21.641  0.00  0.00    +0.000 C 
ATOM     17  C   UNL     1       2.074   4.059  21.367  0.00  0.00    +0.000 C 
ENDBRANCH  13  15
ENDBRANCH  10  11
ENDBRANCH   4  10
TORSDOF 4
ENDMDL
MODEL 3
REMARK VINA RESULT:      -6.4      1.294      1.449
REMARK  Name = 
REMARK  6 active torsions:
REMARK  status: ('A' for Active; 'I' for Inactive)
REMARK    1  A    between atoms: C_1  and  O_2
REMARK    2  A    between atoms: O_2  and  C_3
REMARK    3  A    between atoms: C_6  and  C_7
REMARK    4  A    between atoms: C_7  and  N_8
REMARK    5  A    between atoms: N_8  and  C_9
REMARK    6  A    between atoms: C_10  and  C_12
REMARK                            x       y       z     vdW  Elec       q    Type
REMARK                         _______ _______ _______ _____ _____    ______ ____
ROOT
ATOM      1  C   UNL     1       6.807   6.228  16.956  0.00  0.00    +0.000 A 
ATOM      2  C   UNL     1       5.526   6.782  16.855  0.00  0.00    +0.000 A 
ATOM      3  C   UNL     1       4.384   5.970  16.914  0.00  0.00    +0.000 A 
ATOM      4  C   UNL     1       4.501   4.583  17.068  0.00  0.00    +0.000 A 
ATOM      5  C   UNL     1       5.782   4.040  17.225  0.00  0.00    +0.000 A 
ATOM      6  C   UNL     1       6.916   4.853  17.164  0.00  0.00    +0.000 A 
ATOM      7  F   UNL     1       8.110   4.255  17.293  0.00  0.00    +0.000 F 
ENDROOT
BRANCH   1   9
ATOM      8  C   UNL     1       7.773   8.289  17.655  0.00  0.00    +0.000 C 
ATOM      9  O   UNL     1       7.829   7.131  16.830  0.00  0.00    +0.000 OA
ENDBRANCH   1   9
BRANCH   4  10
ATOM     10  C   UNL     1       3.286   3.687  16.968  0.00  0.00    +0.000 C 
BRANCH  10  11
ATOM     11  N   UNL     1       2.978   2.912  18.167  0.00  0.00    +0.000 N 
ATOM     12  C   UNL     1       3.546   1.575  18.257  0.00  0.00    +0.000 C 
ATOM     13  C   UNL     1       2.140   3.483  19.125  0.00  0.00    +0.000 C 
ATOM     14  O   UNL     1       1.673   4.611  19.013  0.00  0.00    +0.000 OA
BRANCH  13  15
ATOM     15  C   UNL     1       1.759   2.657  20.321  0.00  0.00    +0.000 C 
ATOM     16  C   UNL     1       2.720   2.465  21.473  0.00  0.00    +0.000 C 
ATOM     17  C   UNL     1       1.523   3.352  21.647  0.00  0.00    +0.000 C 
ENDBRANCH  13  15
ENDBRANCH  10  11
ENDBRANCH   4  10
TORSDOF 4
ENDMDL
MODEL 4
REMARK VINA RESULT:      -6.3      2.313      2.981
REMARK  Name = 
REMARK  6 active torsions:
REMARK  status: ('A' for Active; 'I' for Inactive)
REMARK    1  A    between atoms: C_1  and  O_2
REMARK    2  A    between atoms: O_2  and  C_3
REMARK    3  A    between atoms: C_6  and  C_7
REMARK    4  A    between atoms: C_7  and  N_8
REMARK    5  A    between atoms: N_8  and  C_9
REMARK    6  A    between atoms: C_10  and  C_12
REMARK                            x       y       z     vdW  Elec       q    Type
REMARK                         _______ _______ _______ _____ _____    ______ ____
ROOT
ATOM      1  C   UNL     1       6.723   5.374  15.570  0.00  0.00    +0.000 A 
ATOM      2  C   UNL     1       7.217   4.612  16.635  0.00  0.00    +0.000 A 
ATOM      3  C   UNL     1       6.559   4.592  17.873  0.00  0.00    +0.000 A 
ATOM      4  C   UNL     1       5.394   5.343  18.075  0.00  0.00    +0.000 A 
ATOM      5  C   UNL     1       4.872   6.059  16.989  0.00  0.00    +0.000 A 
ATOM      6  C   UNL     1       5.533   6.076  15.759  0.00  0.00    +0.000 A 
ATOM      7  F   UNL     1       4.987   6.810  14.778  0.00  0.00    +0.000 F 
ENDROOT
BRANCH   1   9
ATOM      8  C   UNL     1       7.065   4.480  13.390  0.00  0.00    +0.000 C 
ATOM      9  O   UNL     1       7.495   5.340  14.440  0.00  0.00    +0.000 OA
ENDBRANCH   1   9
BRANCH   4  10
ATOM     10  C   UNL     1       4.772   5.456  19.449  0.00  0.00    +0.000 C 
BRANCH  10  11
ATOM     11  N   UNL     1       3.322   5.289  19.498  0.00  0.00    +0.000 N 
ATOM     12  C   UNL     1       2.529   6.469  19.810  0.00  0.00    +0.000 C 
ATOM     13  C   UNL     1       2.795   4.016  19.276  0.00  0.00    +0.000 C 
ATOM     14  O   UNL     1       3.495   3.043  19.022  0.00  0.00    +0.000 OA
BRANCH  13  15
ATOM     15  C   UNL     1       1.310   3.829  19.404  0.00  0.00    +0.000 C 
ATOM     16  C   UNL     1       0.679   2.466  19.222  0.00  0.00    +0.000 C 
ATOM     17  C   UNL     1       0.767   3.065  20.595  0.00  0.00    +0.000 C 
ENDBRANCH  13  15
ENDBRANCH  10  11
ENDBRANCH   4  10
TORSDOF 4
ENDMDL
MODEL 5
REMARK VINA RESULT:      -6.2      2.523      6.199
REMARK  Name = 
REMARK  6 active torsions:
REMARK  status: ('A' for Active; 'I' for Inactive)
REMARK    1  A    between atoms: C_1  and  O_2
REMARK    2  A    between atoms: O_2  and  C_3
REMARK    3  A    between atoms: C_6  and  C_7
REMARK    4  A    between atoms: C_7  and  N_8
REMARK    5  A    between atoms: N_8  and  C_9
REMARK    6  A    between atoms: C_10  and  C_12
REMARK                            x       y       z     vdW  Elec       q    Type
REMARK                         _______ _______ _______ _____ _____    ______ ____
ROOT
ATOM      1  C   UNL     1       2.621   2.707  19.522  0.00  0.00    +0.000 A 
ATOM      2  C   UNL     1       3.982   3.030  19.555  0.00  0.00    +0.000 A 
ATOM      3  C   UNL     1       4.598   3.664  18.467  0.00  0.00    +0.000 A 
ATOM      4  C   UNL     1       3.864   3.982  17.316  0.00  0.00    +0.000 A 
ATOM      5  C   UNL     1       2.490   3.708  17.311  0.00  0.00    +0.000 A 
ATOM      6  C   UNL     1       1.883   3.074  18.398  0.00  0.00    +0.000 A 
ATOM      7  F   UNL     1       0.569   2.818  18.305  0.00  0.00    +0.000 F 
ENDROOT
BRANCH   1   9
ATOM      8  C   UNL     1       1.591   2.835  21.666  0.00  0.00    +0.000 C 
ATOM      9  O   UNL     1       2.167   2.045  20.632  0.00  0.00    +0.000 OA
ENDBRANCH   1   9
BRANCH   4  10
ATOM     10  C   UNL     1       4.553   4.515  16.080  0.00  0.00    +0.000 C 
BRANCH  10  11
ATOM     11  N   UNL     1       5.915   5.003  16.281  0.00  0.00    +0.000 N 
ATOM     12  C   UNL     1       7.001   4.089  15.960  0.00  0.00    +0.000 C 
ATOM     13  C   UNL     1       6.087   6.288  16.795  0.00  0.00    +0.000 C 
ATOM     14  O   UNL     1       5.147   7.029  17.061  0.00  0.00    +0.000 OA
BRANCH  13  15
ATOM     15  C   UNL     1       7.485   6.761  17.076  0.00  0.00    +0.000 C 
ATOM     16  C   UNL     1       7.741   8.140  17.642  0.00  0.00    +0.000 C 
ATOM     17  C   UNL     1       7.925   6.934  18.515  0.00  0.00    +0.000 C 
ENDBRANCH  13  15
ENDBRANCH  10  11
ENDBRANCH   4  10
TORSDOF 4
ENDMDL
MODEL 6
REMARK VINA RESULT:      -6.2      1.923      2.376
REMARK  Name = 
REMARK  6 active torsions:
REMARK  status: ('A' for Active; 'I' for Inactive)
REMARK    1  A    between atoms: C_1  and  O_2
REMARK    2  A    between atoms: O_2  and  C_3
REMARK    3  A    between atoms: C_6  and  C_7
REMARK    4  A    between atoms: C_7  and  N_8
REMARK    5  A    between atoms: N_8  and  C_9
REMARK    6  A    between atoms: C_10  and  C_12
REMARK                            x       y       z     vdW  Elec       q    Type
REMARK                         _______ _______ _______ _____ _____    ______ ____
ROOT
ATOM      1  C   UNL     1       6.454   5.769  16.347  0.00  0.00    +0.000 A 
ATOM      2  C   UNL     1       5.461   6.666  15.936  0.00  0.00    +0.000 A 
ATOM      3  C   UNL     1       4.346   6.926  16.745  0.00  0.00    +0.000 A 
ATOM      4  C   UNL     1       4.195   6.285  17.982  0.00  0.00    +0.000 A 
ATOM      5  C   UNL     1       5.219   5.432  18.414  0.00  0.00    +0.000 A 
ATOM      6  C   UNL     1       6.327   5.176  17.603  0.00  0.00    +0.000 A 
ATOM      7  F   UNL     1       7.250   4.324  18.074  0.00  0.00    +0.000 F 
ENDROOT
BRANCH   1   9
ATOM      8  C   UNL     1       7.135   4.822  14.271  0.00  0.00    +0.000 C 
ATOM      9  O   UNL     1       7.457   5.574  15.436  0.00  0.00    +0.000 OA
ENDBRANCH   1   9
BRANCH   4  10
ATOM     10  C   UNL     1       2.920   6.434  18.782  0.00  0.00    +0.000 C 
BRANCH  10  11
ATOM     11  N   UNL     1       2.162   5.204  18.989  0.00  0.00    +0.000 N 
ATOM     12  C   UNL     1       1.671   4.519  17.803  0.00  0.00    +0.000 C 
ATOM     13  C   UNL     1       1.929   4.784  20.299  0.00  0.00    +0.000 C 
ATOM     14  O   UNL     1       2.353   5.391  21.277  0.00  0.00    +0.000 OA
BRANCH  13  15
ATOM     15  C   UNL     1       1.083   3.562  20.516  0.00  0.00    +0.000 C 
ATOM     16  C   UNL     1       1.597   2.185  20.158  0.00  0.00    +0.000 C 
ATOM     17  C   UNL     1       1.476   2.580  21.601  0.00  0.00    +0.000 C 
ENDBRANCH  13  15
ENDBRANCH  10  11
ENDBRANCH   4  10
TORSDOF 4
ENDMDL
MODEL 7
REMARK VINA RESULT:      -6.0      2.955      6.517
REMARK  Name = 
REMARK  6 active torsions:
REMARK  status: ('A' for Active; 'I' for Inactive)
REMARK    1  A    between atoms: C_1  and  O_2
REMARK    2  A    between atoms: O_2  and  C_3
REMARK    3  A    between atoms: C_6  and  C_7
REMARK    4  A    between atoms: C_7  and  N_8
REMARK    5  A    between atoms: N_8  and  C_9
REMARK    6  A    between atoms: C_10  and  C_12
REMARK                            x       y       z     vdW  Elec       q    Type
REMARK                         _______ _______ _______ _____ _____    ______ ____
ROOT
ATOM      1  C   UNL     1       1.663   4.070  19.916  0.00  0.00    +0.000 A 
ATOM      2  C   UNL     1       2.585   4.894  20.571  0.00  0.00    +0.000 A 
ATOM      3  C   UNL     1       3.520   5.647  19.847  0.00  0.00    +0.000 A 
ATOM      4  C   UNL     1       3.558   5.584  18.448  0.00  0.00    +0.000 A 
ATOM      5  C   UNL     1       2.597   4.802  17.794  0.00  0.00    +0.000 A 
ATOM      6  C   UNL     1       1.669   4.053  18.521  0.00  0.00    +0.000 A 
ATOM      7  F   UNL     1       0.800   3.305  17.825  0.00  0.00    +0.000 F 
ENDROOT
BRANCH   1   9
ATOM      8  C   UNL     1       1.474   2.607  21.786  0.00  0.00    +0.000 C 
ATOM      9  O   UNL     1       0.846   3.355  20.750  0.00  0.00    +0.000 OA
ENDBRANCH   1   9
BRANCH   4  10
ATOM     10  C   UNL     1       4.665   6.262  17.671  0.00  0.00    +0.000 C 
BRANCH  10  11
ATOM     11  N   UNL     1       5.595   5.365  16.990  0.00  0.00    +0.000 N 
ATOM     12  C   UNL     1       6.298   4.391  17.812  0.00  0.00    +0.000 C 
ATOM     13  C   UNL     1       5.774   5.518  15.615  0.00  0.00    +0.000 C 
ATOM     14  O   UNL     1       5.169   6.355  14.955  0.00  0.00    +0.000 OA
BRANCH  13  15
ATOM     15  C   UNL     1       6.789   4.649  14.928  0.00  0.00    +0.000 C 
ATOM     16  C   UNL     1       6.490   4.013  13.589  0.00  0.00    +0.000 C 
ATOM     17  C   UNL     1       7.457   5.158  13.667  0.00  0.00    +0.000 C 
ENDBRANCH  13  15
ENDBRANCH  10  11
ENDBRANCH   4  10
TORSDOF 4
ENDMDL
MODEL 8
REMARK VINA RESULT:      -6.0      2.706      3.310
REMARK  Name = 
REMARK  6 active torsions:
REMARK  status: ('A' for Active; 'I' for Inactive)
REMARK    1  A    between atoms: C_1  and  O_2
REMARK    2  A    between atoms: O_2  and  C_3
REMARK    3  A    between atoms: C_6  and  C_7
REMARK    4  A    between atoms: C_7  and  N_8
REMARK    5  A    between atoms: N_8  and  C_9
REMARK    6  A    between atoms: C_10  and  C_12
REMARK                            x       y       z     vdW  Elec       q    Type
REMARK                         _______ _______ _______ _____ _____    ______ ____
ROOT
ATOM      1  C   UNL     1       6.826   4.909  14.465  0.00  0.00    +0.000 A 
ATOM      2  C   UNL     1       7.633   5.113  15.590  0.00  0.00    +0.000 A 
ATOM      3  C   UNL     1       7.158   4.828  16.878  0.00  0.00    +0.000 A 
ATOM      4  C   UNL     1       5.859   4.340  17.068  0.00  0.00    +0.000 A 
ATOM      5  C   UNL     1       5.075   4.084  15.935  0.00  0.00    +0.000 A 
ATOM      6  C   UNL     1       5.554   4.371  14.655  0.00  0.00    +0.000 A 
ATOM      7  F   UNL     1       4.733   4.127  13.622  0.00  0.00    +0.000 F 
ENDROOT
BRANCH   1   9
ATOM      8  C   UNL     1       7.329   4.344  12.206  0.00  0.00    +0.000 C 
ATOM      9  O   UNL     1       7.401   5.278  13.278  0.00  0.00    +0.000 OA
ENDBRANCH   1   9
BRANCH   4  10
ATOM     10  C   UNL     1       5.285   4.187  18.459  0.00  0.00    +0.000 C 
BRANCH  10  11
ATOM     11  N   UNL     1       3.854   4.453  18.580  0.00  0.00    +0.000 N 
ATOM     12  C   UNL     1       3.444   5.847  18.670  0.00  0.00    +0.000 C 
ATOM     13  C   UNL     1       2.982   3.366  18.636  0.00  0.00    +0.000 C 
ATOM     14  O   UNL     1       3.364   2.203  18.564  0.00  0.00    +0.000 OA
BRANCH  13  15
ATOM     15  C   UNL     1       1.518   3.637  18.839  0.00  0.00    +0.000 C 
ATOM     16  C   UNL     1       0.538   2.504  19.046  0.00  0.00    +0.000 C 
ATOM     17  C   UNL     1       0.908   3.384  20.203  0.00  0.00    +0.000 C 
ENDBRANCH  13  15
ENDBRANCH  10  11
ENDBRANCH   4  10
TORSDOF 4
ENDMDL
MODEL 9
REMARK VINA RESULT:      -6.0      1.674      2.027
REMARK  Name = 
REMARK  6 active torsions:
REMARK  status: ('A' for Active; 'I' for Inactive)
REMARK    1  A    between atoms: C_1  and  O_2
REMARK    2  A    between atoms: O_2  and  C_3
REMARK    3  A    between atoms: C_6  and  C_7
REMARK    4  A    between atoms: C_7  and  N_8
REMARK    5  A    between atoms: N_8  and  C_9
REMARK    6  A    between atoms: C_10  and  C_12
REMARK                            x       y       z     vdW  Elec       q    Type
REMARK                         _______ _______ _______ _____ _____    ______ ____
ROOT
ATOM      1  C   UNL     1       6.564   6.404  16.801  0.00  0.00    +0.000 A 
ATOM      2  C   UNL     1       7.038   5.137  16.445  0.00  0.00    +0.000 A 
ATOM      3  C   UNL     1       6.197   4.016  16.483  0.00  0.00    +0.000 A 
ATOM      4  C   UNL     1       4.861   4.139  16.888  0.00  0.00    +0.000 A 
ATOM      5  C   UNL     1       4.376   5.418  17.189  0.00  0.00    +0.000 A 
ATOM      6  C   UNL     1       5.219   6.531  17.150  0.00  0.00    +0.000 A 
ATOM      7  F   UNL     1       4.688   7.717  17.481  0.00  0.00    +0.000 F 
ENDROOT
BRANCH   1   9
ATOM      8  C   UNL     1       8.008   7.856  18.018  0.00  0.00    +0.000 C 
ATOM      9  O   UNL     1       7.508   7.395  16.767  0.00  0.00    +0.000 OA
ENDBRANCH   1   9
BRANCH   4  10
ATOM     10  C   UNL     1       3.996   2.915  17.088  0.00  0.00    +0.000 C 
BRANCH  10  11
ATOM     11  N   UNL     1       3.347   2.811  18.392  0.00  0.00    +0.000 N 
ATOM     12  C   UNL     1       4.155   2.318  19.498  0.00  0.00    +0.000 C 
ATOM     13  C   UNL     1       1.998   3.155  18.488  0.00  0.00    +0.000 C 
ATOM     14  O   UNL     1       1.346   3.561  17.532  0.00  0.00    +0.000 OA
BRANCH  13  15
ATOM     15  C   UNL     1       1.310   2.975  19.811  0.00  0.00    +0.000 C 
ATOM     16  C   UNL     1       1.966   3.423  21.098  0.00  0.00    +0.000 C 
ATOM     17  C   UNL     1       0.805   4.199  20.548  0.00  0.00    +0.000 C 
ENDBRANCH  13  15
ENDBRANCH  10  11
ENDBRANCH   4  10
TORSDOF 4
ENDMDL
