MODEL 1
REMARK VINA RESULT:      -7.8      0.000      0.000
REMARK  Name = 
REMARK  4 active torsions:
REMARK  status: ('A' for Active; 'I' for Inactive)
REMARK    1  A    between atoms: C_1  and  S_2
REMARK    2  A    between atoms: S_2  and  C_3
REMARK    3  A    between atoms: C_6  and  C_7
REMARK    4  A    between atoms: C_11  and  C_12
REMARK                            x       y       z     vdW  Elec       q    Type
REMARK                         _______ _______ _______ _____ _____    ______ ____
ROOT
ATOM      1  C   UNL     1       3.124   6.859  18.089  0.00  0.00    +0.000 A 
ATOM      2  N   UNL     1       4.018   7.221  17.092  0.00  0.00    +0.000 NA
ATOM      3  C   UNL     1       4.634   6.118  16.805  0.00  0.00    +0.000 A 
ATOM      4  N   UNL     1       4.189   5.060  17.532  0.00  0.00    +0.000 N 
ATOM      5  C   UNL     1       3.180   5.477  18.366  0.00  0.00    +0.000 A 
ATOM      6  C   UNL     1       4.865   3.801  17.306  0.00  0.00    +0.000 C 
ATOM      7  C   UNL     1       5.633   3.925  15.987  0.00  0.00    +0.000 C 
ATOM      8  S   UNL     1       5.871   5.716  15.689  0.00  0.00    +0.000 S 
ENDROOT
BRANCH   1  12
ATOM      9  C   UNL     1       0.511   9.780  19.818  0.00  0.00    +0.000 A 
ATOM     10  C   UNL     1       0.861   9.843  18.467  0.00  0.00    +0.000 A 
ATOM     11  C   UNL     1       1.722   8.887  17.914  0.00  0.00    +0.000 A 
ATOM     12  C   UNL     1       2.259   7.861  18.703  0.00  0.00    +0.000 A 
ATOM     13  C   UNL     1       1.957   7.847  20.070  0.00  0.00    +0.000 A 
ATOM     14  C   UNL     1       1.073   8.782  20.618  0.00  0.00    +0.000 A 
BRANCH   9  16
ATOM     15  C   UNL     1      -0.425  10.501  22.319  0.00  0.00    +0.000 C 
ATOM     16  S   UNL     1      -0.560  10.987  20.578  0.00  0.00    +0.000 S 
ENDBRANCH   9  16
ENDBRANCH   1  12
BRANCH   5  17
ATOM     17  C   UNL     1       2.404   4.610  19.270  0.00  0.00    +0.000 A 
ATOM     18  C   UNL     1       1.385   3.777  18.801  0.00  0.00    +0.000 A 
ATOM     19  C   UNL     1       0.744   2.928  19.692  0.00  0.00    +0.000 A 
ATOM     20  N   UNL     1       1.062   2.826  20.997  0.00  0.00    +0.000 NA
ATOM     21  C   UNL     1       2.044   3.633  21.439  0.00  0.00    +0.000 A 
ATOM     22  C   UNL     1       2.704   4.550  20.635  0.00  0.00    +0.000 A 
ENDBRANCH   5  17
TORSDOF 3
ENDMDL
MODEL 2
REMARK VINA RESULT:      -7.7      0.151      1.036
REMARK  Name = 
REMARK  4 active torsions:
REMARK  status: ('A' for Active; 'I' for Inactive)
REMARK    1  A    between atoms: C_1  and  S_2
REMARK    2  A    between atoms: S_2  and  C_3
REMARK    3  A    between atoms: C_6  and  C_7
REMARK    4  A    between atoms: C_11  and  C_12
REMARK                            x       y       z     vdW  Elec       q    Type
REMARK                         _______ _______ _______ _____ _____    ______ ____
ROOT
ATOM      1  C   UNL     1       3.088   6.858  18.179  0.00  0.00    +0.000 A 
ATOM      2  N   UNL     1       3.974   7.234  17.180  0.00  0.00    +0.000 NA
ATOM      3  C   UNL     1       4.600   6.139  16.884  0.00  0.00    +0.000 A 
ATOM      4  N   UNL     1       4.170   5.073  17.608  0.00  0.00    +0.000 N 
ATOM      5  C   UNL     1       3.160   5.475  18.449  0.00  0.00    +0.000 A 
ATOM      6  C   UNL     1       4.857   3.822  17.374  0.00  0.00    +0.000 C 
ATOM      7  C   UNL     1       5.618   3.960  16.051  0.00  0.00    +0.000 C 
ATOM      8  S   UNL     1       5.835   5.755  15.760  0.00  0.00    +0.000 S 
ENDROOT
BRANCH   1  12
ATOM      9  C   UNL     1       0.597   9.778  20.081  0.00  0.00    +0.000 A 
ATOM     10  C   UNL     1       1.087   8.682  20.794  0.00  0.00    +0.000 A 
ATOM     11  C   UNL     1       1.896   7.729  20.160  0.00  0.00    +0.000 A 
ATOM     12  C   UNL     1       2.216   7.848  18.802  0.00  0.00    +0.000 A 
ATOM     13  C   UNL     1       1.663   8.913  18.080  0.00  0.00    +0.000 A 
ATOM     14  C   UNL     1       0.881   9.882  18.717  0.00  0.00    +0.000 A 
BRANCH   9  16
ATOM     15  C   UNL     1      -0.487  10.411  22.545  0.00  0.00    +0.000 C 
ATOM     16  S   UNL     1      -0.456  11.006  20.833  0.00  0.00    +0.000 S 
ENDBRANCH   9  16
ENDBRANCH   1  12
BRANCH   5  17
ATOM     17  C   UNL     1       2.397   4.596  19.353  0.00  0.00    +0.000 A 
ATOM     18  C   UNL     1       1.351   3.792  18.893  0.00  0.00    +0.000 A 
ATOM     19  C   UNL     1       0.724   2.929  19.780  0.00  0.00    +0.000 A 
ATOM     20  N   UNL     1       1.080   2.786  21.072  0.00  0.00    +0.000 NA
ATOM     21  C   UNL     1       2.088   3.566  21.504  0.00  0.00    +0.000 A 
ATOM     22  C   UNL     1       2.738   4.493  20.706  0.00  0.00    +0.000 A 
ENDBRANCH   5  17
TORSDOF 3
ENDMDL
MODEL 3
REMARK VINA RESULT:      -7.7      0.325      1.034
REMARK  Name = 
REMARK  4 active torsions:
REMARK  status: ('A' for Active; 'I' for Inactive)
REMARK    1  A    between atoms: C_1  and  S_2
REMARK    2  A    between atoms: S_2  and  C_3
REMARK    3  A    between atoms: C_6  and  C_7
REMARK    4  A    between atoms: C_11  and  C_12
REMARK                            x       y       z     vdW  Elec       q    Type
REMARK                         _______ _______ _______ _____ _____    ______ ____
ROOT
ATOM      1  C   UNL     1       3.286   6.645  17.948  0.00  0.00    +0.000 A 
ATOM      2  N   UNL     1       4.144   7.020  16.924  0.00  0.00    +0.000 NA
ATOM      3  C   UNL     1       4.753   5.922  16.605  0.00  0.00    +0.000 A 
ATOM      4  N   UNL     1       4.338   4.856  17.337  0.00  0.00    +0.000 N 
ATOM      5  C   UNL     1       3.356   5.261  18.209  0.00  0.00    +0.000 A 
ATOM      6  C   UNL     1       5.009   3.602  17.076  0.00  0.00    +0.000 C 
ATOM      7  C   UNL     1       5.731   3.741  15.732  0.00  0.00    +0.000 C 
ATOM      8  S   UNL     1       5.952   5.536  15.443  0.00  0.00    +0.000 S 
ENDROOT
BRANCH   1  12
ATOM      9  C   UNL     1       0.727   9.544  19.792  0.00  0.00    +0.000 A 
ATOM     10  C   UNL     1       1.081   9.655  18.445  0.00  0.00    +0.000 A 
ATOM     11  C   UNL     1       1.925   8.705  17.854  0.00  0.00    +0.000 A 
ATOM     12  C   UNL     1       2.439   7.637  18.601  0.00  0.00    +0.000 A 
ATOM     13  C   UNL     1       2.133   7.573  19.965  0.00  0.00    +0.000 A 
ATOM     14  C   UNL     1       1.267   8.503  20.550  0.00  0.00    +0.000 A 
BRANCH   9  16
ATOM     15  C   UNL     1      -0.175  10.199  22.323  0.00  0.00    +0.000 C 
ATOM     16  S   UNL     1      -0.323  10.739  20.599  0.00  0.00    +0.000 S 
ENDBRANCH   9  16
ENDBRANCH   1  12
BRANCH   5  17
ATOM     17  C   UNL     1       2.615   4.382  19.131  0.00  0.00    +0.000 A 
ATOM     18  C   UNL     1       3.060   4.129  20.430  0.00  0.00    +0.000 A 
ATOM     19  C   UNL     1       2.276   3.354  21.273  0.00  0.00    +0.000 A 
ATOM     20  N   UNL     1       1.078   2.844  20.930  0.00  0.00    +0.000 NA
ATOM     21  C   UNL     1       0.659   3.092  19.675  0.00  0.00    +0.000 A 
ATOM     22  C   UNL     1       1.397   3.810  18.747  0.00  0.00    +0.000 A 
ENDBRANCH   5  17
TORSDOF 3
ENDMDL
MODEL 4
REMARK VINA RESULT:      -7.7      0.600      1.534
REMARK  Name = 
REMARK  4 active torsions:
REMARK  status: ('A' for Active; 'I' for Inactive)
REMARK    1  A    between atoms: C_1  and  S_2
REMARK    2  A    between atoms: S_2  and  C_3
REMARK    3  A    between atoms: C_6  and  C_7
REMARK    4  A    between atoms: C_11  and  C_12
REMARK                            x       y       z     vdW  Elec       q    Type
REMARK                         _______ _______ _______ _____ _____    ______ ____
ROOT
ATOM      1  C   UNL     1       3.413   6.539  17.833  0.00  0.00    +0.000 A 
ATOM      2  N   UNL     1       4.301   6.973  16.859  0.00  0.00    +0.000 NA
ATOM      3  C   UNL     1       4.919   5.896  16.493  0.00  0.00    +0.000 A 
ATOM      4  N   UNL     1       4.483   4.787  17.146  0.00  0.00    +0.000 N 
ATOM      5  C   UNL     1       3.476   5.141  18.013  0.00  0.00    +0.000 A 
ATOM      6  C   UNL     1       5.161   3.550  16.830  0.00  0.00    +0.000 C 
ATOM      7  C   UNL     1       5.922   3.769  15.518  0.00  0.00    +0.000 C 
ATOM      8  S   UNL     1       6.151   5.578  15.345  0.00  0.00    +0.000 S 
ENDROOT
BRANCH   1  12
ATOM      9  C   UNL     1       0.943   9.348  19.921  0.00  0.00    +0.000 A 
ATOM     10  C   UNL     1       1.462   8.226  20.574  0.00  0.00    +0.000 A 
ATOM     11  C   UNL     1       2.263   7.310  19.879  0.00  0.00    +0.000 A 
ATOM     12  C   UNL     1       2.547   7.491  18.520  0.00  0.00    +0.000 A 
ATOM     13  C   UNL     1       1.967   8.581  17.858  0.00  0.00    +0.000 A 
ATOM     14  C   UNL     1       1.192   9.513  18.557  0.00  0.00    +0.000 A 
BRANCH   9  16
ATOM     15  C   UNL     1      -0.284   9.733  22.370  0.00  0.00    +0.000 C 
ATOM     16  S   UNL     1      -0.102  10.531  20.752  0.00  0.00    +0.000 S 
ENDBRANCH   9  16
ENDBRANCH   1  12
BRANCH   5  17
ATOM     17  C   UNL     1       2.708   4.209  18.858  0.00  0.00    +0.000 A 
ATOM     18  C   UNL     1       3.145   3.834  20.130  0.00  0.00    +0.000 A 
ATOM     19  C   UNL     1       2.338   3.014  20.906  0.00  0.00    +0.000 A 
ATOM     20  N   UNL     1       1.126   2.570  20.523  0.00  0.00    +0.000 NA
ATOM     21  C   UNL     1       0.715   2.936  19.295  0.00  0.00    +0.000 A 
ATOM     22  C   UNL     1       1.474   3.708  18.430  0.00  0.00    +0.000 A 
ENDBRANCH   5  17
TORSDOF 3
ENDMDL
MODEL 5
REMARK VINA RESULT:      -7.3      2.370      4.405
REMARK  Name = 
REMARK  4 active torsions:
REMARK  status: ('A' for Active; 'I' for Inactive)
REMARK    1  A    between atoms: C_1  and  S_2
REMARK    2  A    between atoms: S_2  and  C_3
REMARK    3  A    between atoms: C_6  and  C_7
REMARK    4  A    between atoms: C_11  and  C_12
REMARK                            x       y       z     vdW  Elec       q    Type
REMARK                         _______ _______ _______ _____ _____    ______ ____
ROOT
ATOM      1  C   UNL     1       2.616   6.052  19.721  0.00  0.00    +0.000 A 
ATOM      2  N   UNL     1       1.975   5.243  20.647  0.00  0.00    +0.000 NA
ATOM      3  C   UNL     1       2.621   4.122  20.588  0.00  0.00    +0.000 A 
ATOM      4  N   UNL     1       3.651   4.152  19.702  0.00  0.00    +0.000 N 
ATOM      5  C   UNL     1       3.717   5.398  19.127  0.00  0.00    +0.000 A 
ATOM      6  C   UNL     1       4.389   2.919  19.539  0.00  0.00    +0.000 C 
ATOM      7  C   UNL     1       4.056   2.025  20.739  0.00  0.00    +0.000 C 
ATOM      8  S   UNL     1       2.461   2.626  21.408  0.00  0.00    +0.000 S 
ENDROOT
BRANCH   1  12
ATOM      9  C   UNL     1       1.280  10.072  19.081  0.00  0.00    +0.000 A 
ATOM     10  C   UNL     1       1.093   9.443  20.314  0.00  0.00    +0.000 A 
ATOM     11  C   UNL     1       1.528   8.125  20.510  0.00  0.00    +0.000 A 
ATOM     12  C   UNL     1       2.143   7.410  19.475  0.00  0.00    +0.000 A 
ATOM     13  C   UNL     1       2.264   8.025  18.223  0.00  0.00    +0.000 A 
ATOM     14  C   UNL     1       1.858   9.351  18.033  0.00  0.00    +0.000 A 
BRANCH   9  16
ATOM     15  C   UNL     1       2.293  12.537  18.343  0.00  0.00    +0.000 C 
ATOM     16  S   UNL     1       0.723  11.738  18.771  0.00  0.00    +0.000 S 
ENDBRANCH   9  16
ENDBRANCH   1  12
BRANCH   5  17
ATOM     17  C   UNL     1       4.735   5.841  18.159  0.00  0.00    +0.000 A 
ATOM     18  C   UNL     1       6.048   6.122  18.542  0.00  0.00    +0.000 A 
ATOM     19  C   UNL     1       6.978   6.460  17.569  0.00  0.00    +0.000 A 
ATOM     20  N   UNL     1       6.705   6.507  16.251  0.00  0.00    +0.000 NA
ATOM     21  C   UNL     1       5.437   6.236  15.892  0.00  0.00    +0.000 A 
ATOM     22  C   UNL     1       4.429   5.941  16.797  0.00  0.00    +0.000 A 
ENDBRANCH   5  17
TORSDOF 3
ENDMDL
MODEL 6
REMARK VINA RESULT:      -7.2      2.359      4.300
REMARK  Name = 
REMARK  4 active torsions:
REMARK  status: ('A' for Active; 'I' for Inactive)
REMARK    1  A    between atoms: C_1  and  S_2
REMARK    2  A    between atoms: S_2  and  C_3
REMARK    3  A    between atoms: C_6  and  C_7
REMARK    4  A    between atoms: C_11  and  C_12
REMARK                            x       y       z     vdW  Elec       q    Type
REMARK                         _______ _______ _______ _____ _____    ______ ____
ROOT
ATOM      1  C   UNL     1       2.631   6.033  19.720  0.00  0.00    +0.000 A 
ATOM      2  N   UNL     1       1.995   5.220  20.646  0.00  0.00    +0.000 NA
ATOM      3  C   UNL     1       2.638   4.097  20.575  0.00  0.00    +0.000 A 
ATOM      4  N   UNL     1       3.660   4.130  19.680  0.00  0.00    +0.000 N 
ATOM      5  C   UNL     1       3.725   5.380  19.114  0.00  0.00    +0.000 A 
ATOM      6  C   UNL     1       4.394   2.897  19.504  0.00  0.00    +0.000 C 
ATOM      7  C   UNL     1       4.068   1.996  20.700  0.00  0.00    +0.000 C 
ATOM      8  S   UNL     1       2.480   2.596  21.386  0.00  0.00    +0.000 S 
ENDROOT
BRANCH   1  12
ATOM      9  C   UNL     1       1.191   9.995  18.955  0.00  0.00    +0.000 A 
ATOM     10  C   UNL     1       1.809   9.250  17.947  0.00  0.00    +0.000 A 
ATOM     11  C   UNL     1       2.283   7.958  18.211  0.00  0.00    +0.000 A 
ATOM     12  C   UNL     1       2.160   7.394  19.487  0.00  0.00    +0.000 A 
ATOM     13  C   UNL     1       1.601   8.173  20.507  0.00  0.00    +0.000 A 
ATOM     14  C   UNL     1       1.100   9.452  20.239  0.00  0.00    +0.000 A 
BRANCH   9  16
ATOM     15  C   UNL     1       2.160  12.535  18.450  0.00  0.00    +0.000 C 
ATOM     16  S   UNL     1       0.593  11.652  18.680  0.00  0.00    +0.000 S 
ENDBRANCH   9  16
ENDBRANCH   1  12
BRANCH   5  17
ATOM     17  C   UNL     1       4.737   5.826  18.140  0.00  0.00    +0.000 A 
ATOM     18  C   UNL     1       6.023   6.206  18.530  0.00  0.00    +0.000 A 
ATOM     19  C   UNL     1       6.953   6.542  17.557  0.00  0.00    +0.000 A 
ATOM     20  N   UNL     1       6.706   6.498  16.233  0.00  0.00    +0.000 NA
ATOM     21  C   UNL     1       5.464   6.133  15.867  0.00  0.00    +0.000 A 
ATOM     22  C   UNL     1       4.456   5.830  16.769  0.00  0.00    +0.000 A 
ENDBRANCH   5  17
TORSDOF 3
ENDMDL
MODEL 7
REMARK VINA RESULT:      -7.2      2.386      4.084
REMARK  Name = 
REMARK  4 active torsions:
REMARK  status: ('A' for Active; 'I' for Inactive)
REMARK    1  A    between atoms: C_1  and  S_2
REMARK    2  A    between atoms: S_2  and  C_3
REMARK    3  A    between atoms: C_6  and  C_7
REMARK    4  A    between atoms: C_11  and  C_12
REMARK                            x       y       z     vdW  Elec       q    Type
REMARK                         _______ _______ _______ _____ _____    ______ ____
ROOT
ATOM      1  C   UNL     1       2.522   5.745  18.758  0.00  0.00    +0.000 A 
ATOM      2  N   UNL     1       1.541   4.771  18.877  0.00  0.00    +0.000 NA
ATOM      3  C   UNL     1       2.169   3.661  18.653  0.00  0.00    +0.000 A 
ATOM      4  N   UNL     1       3.494   3.841  18.417  0.00  0.00    +0.000 N 
ATOM      5  C   UNL     1       3.791   5.181  18.504  0.00  0.00    +0.000 A 
ATOM      6  C   UNL     1       4.256   2.652  18.106  0.00  0.00    +0.000 C 
ATOM      7  C   UNL     1       3.418   1.446  18.543  0.00  0.00    +0.000 C 
ATOM      8  S   UNL     1       1.681   2.019  18.616  0.00  0.00    +0.000 S 
ENDROOT
BRANCH   1  12
ATOM      9  C   UNL     1       1.466   9.879  19.135  0.00  0.00    +0.000 A 
ATOM     10  C   UNL     1       1.916   9.363  17.917  0.00  0.00    +0.000 A 
ATOM     11  C   UNL     1       2.266   8.011  17.807  0.00  0.00    +0.000 A 
ATOM     12  C   UNL     1       2.185   7.155  18.914  0.00  0.00    +0.000 A 
ATOM     13  C   UNL     1       1.798   7.697  20.145  0.00  0.00    +0.000 A 
ATOM     14  C   UNL     1       1.419   9.040  20.250  0.00  0.00    +0.000 A 
BRANCH   9  16
ATOM     15  C   UNL     1       2.308  12.382  18.314  0.00  0.00    +0.000 C 
ATOM     16  S   UNL     1       1.032  11.597  19.335  0.00  0.00    +0.000 S 
ENDBRANCH   9  16
ENDBRANCH   1  12
BRANCH   5  17
ATOM     17  C   UNL     1       5.134   5.770  18.368  0.00  0.00    +0.000 A 
ATOM     18  C   UNL     1       6.179   5.437  19.232  0.00  0.00    +0.000 A 
ATOM     19  C   UNL     1       7.440   5.968  19.003  0.00  0.00    +0.000 A 
ATOM     20  N   UNL     1       7.741   6.776  17.967  0.00  0.00    +0.000 NA
ATOM     21  C   UNL     1       6.726   7.092  17.141  0.00  0.00    +0.000 A 
ATOM     22  C   UNL     1       5.424   6.652  17.320  0.00  0.00    +0.000 A 
ENDBRANCH   5  17
TORSDOF 3
ENDMDL
MODEL 8
REMARK VINA RESULT:      -7.2      2.372      4.309
REMARK  Name = 
REMARK  4 active torsions:
REMARK  status: ('A' for Active; 'I' for Inactive)
REMARK    1  A    between atoms: C_1  and  S_2
REMARK    2  A    between atoms: S_2  and  C_3
REMARK    3  A    between atoms: C_6  and  C_7
REMARK    4  A    between atoms: C_11  and  C_12
REMARK                            x       y       z     vdW  Elec       q    Type
REMARK                         _______ _______ _______ _____ _____    ______ ____
ROOT
ATOM      1  C   UNL     1       2.626   5.946  19.721  0.00  0.00    +0.000 A 
ATOM      2  N   UNL     1       1.987   5.153  20.663  0.00  0.00    +0.000 NA
ATOM      3  C   UNL     1       2.626   4.028  20.614  0.00  0.00    +0.000 A 
ATOM      4  N   UNL     1       3.649   4.039  19.720  0.00  0.00    +0.000 N 
ATOM      5  C   UNL     1       3.719   5.277  19.128  0.00  0.00    +0.000 A 
ATOM      6  C   UNL     1       4.379   2.799  19.569  0.00  0.00    +0.000 C 
ATOM      7  C   UNL     1       4.049   1.924  20.783  0.00  0.00    +0.000 C 
ATOM      8  S   UNL     1       2.463   2.544  21.456  0.00  0.00    +0.000 S 
ENDROOT
BRANCH   1  12
ATOM      9  C   UNL     1       1.311   9.965  19.035  0.00  0.00    +0.000 A 
ATOM     10  C   UNL     1       1.136   9.356  20.281  0.00  0.00    +0.000 A 
ATOM     11  C   UNL     1       1.563   8.039  20.492  0.00  0.00    +0.000 A 
ATOM     12  C   UNL     1       2.160   7.303  19.460  0.00  0.00    +0.000 A 
ATOM     13  C   UNL     1       2.269   7.898  18.197  0.00  0.00    +0.000 A 
ATOM     14  C   UNL     1       1.871   9.223  17.992  0.00  0.00    +0.000 A 
BRANCH   9  16
ATOM     15  C   UNL     1       2.340  12.423  18.294  0.00  0.00    +0.000 C 
ATOM     16  S   UNL     1       0.763  11.630  18.706  0.00  0.00    +0.000 S 
ENDBRANCH   9  16
ENDBRANCH   1  12
BRANCH   5  17
ATOM     17  C   UNL     1       4.732   5.700  18.146  0.00  0.00    +0.000 A 
ATOM     18  C   UNL     1       4.453   5.770  16.779  0.00  0.00    +0.000 A 
ATOM     19  C   UNL     1       5.428   6.249  15.915  0.00  0.00    +0.000 A 
ATOM     20  N   UNL     1       6.637   6.689  16.313  0.00  0.00    +0.000 NA
ATOM     21  C   UNL     1       6.896   6.617  17.632  0.00  0.00    +0.000 A 
ATOM     22  C   UNL     1       6.005   6.104  18.562  0.00  0.00    +0.000 A 
ENDBRANCH   5  17
TORSDOF 3
ENDMDL
MODEL 9
REMARK VINA RESULT:      -7.1      2.361      4.198
REMARK  Name = 
REMARK  4 active torsions:
REMARK  status: ('A' for Active; 'I' for Inactive)
REMARK    1  A    between atoms: C_1  and  S_2
REMARK    2  A    between atoms: S_2  and  C_3
REMARK    3  A    between atoms: C_6  and  C_7
REMARK    4  A    between atoms: C_11  and  C_12
REMARK                            x       y       z     vdW  Elec       q    Type
REMARK                         _______ _______ _______ _____ _____    ______ ____
ROOT
ATOM      1  C   UNL     1       2.615   5.993  19.761  0.00  0.00    +0.000 A 
ATOM      2  N   UNL     1       1.986   5.210  20.718  0.00  0.00    +0.000 NA
ATOM      3  C   UNL     1       2.600   4.072  20.648  0.00  0.00    +0.000 A 
ATOM      4  N   UNL     1       3.598   4.065  19.726  0.00  0.00    +0.000 N 
ATOM      5  C   UNL     1       3.676   5.304  19.136  0.00  0.00    +0.000 A 
ATOM      6  C   UNL     1       4.298   2.812  19.551  0.00  0.00    +0.000 C 
ATOM      7  C   UNL     1       3.984   1.939  20.771  0.00  0.00    +0.000 C 
ATOM      8  S   UNL     1       2.431   2.588  21.490  0.00  0.00    +0.000 S 
ENDROOT
BRANCH   1  12
ATOM      9  C   UNL     1       1.253   9.975  18.962  0.00  0.00    +0.000 A 
ATOM     10  C   UNL     1       1.909   9.231  17.977  0.00  0.00    +0.000 A 
ATOM     11  C   UNL     1       2.357   7.932  18.252  0.00  0.00    +0.000 A 
ATOM     12  C   UNL     1       2.169   7.360  19.517  0.00  0.00    +0.000 A 
ATOM     13  C   UNL     1       1.572   8.138  20.516  0.00  0.00    +0.000 A 
ATOM     14  C   UNL     1       1.096   9.423  20.236  0.00  0.00    +0.000 A 
BRANCH   9  16
ATOM     15  C   UNL     1       2.262  12.477  18.354  0.00  0.00    +0.000 C 
ATOM     16  S   UNL     1       0.686  11.641  18.672  0.00  0.00    +0.000 S 
ENDBRANCH   9  16
ENDBRANCH   1  12
BRANCH   5  17
ATOM     17  C   UNL     1       4.670   5.709  18.126  0.00  0.00    +0.000 A 
ATOM     18  C   UNL     1       4.410   5.624  16.757  0.00  0.00    +0.000 A 
ATOM     19  C   UNL     1       5.358   6.094  15.859  0.00  0.00    +0.000 A 
ATOM     20  N   UNL     1       6.522   6.666  16.224  0.00  0.00    +0.000 NA
ATOM     21  C   UNL     1       6.763   6.742  17.546  0.00  0.00    +0.000 A 
ATOM     22  C   UNL     1       5.900   6.253  18.513  0.00  0.00    +0.000 A 
ENDBRANCH   5  17
TORSDOF 3
ENDMDL
