MODEL 1
REMARK VINA RESULT:      -7.6      0.000      0.000
REMARK  Name = 
REMARK  5 active torsions:
REMARK  status: ('A' for Active; 'I' for Inactive)
REMARK    1  A    between atoms: C_1  and  C_2
REMARK    2  A    between atoms: C_5  and  C_6
REMARK    3  A    between atoms: N_8  and  C_9
REMARK    4  A    between atoms: C_9  and  C_10
REMARK    5  A    between atoms: N_12  and  C_13
REMARK                            x       y       z     vdW  Elec       q    Type
REMARK                         _______ _______ _______ _____ _____    ______ ____
ROOT
ATOM      1  C   UNL     1       5.990   6.980  17.046  0.00  0.00    +0.000 C 
ENDROOT
BRANCH   1   2
ATOM      2  C   UNL     1       4.767   6.537  17.760  0.00  0.00    +0.000 A 
ATOM      3  C   UNL     1       4.563   5.399  18.504  0.00  0.00    +0.000 A 
ATOM      4  N   UNL     1       3.246   5.448  18.888  0.00  0.00    +0.000 N 
ATOM      5  N   UNL     1       2.675   6.569  18.384  0.00  0.00    +0.000 NA
ATOM      6  N   UNL     1       3.597   7.242  17.705  0.00  0.00    +0.000 NA
BRANCH   4   7
ATOM      7  C   UNL     1       2.531   4.506  19.656  0.00  0.00    +0.000 A 
ATOM      8  C   UNL     1       1.554   3.691  19.074  0.00  0.00    +0.000 A 
ATOM      9  C   UNL     1       0.852   2.791  19.870  0.00  0.00    +0.000 A 
ATOM     10  C   UNL     1       1.154   2.735  21.219  0.00  0.00    +0.000 A 
ATOM     11  N   UNL     1       2.099   3.498  21.808  0.00  0.00    +0.000 NA
ATOM     12  C   UNL     1       2.775   4.370  21.016  0.00  0.00    +0.000 A 
ENDBRANCH   4   7
ENDBRANCH   1   2
BRANCH   1  15
ATOM     13  C   UNL     1       6.870   5.269  15.501  0.00  0.00    +0.000 C 
ATOM     14  O   UNL     1       7.575   4.797  16.394  0.00  0.00    +0.000 OA
ATOM     15  N   UNL     1       6.066   6.361  15.742  0.00  0.00    +0.000 N 
ATOM     16  H   UNL     1       5.553   6.772  14.973  0.00  0.00    +0.000 HD
BRANCH  13  21
ATOM     17  C   UNL     1       5.261   2.457  11.572  0.00  0.00    +0.000 C 
ATOM     18  C   UNL     1       6.120   3.424  12.314  0.00  0.00    +0.000 A 
ATOM     19  C   UNL     1       7.216   4.087  11.798  0.00  0.00    +0.000 A 
ATOM     20  S   UNL     1       7.964   5.120  12.939  0.00  0.00    +0.000 S 
ATOM     21  C   UNL     1       6.836   4.707  14.157  0.00  0.00    +0.000 A 
ATOM     22  C   UNL     1       5.910   3.795  13.681  0.00  0.00    +0.000 A 
ENDBRANCH  13  21
ENDBRANCH   1  15
TORSDOF 4
ENDMDL
MODEL 2
REMARK VINA RESULT:      -7.5      1.413      1.670
REMARK  Name = 
REMARK  5 active torsions:
REMARK  status: ('A' for Active; 'I' for Inactive)
REMARK    1  A    between atoms: C_1  and  C_2
REMARK    2  A    between atoms: C_5  and  C_6
REMARK    3  A    between atoms: N_8  and  C_9
REMARK    4  A    between atoms: C_9  and  C_10
REMARK    5  A    between atoms: N_12  and  C_13
REMARK                            x       y       z     vdW  Elec       q    Type
REMARK                         _______ _______ _______ _____ _____    ______ ____
ROOT
ATOM      1  C   UNL     1       7.043   6.659  17.406  0.00  0.00    +0.000 C 
ENDROOT
BRANCH   1   2
ATOM      2  C   UNL     1       6.211   5.831  18.314  0.00  0.00    +0.000 A 
ATOM      3  C   UNL     1       4.879   5.509  18.214  0.00  0.00    +0.000 A 
ATOM      4  N   UNL     1       4.597   4.777  19.341  0.00  0.00    +0.000 N 
ATOM      5  N   UNL     1       5.718   4.670  20.097  0.00  0.00    +0.000 NA
ATOM      6  N   UNL     1       6.707   5.301  19.474  0.00  0.00    +0.000 NA
BRANCH   4   7
ATOM      7  C   UNL     1       3.361   4.220  19.727  0.00  0.00    +0.000 A 
ATOM      8  C   UNL     1       2.321   5.027  20.203  0.00  0.00    +0.000 A 
ATOM      9  C   UNL     1       1.124   4.438  20.597  0.00  0.00    +0.000 A 
ATOM     10  C   UNL     1       1.007   3.063  20.500  0.00  0.00    +0.000 A 
ATOM     11  N   UNL     1       1.986   2.258  20.034  0.00  0.00    +0.000 NA
ATOM     12  C   UNL     1       3.146   2.850  19.652  0.00  0.00    +0.000 A 
ENDBRANCH   4   7
ENDBRANCH   1   2
BRANCH   1  15
ATOM     13  C   UNL     1       7.321   4.961  15.639  0.00  0.00    +0.000 C 
ATOM     14  O   UNL     1       7.860   4.191  16.435  0.00  0.00    +0.000 OA
ATOM     15  N   UNL     1       6.901   6.209  16.040  0.00  0.00    +0.000 N 
ATOM     16  H   UNL     1       6.529   6.847  15.350  0.00  0.00    +0.000 HD
BRANCH  13  21
ATOM     17  C   UNL     1       5.188   2.688  11.612  0.00  0.00    +0.000 C 
ATOM     18  C   UNL     1       6.129   3.574  12.356  0.00  0.00    +0.000 A 
ATOM     19  C   UNL     1       7.115   4.357  11.788  0.00  0.00    +0.000 A 
ATOM     20  S   UNL     1       8.006   5.244  12.949  0.00  0.00    +0.000 S 
ATOM     21  C   UNL     1       7.092   4.603  14.245  0.00  0.00    +0.000 A 
ATOM     22  C   UNL     1       6.126   3.729  13.780  0.00  0.00    +0.000 A 
ENDBRANCH  13  21
ENDBRANCH   1  15
TORSDOF 4
ENDMDL
MODEL 3
REMARK VINA RESULT:      -7.4      1.778      1.962
REMARK  Name = 
REMARK  5 active torsions:
REMARK  status: ('A' for Active; 'I' for Inactive)
REMARK    1  A    between atoms: C_1  and  C_2
REMARK    2  A    between atoms: C_5  and  C_6
REMARK    3  A    between atoms: N_8  and  C_9
REMARK    4  A    between atoms: C_9  and  C_10
REMARK    5  A    between atoms: N_12  and  C_13
REMARK                            x       y       z     vdW  Elec       q    Type
REMARK                         _______ _______ _______ _____ _____    ______ ____
ROOT
ATOM      1  C   UNL     1       7.718   4.783  17.769  0.00  0.00    +0.000 C 
ENDROOT
BRANCH   1   2
ATOM      2  C   UNL     1       6.412   4.717  18.470  0.00  0.00    +0.000 A 
ATOM      3  C   UNL     1       5.325   3.919  18.203  0.00  0.00    +0.000 A 
ATOM      4  N   UNL     1       4.365   4.299  19.107  0.00  0.00    +0.000 N 
ATOM      5  N   UNL     1       4.852   5.297  19.885  0.00  0.00    +0.000 NA
ATOM      6  N   UNL     1       6.101   5.550  19.510  0.00  0.00    +0.000 NA
BRANCH   4   7
ATOM      7  C   UNL     1       3.054   3.797  19.243  0.00  0.00    +0.000 A 
ATOM      8  C   UNL     1       2.134   4.400  20.107  0.00  0.00    +0.000 A 
ATOM      9  C   UNL     1       0.859   3.860  20.233  0.00  0.00    +0.000 A 
ATOM     10  C   UNL     1       0.546   2.737  19.488  0.00  0.00    +0.000 A 
ATOM     11  N   UNL     1       1.406   2.138  18.637  0.00  0.00    +0.000 NA
ATOM     12  C   UNL     1       2.646   2.680  18.526  0.00  0.00    +0.000 A 
ENDBRANCH   4   7
ENDBRANCH   1   2
BRANCH   1  15
ATOM     13  C   UNL     1       6.961   5.171  15.453  0.00  0.00    +0.000 C 
ATOM     14  O   UNL     1       6.490   6.264  15.769  0.00  0.00    +0.000 OA
ATOM     15  N   UNL     1       7.574   4.370  16.392  0.00  0.00    +0.000 N 
ATOM     16  H   UNL     1       7.886   3.447  16.121  0.00  0.00    +0.000 HD
BRANCH  13  21
ATOM     17  C   UNL     1       5.428   2.364  11.490  0.00  0.00    +0.000 C 
ATOM     18  C   UNL     1       6.221   3.389  12.228  0.00  0.00    +0.000 A 
ATOM     19  C   UNL     1       7.206   4.189  11.683  0.00  0.00    +0.000 A 
ATOM     20  S   UNL     1       7.906   5.251  12.829  0.00  0.00    +0.000 S 
ATOM     21  C   UNL     1       6.906   4.665  14.087  0.00  0.00    +0.000 A 
ATOM     22  C   UNL     1       6.057   3.677  13.621  0.00  0.00    +0.000 A 
ENDBRANCH  13  21
ENDBRANCH   1  15
TORSDOF 4
ENDMDL
MODEL 4
REMARK VINA RESULT:      -7.4      1.232      1.599
REMARK  Name = 
REMARK  5 active torsions:
REMARK  status: ('A' for Active; 'I' for Inactive)
REMARK    1  A    between atoms: C_1  and  C_2
REMARK    2  A    between atoms: C_5  and  C_6
REMARK    3  A    between atoms: N_8  and  C_9
REMARK    4  A    between atoms: C_9  and  C_10
REMARK    5  A    between atoms: N_12  and  C_13
REMARK                            x       y       z     vdW  Elec       q    Type
REMARK                         _______ _______ _______ _____ _____    ______ ____
ROOT
ATOM      1  C   UNL     1       6.418   6.749  17.248  0.00  0.00    +0.000 C 
ENDROOT
BRANCH   1   2
ATOM      2  C   UNL     1       5.761   5.822  18.202  0.00  0.00    +0.000 A 
ATOM      3  C   UNL     1       4.424   5.536  18.350  0.00  0.00    +0.000 A 
ATOM      4  N   UNL     1       4.355   4.666  19.410  0.00  0.00    +0.000 N 
ATOM      5  N   UNL     1       5.604   4.444  19.889  0.00  0.00    +0.000 NA
ATOM      6  N   UNL     1       6.466   5.136  19.152  0.00  0.00    +0.000 NA
BRANCH   4   7
ATOM      7  C   UNL     1       3.205   4.082  19.979  0.00  0.00    +0.000 A 
ATOM      8  C   UNL     1       3.304   3.004  20.865  0.00  0.00    +0.000 A 
ATOM      9  C   UNL     1       2.145   2.439  21.386  0.00  0.00    +0.000 A 
ATOM     10  C   UNL     1       0.926   2.973  21.006  0.00  0.00    +0.000 A 
ATOM     11  N   UNL     1       0.797   4.020  20.164  0.00  0.00    +0.000 NA
ATOM     12  C   UNL     1       1.939   4.560  19.666  0.00  0.00    +0.000 A 
ENDBRANCH   4   7
ENDBRANCH   1   2
BRANCH   1  15
ATOM     13  C   UNL     1       7.109   5.125  15.524  0.00  0.00    +0.000 C 
ATOM     14  O   UNL     1       7.877   4.579  16.318  0.00  0.00    +0.000 OA
ATOM     15  N   UNL     1       6.361   6.217  15.905  0.00  0.00    +0.000 N 
ATOM     16  H   UNL     1       5.794   6.689  15.214  0.00  0.00    +0.000 HD
BRANCH  13  21
ATOM     17  C   UNL     1       5.116   2.572  11.595  0.00  0.00    +0.000 C 
ATOM     18  C   UNL     1       6.045   3.493  12.311  0.00  0.00    +0.000 A 
ATOM     19  C   UNL     1       7.084   4.196  11.733  0.00  0.00    +0.000 A 
ATOM     20  S   UNL     1       7.942   5.156  12.862  0.00  0.00    +0.000 S 
ATOM     21  C   UNL     1       6.942   4.654  14.155  0.00  0.00    +0.000 A 
ATOM     22  C   UNL     1       5.973   3.770  13.714  0.00  0.00    +0.000 A 
ENDBRANCH  13  21
ENDBRANCH   1  15
TORSDOF 4
ENDMDL
MODEL 5
REMARK VINA RESULT:      -7.1      3.513      7.924
REMARK  Name = 
REMARK  5 active torsions:
REMARK  status: ('A' for Active; 'I' for Inactive)
REMARK    1  A    between atoms: C_1  and  C_2
REMARK    2  A    between atoms: C_5  and  C_6
REMARK    3  A    between atoms: N_8  and  C_9
REMARK    4  A    between atoms: C_9  and  C_10
REMARK    5  A    between atoms: N_12  and  C_13
REMARK                            x       y       z     vdW  Elec       q    Type
REMARK                         _______ _______ _______ _____ _____    ______ ____
ROOT
ATOM      1  C   UNL     1       5.081   4.652  19.271  0.00  0.00    +0.000 C 
ENDROOT
BRANCH   1   2
ATOM      2  C   UNL     1       5.921   4.626  18.048  0.00  0.00    +0.000 A 
ATOM      3  C   UNL     1       5.534   4.667  16.730  0.00  0.00    +0.000 A 
ATOM      4  N   UNL     1       6.695   4.552  16.007  0.00  0.00    +0.000 N 
ATOM      5  N   UNL     1       7.743   4.436  16.859  0.00  0.00    +0.000 NA
ATOM      6  N   UNL     1       7.281   4.490  18.103  0.00  0.00    +0.000 NA
BRANCH   4   7
ATOM      7  C   UNL     1       6.844   4.524  14.605  0.00  0.00    +0.000 A 
ATOM      8  C   UNL     1       6.126   3.617  13.819  0.00  0.00    +0.000 A 
ATOM      9  C   UNL     1       6.319   3.602  12.442  0.00  0.00    +0.000 A 
ATOM     10  C   UNL     1       7.222   4.497  11.897  0.00  0.00    +0.000 A 
ATOM     11  N   UNL     1       7.922   5.394  12.626  0.00  0.00    +0.000 NA
ATOM     12  C   UNL     1       7.719   5.394  13.968  0.00  0.00    +0.000 A 
ENDBRANCH   4   7
ENDBRANCH   1   2
BRANCH   1  15
ATOM     13  C   UNL     1       2.945   5.830  19.643  0.00  0.00    +0.000 C 
ATOM     14  O   UNL     1       2.379   4.766  19.899  0.00  0.00    +0.000 OA
ATOM     15  N   UNL     1       4.281   5.855  19.308  0.00  0.00    +0.000 N 
ATOM     16  H   UNL     1       4.701   6.733  19.032  0.00  0.00    +0.000 HD
BRANCH  13  21
ATOM     17  C   UNL     1       0.199   9.681  21.529  0.00  0.00    +0.000 C 
ATOM     18  C   UNL     1       0.986   8.914  20.521  0.00  0.00    +0.000 A 
ATOM     19  C   UNL     1       1.260   9.327  19.232  0.00  0.00    +0.000 A 
ATOM     20  S   UNL     1       2.190   8.188  18.356  0.00  0.00    +0.000 S 
ATOM     21  C   UNL     1       2.249   7.110  19.683  0.00  0.00    +0.000 A 
ATOM     22  C   UNL     1       1.567   7.629  20.769  0.00  0.00    +0.000 A 
ENDBRANCH  13  21
ENDBRANCH   1  15
TORSDOF 4
ENDMDL
MODEL 6
REMARK VINA RESULT:      -7.0      6.427      8.030
REMARK  Name = 
REMARK  5 active torsions:
REMARK  status: ('A' for Active; 'I' for Inactive)
REMARK    1  A    between atoms: C_1  and  C_2
REMARK    2  A    between atoms: C_5  and  C_6
REMARK    3  A    between atoms: N_8  and  C_9
REMARK    4  A    between atoms: C_9  and  C_10
REMARK    5  A    between atoms: N_12  and  C_13
REMARK                            x       y       z     vdW  Elec       q    Type
REMARK                         _______ _______ _______ _____ _____    ______ ____
ROOT
ATOM      1  C   UNL     1       1.485  10.214  18.681  0.00  0.00    +0.000 C 
ENDROOT
BRANCH   1   2
ATOM      2  C   UNL     1       1.827   8.799  18.970  0.00  0.00    +0.000 A 
ATOM      3  C   UNL     1       2.321   7.837  18.121  0.00  0.00    +0.000 A 
ATOM      4  N   UNL     1       2.400   6.693  18.876  0.00  0.00    +0.000 N 
ATOM      5  N   UNL     1       1.960   6.954  20.132  0.00  0.00    +0.000 NA
ATOM      6  N   UNL     1       1.620   8.236  20.199  0.00  0.00    +0.000 NA
BRANCH   4   7
ATOM      7  C   UNL     1       2.831   5.414  18.469  0.00  0.00    +0.000 A 
ATOM      8  C   UNL     1       1.984   4.557  17.758  0.00  0.00    +0.000 A 
ATOM      9  C   UNL     1       2.437   3.293  17.396  0.00  0.00    +0.000 A 
ATOM     10  C   UNL     1       3.722   2.929  17.755  0.00  0.00    +0.000 A 
ATOM     11  N   UNL     1       4.569   3.736  18.430  0.00  0.00    +0.000 NA
ATOM     12  C   UNL     1       4.110   4.967  18.774  0.00  0.00    +0.000 A 
ENDBRANCH   4   7
ENDBRANCH   1   2
BRANCH   1  15
ATOM     13  C   UNL     1      -0.943  10.615  18.512  0.00  0.00    +0.000 C 
ATOM     14  O   UNL     1      -1.013  10.825  19.724  0.00  0.00    +0.000 OA
ATOM     15  N   UNL     1       0.259  10.292  17.921  0.00  0.00    +0.000 N 
ATOM     16  H   UNL     1       0.275  10.054  16.938  0.00  0.00    +0.000 HD
BRANCH  13  21
ATOM     17  C   UNL     1      -3.796  10.019  14.336  0.00  0.00    +0.000 C 
ATOM     18  C   UNL     1      -3.460  10.440  15.727  0.00  0.00    +0.000 A 
ATOM     19  C   UNL     1      -4.314  11.085  16.601  0.00  0.00    +0.000 A 
ATOM     20  S   UNL     1      -3.586  11.415  18.115  0.00  0.00    +0.000 S 
ATOM     21  C   UNL     1      -2.107  10.701  17.638  0.00  0.00    +0.000 A 
ATOM     22  C   UNL     1      -2.186  10.222  16.343  0.00  0.00    +0.000 A 
ENDBRANCH  13  21
ENDBRANCH   1  15
TORSDOF 4
ENDMDL
MODEL 7
REMARK VINA RESULT:      -6.9      1.902      2.285
REMARK  Name = 
REMARK  5 active torsions:
REMARK  status: ('A' for Active; 'I' for Inactive)
REMARK    1  A    between atoms: C_1  and  C_2
REMARK    2  A    between atoms: C_5  and  C_6
REMARK    3  A    between atoms: N_8  and  C_9
REMARK    4  A    between atoms: C_9  and  C_10
REMARK    5  A    between atoms: N_12  and  C_13
REMARK                            x       y       z     vdW  Elec       q    Type
REMARK                         _______ _______ _______ _____ _____    ______ ____
ROOT
ATOM      1  C   UNL     1       7.108   4.577  16.290  0.00  0.00    +0.000 C 
ENDROOT
BRANCH   1   2
ATOM      2  C   UNL     1       6.231   4.469  17.483  0.00  0.00    +0.000 A 
ATOM      3  C   UNL     1       4.915   4.080  17.558  0.00  0.00    +0.000 A 
ATOM      4  N   UNL     1       4.571   4.216  18.880  0.00  0.00    +0.000 N 
ATOM      5  N   UNL     1       5.639   4.679  19.575  0.00  0.00    +0.000 NA
ATOM      6  N   UNL     1       6.656   4.825  18.733  0.00  0.00    +0.000 NA
BRANCH   4   7
ATOM      7  C   UNL     1       3.321   3.961  19.481  0.00  0.00    +0.000 A 
ATOM      8  C   UNL     1       2.582   2.819  19.156  0.00  0.00    +0.000 A 
ATOM      9  C   UNL     1       1.341   2.615  19.752  0.00  0.00    +0.000 A 
ATOM     10  C   UNL     1       0.885   3.559  20.655  0.00  0.00    +0.000 A 
ATOM     11  N   UNL     1       1.579   4.664  21.000  0.00  0.00    +0.000 NA
ATOM     12  C   UNL     1       2.788   4.846  20.409  0.00  0.00    +0.000 A 
ENDBRANCH   4   7
ENDBRANCH   1   2
BRANCH   1  15
ATOM     13  C   UNL     1       6.743   4.365  13.860  0.00  0.00    +0.000 C 
ATOM     14  O   UNL     1       7.500   5.312  13.643  0.00  0.00    +0.000 OA
ATOM     15  N   UNL     1       6.485   3.949  15.147  0.00  0.00    +0.000 N 
ATOM     16  H   UNL     1       5.804   3.217  15.300  0.00  0.00    +0.000 HD
BRANCH  13  21
ATOM     17  C   UNL     1       3.120   3.068  10.524  0.00  0.00    +0.000 C 
ATOM     18  C   UNL     1       4.436   3.005  11.223  0.00  0.00    +0.000 A 
ATOM     19  C   UNL     1       5.452   2.110  10.947  0.00  0.00    +0.000 A 
ATOM     20  S   UNL     1       6.820   2.331  11.952  0.00  0.00    +0.000 S 
ATOM     21  C   UNL     1       6.086   3.632  12.784  0.00  0.00    +0.000 A 
ATOM     22  C   UNL     1       4.819   3.882  12.289  0.00  0.00    +0.000 A 
ENDBRANCH  13  21
ENDBRANCH   1  15
TORSDOF 4
ENDMDL
MODEL 8
REMARK VINA RESULT:      -6.9      6.353      7.891
REMARK  Name = 
REMARK  5 active torsions:
REMARK  status: ('A' for Active; 'I' for Inactive)
REMARK    1  A    between atoms: C_1  and  C_2
REMARK    2  A    between atoms: C_5  and  C_6
REMARK    3  A    between atoms: N_8  and  C_9
REMARK    4  A    between atoms: C_9  and  C_10
REMARK    5  A    between atoms: N_12  and  C_13
REMARK                            x       y       z     vdW  Elec       q    Type
REMARK                         _______ _______ _______ _____ _____    ______ ____
ROOT
ATOM      1  C   UNL     1       1.458  10.208  18.764  0.00  0.00    +0.000 C 
ENDROOT
BRANCH   1   2
ATOM      2  C   UNL     1       1.915   8.797  18.708  0.00  0.00    +0.000 A 
ATOM      3  C   UNL     1       1.798   7.811  19.658  0.00  0.00    +0.000 A 
ATOM      4  N   UNL     1       2.439   6.719  19.129  0.00  0.00    +0.000 N 
ATOM      5  N   UNL     1       2.933   7.039  17.907  0.00  0.00    +0.000 NA
ATOM      6  N   UNL     1       2.610   8.299  17.640  0.00  0.00    +0.000 NA
BRANCH   4   7
ATOM      7  C   UNL     1       2.617   5.449  19.715  0.00  0.00    +0.000 A 
ATOM      8  C   UNL     1       1.751   4.984  20.710  0.00  0.00    +0.000 A 
ATOM      9  C   UNL     1       1.973   3.736  21.283  0.00  0.00    +0.000 A 
ATOM     10  C   UNL     1       3.053   2.995  20.838  0.00  0.00    +0.000 A 
ATOM     11  N   UNL     1       3.900   3.408  19.871  0.00  0.00    +0.000 NA
ATOM     12  C   UNL     1       3.666   4.629  19.323  0.00  0.00    +0.000 A 
ENDBRANCH   4   7
ENDBRANCH   1   2
BRANCH   1  15
ATOM     13  C   UNL     1      -0.995  10.354  18.548  0.00  0.00    +0.000 C 
ATOM     14  O   UNL     1      -1.134  10.153  19.755  0.00  0.00    +0.000 OA
ATOM     15  N   UNL     1       0.258  10.381  17.977  0.00  0.00    +0.000 N 
ATOM     16  H   UNL     1       0.338  10.475  16.973  0.00  0.00    +0.000 HD
BRANCH  13  21
ATOM     17  C   UNL     1      -3.854  10.095  14.341  0.00  0.00    +0.000 C 
ATOM     18  C   UNL     1      -3.485  10.476  15.735  0.00  0.00    +0.000 A 
ATOM     19  C   UNL     1      -4.263  11.224  16.597  0.00  0.00    +0.000 A 
ATOM     20  S   UNL     1      -3.517  11.468  18.118  0.00  0.00    +0.000 S 
ATOM     21  C   UNL     1      -2.131  10.577  17.661  0.00  0.00    +0.000 A 
ATOM     22  C   UNL     1      -2.253  10.107  16.366  0.00  0.00    +0.000 A 
ENDBRANCH  13  21
ENDBRANCH   1  15
TORSDOF 4
ENDMDL
MODEL 9
REMARK VINA RESULT:      -6.8      4.156      5.033
REMARK  Name = 
REMARK  5 active torsions:
REMARK  status: ('A' for Active; 'I' for Inactive)
REMARK    1  A    between atoms: C_1  and  C_2
REMARK    2  A    between atoms: C_5  and  C_6
REMARK    3  A    between atoms: N_8  and  C_9
REMARK    4  A    between atoms: C_9  and  C_10
REMARK    5  A    between atoms: N_12  and  C_13
REMARK                            x       y       z     vdW  Elec       q    Type
REMARK                         _______ _______ _______ _____ _____    ______ ____
ROOT
ATOM      1  C   UNL     1       2.891   5.493  19.637  0.00  0.00    +0.000 C 
ENDROOT
BRANCH   1   2
ATOM      2  C   UNL     1       2.301   6.845  19.795  0.00  0.00    +0.000 A 
ATOM      3  C   UNL     1       1.676   7.395  20.889  0.00  0.00    +0.000 A 
ATOM      4  N   UNL     1       1.267   8.642  20.485  0.00  0.00    +0.000 N 
ATOM      5  N   UNL     1       1.624   8.832  19.191  0.00  0.00    +0.000 NA
ATOM      6  N   UNL     1       2.262   7.747  18.767  0.00  0.00    +0.000 NA
BRANCH   4   7
ATOM      7  C   UNL     1       0.561   9.607  21.232  0.00  0.00    +0.000 A 
ATOM      8  C   UNL     1      -0.109   9.262  22.410  0.00  0.00    +0.000 A 
ATOM      9  C   UNL     1      -0.815  10.237  23.106  0.00  0.00    +0.000 A 
ATOM     10  C   UNL     1      -0.825  11.525  22.601  0.00  0.00    +0.000 A 
ATOM     11  N   UNL     1      -0.178  11.894  21.475  0.00  0.00    +0.000 NA
ATOM     12  C   UNL     1       0.507  10.928  20.809  0.00  0.00    +0.000 A 
ENDBRANCH   4   7
ENDBRANCH   1   2
BRANCH   1  15
ATOM     13  C   UNL     1       4.490   4.327  18.164  0.00  0.00    +0.000 C 
ATOM     14  O   UNL     1       4.331   3.277  18.789  0.00  0.00    +0.000 OA
ATOM     15  N   UNL     1       3.822   5.474  18.532  0.00  0.00    +0.000 N 
ATOM     16  H   UNL     1       4.027   6.338  18.048  0.00  0.00    +0.000 HD
BRANCH  13  21
ATOM     17  C   UNL     1       6.100   3.794  13.363  0.00  0.00    +0.000 C 
ATOM     18  C   UNL     1       6.155   4.196  14.798  0.00  0.00    +0.000 A 
ATOM     19  C   UNL     1       7.212   4.837  15.414  0.00  0.00    +0.000 A 
ATOM     20  S   UNL     1       6.926   5.140  17.074  0.00  0.00    +0.000 S 
ATOM     21  C   UNL     1       5.376   4.419  17.011  0.00  0.00    +0.000 A 
ATOM     22  C   UNL     1       5.098   3.962  15.735  0.00  0.00    +0.000 A 
ENDBRANCH  13  21
ENDBRANCH   1  15
TORSDOF 4
ENDMDL
