MODEL 1
REMARK VINA RESULT:      -9.4      0.000      0.000
REMARK  Name = 
REMARK  5 active torsions:
REMARK  status: ('A' for Active; 'I' for Inactive)
REMARK    1  A    between atoms: C_1  and  C_2
REMARK    2  A    between atoms: C_2  and  N_3
REMARK    3  A    between atoms: C_9  and  C_10
REMARK    4  A    between atoms: C_17  and  C_18
REMARK    5  A    between atoms: N_24  and  C_25
REMARK                            x       y       z     vdW  Elec       q    Type
REMARK                         _______ _______ _______ _____ _____    ______ ____
ROOT
ATOM      1  C   UNL     1       2.033   8.213  18.847  0.00  0.00    +0.000 A 
ATOM      2  C   UNL     1       2.960   8.205  17.808  0.00  0.00    +0.000 A 
ATOM      3  C   UNL     1       3.782   7.107  17.635  0.00  0.00    +0.000 A 
ATOM      4  C   UNL     1       3.512   5.964  18.420  0.00  0.00    +0.000 A 
ATOM      5  C   UNL     1       3.032   6.034  19.695  0.00  0.00    +0.000 A 
ATOM      6  C   UNL     1       2.178   7.200  19.863  0.00  0.00    +0.000 A 
ATOM      7  C   UNL     1       2.852   4.667  20.241  0.00  0.00    +0.000 A 
ATOM      8  C   UNL     1       3.548   3.370  20.465  0.00  0.00    +0.000 A 
ATOM      9  C   UNL     1       4.319   2.544  19.414  0.00  0.00    +0.000 C 
ATOM     10  C   UNL     1       2.884   2.434  21.296  0.00  0.00    +0.000 A 
ATOM     11  C   UNL     1       1.536   2.633  21.530  0.00  0.00    +0.000 A 
ATOM     12  C   UNL     1       0.899   3.562  20.710  0.00  0.00    +0.000 A 
ATOM     13  C   UNL     1       1.711   4.282  19.756  0.00  0.00    +0.000 A 
ATOM     14  C   UNL     1       1.772   4.369  18.296  0.00  0.00    +0.000 A 
ATOM     15  N   UNL     1       2.926   4.923  17.756  0.00  0.00    +0.000 N 
ATOM     16  C   UNL     1       3.726   4.327  16.686  0.00  0.00    +0.000 C 
ENDROOT
BRANCH   1  23
ATOM     17  N   UNL     1      -0.930  11.748  20.770  0.00  0.00    +0.000 N 
ATOM     18  C   UNL     1      -1.951  12.502  20.258  0.00  0.00    +0.000 A 
ATOM     19  C   UNL     1      -2.184  12.073  18.969  0.00  0.00    +0.000 A 
ATOM     20  C   UNL     1      -1.260  11.030  18.684  0.00  0.00    +0.000 A 
ATOM     21  C   UNL     1      -1.018  10.204  17.580  0.00  0.00    +0.000 A 
ATOM     22  C   UNL     1       0.044   9.275  17.649  0.00  0.00    +0.000 A 
ATOM     23  C   UNL     1       0.896   9.166  18.781  0.00  0.00    +0.000 A 
ATOM     24  C   UNL     1       0.623   9.991  19.869  0.00  0.00    +0.000 A 
ATOM     25  C   UNL     1      -0.454  10.884  19.811  0.00  0.00    +0.000 A 
BRANCH  17  27
ATOM     26  C   UNL     1      -1.167  10.820  23.038  0.00  0.00    +0.000 C 
ATOM     27  C   UNL     1      -0.442  11.802  22.137  0.00  0.00    +0.000 C 
ENDBRANCH  17  27
ENDBRANCH   1  23
TORSDOF 2
ENDMDL
MODEL 2
REMARK VINA RESULT:      -9.1      1.206      2.523
REMARK  Name = 
REMARK  5 active torsions:
REMARK  status: ('A' for Active; 'I' for Inactive)
REMARK    1  A    between atoms: C_1  and  C_2
REMARK    2  A    between atoms: C_2  and  N_3
REMARK    3  A    between atoms: C_9  and  C_10
REMARK    4  A    between atoms: C_17  and  C_18
REMARK    5  A    between atoms: N_24  and  C_25
REMARK                            x       y       z     vdW  Elec       q    Type
REMARK                         _______ _______ _______ _____ _____    ______ ____
ROOT
ATOM      1  C   UNL     1       2.039   8.305  18.910  0.00  0.00    +0.000 A 
ATOM      2  C   UNL     1       2.909   8.285  17.822  0.00  0.00    +0.000 A 
ATOM      3  C   UNL     1       3.688   7.166  17.591  0.00  0.00    +0.000 A 
ATOM      4  C   UNL     1       3.426   6.021  18.375  0.00  0.00    +0.000 A 
ATOM      5  C   UNL     1       3.015   6.086  19.675  0.00  0.00    +0.000 A 
ATOM      6  C   UNL     1       2.206   7.274  19.903  0.00  0.00    +0.000 A 
ATOM      7  C   UNL     1       2.824   4.717  20.212  0.00  0.00    +0.000 A 
ATOM      8  C   UNL     1       3.492   3.396  20.381  0.00  0.00    +0.000 A 
ATOM      9  C   UNL     1       4.181   2.564  19.280  0.00  0.00    +0.000 C 
ATOM     10  C   UNL     1       2.845   2.468  21.235  0.00  0.00    +0.000 A 
ATOM     11  C   UNL     1       1.518   2.703  21.542  0.00  0.00    +0.000 A 
ATOM     12  C   UNL     1       0.866   3.662  20.770  0.00  0.00    +0.000 A 
ATOM     13  C   UNL     1       1.648   4.372  19.783  0.00  0.00    +0.000 A 
ATOM     14  C   UNL     1       1.635   4.479  18.323  0.00  0.00    +0.000 A 
ATOM     15  N   UNL     1       2.774   5.006  17.729  0.00  0.00    +0.000 N 
ATOM     16  C   UNL     1       3.499   4.403  16.611  0.00  0.00    +0.000 C 
ENDROOT
BRANCH   1  23
ATOM     17  N   UNL     1      -2.129  10.330  17.038  0.00  0.00    +0.000 N 
ATOM     18  C   UNL     1      -2.972  11.317  17.470  0.00  0.00    +0.000 A 
ATOM     19  C   UNL     1      -2.439  11.850  18.624  0.00  0.00    +0.000 A 
ATOM     20  C   UNL     1      -1.234  11.150  18.910  0.00  0.00    +0.000 A 
ATOM     21  C   UNL     1      -0.256  11.239  19.908  0.00  0.00    +0.000 A 
ATOM     22  C   UNL     1       0.817  10.322  19.888  0.00  0.00    +0.000 A 
ATOM     23  C   UNL     1       0.929   9.292  18.916  0.00  0.00    +0.000 A 
ATOM     24  C   UNL     1      -0.051   9.235  17.929  0.00  0.00    +0.000 A 
ATOM     25  C   UNL     1      -1.093  10.170  17.929  0.00  0.00    +0.000 A 
BRANCH  17  27
ATOM     26  C   UNL     1      -3.083  10.341  14.769  0.00  0.00    +0.000 C 
ATOM     27  C   UNL     1      -2.263   9.586  15.797  0.00  0.00    +0.000 C 
ENDBRANCH  17  27
ENDBRANCH   1  23
TORSDOF 2
ENDMDL
MODEL 3
REMARK VINA RESULT:      -8.8      0.879      1.102
REMARK  Name = 
REMARK  5 active torsions:
REMARK  status: ('A' for Active; 'I' for Inactive)
REMARK    1  A    between atoms: C_1  and  C_2
REMARK    2  A    between atoms: C_2  and  N_3
REMARK    3  A    between atoms: C_9  and  C_10
REMARK    4  A    between atoms: C_17  and  C_18
REMARK    5  A    between atoms: N_24  and  C_25
REMARK                            x       y       z     vdW  Elec       q    Type
REMARK                         _______ _______ _______ _____ _____    ______ ____
ROOT
ATOM      1  C   UNL     1       2.179   8.239  18.679  0.00  0.00    +0.000 A 
ATOM      2  C   UNL     1       3.134   8.177  17.668  0.00  0.00    +0.000 A 
ATOM      3  C   UNL     1       3.918   7.045  17.538  0.00  0.00    +0.000 A 
ATOM      4  C   UNL     1       3.581   5.928  18.334  0.00  0.00    +0.000 A 
ATOM      5  C   UNL     1       3.066   6.039  19.593  0.00  0.00    +0.000 A 
ATOM      6  C   UNL     1       2.254   7.240  19.715  0.00  0.00    +0.000 A 
ATOM      7  C   UNL     1       2.817   4.690  20.156  0.00  0.00    +0.000 A 
ATOM      8  C   UNL     1       3.456   3.371  20.422  0.00  0.00    +0.000 A 
ATOM      9  C   UNL     1       4.224   2.497  19.408  0.00  0.00    +0.000 C 
ATOM     10  C   UNL     1       2.732   2.476  21.249  0.00  0.00    +0.000 A 
ATOM     11  C   UNL     1       1.386   2.732  21.439  0.00  0.00    +0.000 A 
ATOM     12  C   UNL     1       0.810   3.670  20.585  0.00  0.00    +0.000 A 
ATOM     13  C   UNL     1       1.677   4.340  19.643  0.00  0.00    +0.000 A 
ATOM     14  C   UNL     1       1.784   4.399  18.185  0.00  0.00    +0.000 A 
ATOM     15  N   UNL     1       2.974   4.898  17.670  0.00  0.00    +0.000 N 
ATOM     16  C   UNL     1       3.781   4.253  16.635  0.00  0.00    +0.000 C 
ENDROOT
BRANCH   1  23
ATOM     17  N   UNL     1      -0.145  12.473  19.962  0.00  0.00    +0.000 N 
ATOM     18  C   UNL     1      -1.242  13.130  19.475  0.00  0.00    +0.000 A 
ATOM     19  C   UNL     1      -1.792  12.350  18.482  0.00  0.00    +0.000 A 
ATOM     20  C   UNL     1      -0.989  11.183  18.351  0.00  0.00    +0.000 A 
ATOM     21  C   UNL     1      -1.042  10.036  17.550  0.00  0.00    +0.000 A 
ATOM     22  C   UNL     1      -0.017   9.072  17.678  0.00  0.00    +0.000 A 
ATOM     23  C   UNL     1       1.082   9.234  18.563  0.00  0.00    +0.000 A 
ATOM     24  C   UNL     1       1.102  10.378  19.356  0.00  0.00    +0.000 A 
ATOM     25  C   UNL     1       0.063  11.313  19.254  0.00  0.00    +0.000 A 
BRANCH  17  27
ATOM     26  C   UNL     1       1.786  13.825  20.671  0.00  0.00    +0.000 C 
ATOM     27  C   UNL     1       0.663  12.898  21.093  0.00  0.00    +0.000 C 
ENDBRANCH  17  27
ENDBRANCH   1  23
TORSDOF 2
ENDMDL
MODEL 4
REMARK VINA RESULT:      -7.9      1.769      8.052
REMARK  Name = 
REMARK  5 active torsions:
REMARK  status: ('A' for Active; 'I' for Inactive)
REMARK    1  A    between atoms: C_1  and  C_2
REMARK    2  A    between atoms: C_2  and  N_3
REMARK    3  A    between atoms: C_9  and  C_10
REMARK    4  A    between atoms: C_17  and  C_18
REMARK    5  A    between atoms: N_24  and  C_25
REMARK                            x       y       z     vdW  Elec       q    Type
REMARK                         _______ _______ _______ _____ _____    ______ ____
ROOT
ATOM      1  C   UNL     1       1.591   9.010  18.648  0.00  0.00    +0.000 A 
ATOM      2  C   UNL     1       2.161   9.999  17.851  0.00  0.00    +0.000 A 
ATOM      3  C   UNL     1       1.735  11.308  17.980  0.00  0.00    +0.000 A 
ATOM      4  C   UNL     1       0.863  11.605  19.050  0.00  0.00    +0.000 A 
ATOM      5  C   UNL     1      -0.073  10.727  19.513  0.00  0.00    +0.000 A 
ATOM      6  C   UNL     1       0.385   9.354  19.361  0.00  0.00    +0.000 A 
ATOM      7  C   UNL     1      -0.821  11.334  20.640  0.00  0.00    +0.000 A 
ATOM      8  C   UNL     1      -1.600  12.537  21.046  0.00  0.00    +0.000 A 
ATOM      9  C   UNL     1      -1.157  14.010  20.915  0.00  0.00    +0.000 C 
ATOM     10  C   UNL     1      -2.312  12.444  22.267  0.00  0.00    +0.000 A 
ATOM     11  C   UNL     1      -1.956  11.430  23.137  0.00  0.00    +0.000 A 
ATOM     12  C   UNL     1      -0.757  10.775  22.862  0.00  0.00    +0.000 A 
ATOM     13  C   UNL     1      -0.044  11.157  21.665  0.00  0.00    +0.000 A 
ATOM     14  C   UNL     1       1.256  11.765  21.376  0.00  0.00    +0.000 A 
ATOM     15  N   UNL     1       1.429  12.279  20.097  0.00  0.00    +0.000 N 
ATOM     16  C   UNL     1       1.932  13.617  19.786  0.00  0.00    +0.000 C 
ENDROOT
BRANCH   1  23
ATOM     17  N   UNL     1       4.870   5.527  17.203  0.00  0.00    +0.000 N 
ATOM     18  C   UNL     1       5.341   4.379  17.780  0.00  0.00    +0.000 A 
ATOM     19  C   UNL     1       4.657   4.193  18.962  0.00  0.00    +0.000 A 
ATOM     20  C   UNL     1       3.748   5.276  19.114  0.00  0.00    +0.000 A 
ATOM     21  C   UNL     1       2.790   5.631  20.072  0.00  0.00    +0.000 A 
ATOM     22  C   UNL     1       2.077   6.839  19.901  0.00  0.00    +0.000 A 
ATOM     23  C   UNL     1       2.315   7.723  18.815  0.00  0.00    +0.000 A 
ATOM     24  C   UNL     1       3.263   7.339  17.872  0.00  0.00    +0.000 A 
ATOM     25  C   UNL     1       3.941   6.122  18.024  0.00  0.00    +0.000 A 
BRANCH  17  27
ATOM     26  C   UNL     1       5.652   4.914  14.950  0.00  0.00    +0.000 C 
ATOM     27  C   UNL     1       5.247   6.031  15.893  0.00  0.00    +0.000 C 
ENDBRANCH  17  27
ENDBRANCH   1  23
TORSDOF 2
ENDMDL
MODEL 5
REMARK VINA RESULT:      -7.8      1.538      7.519
REMARK  Name = 
REMARK  5 active torsions:
REMARK  status: ('A' for Active; 'I' for Inactive)
REMARK    1  A    between atoms: C_1  and  C_2
REMARK    2  A    between atoms: C_2  and  N_3
REMARK    3  A    between atoms: C_9  and  C_10
REMARK    4  A    between atoms: C_17  and  C_18
REMARK    5  A    between atoms: N_24  and  C_25
REMARK                            x       y       z     vdW  Elec       q    Type
REMARK                         _______ _______ _______ _____ _____    ______ ____
ROOT
ATOM      1  C   UNL     1       1.813   8.943  18.377  0.00  0.00    +0.000 A 
ATOM      2  C   UNL     1       2.281  10.029  17.642  0.00  0.00    +0.000 A 
ATOM      3  C   UNL     1       1.801  11.297  17.916  0.00  0.00    +0.000 A 
ATOM      4  C   UNL     1       0.985  11.449  19.059  0.00  0.00    +0.000 A 
ATOM      5  C   UNL     1       0.125  10.483  19.494  0.00  0.00    +0.000 A 
ATOM      6  C   UNL     1       0.640   9.156  19.188  0.00  0.00    +0.000 A 
ATOM      7  C   UNL     1      -0.578  10.945  20.714  0.00  0.00    +0.000 A 
ATOM      8  C   UNL     1      -1.388  12.063  21.274  0.00  0.00    +0.000 A 
ATOM      9  C   UNL     1      -1.027  13.564  21.254  0.00  0.00    +0.000 C 
ATOM     10  C   UNL     1      -2.015  11.823  22.522  0.00  0.00    +0.000 A 
ATOM     11  C   UNL     1      -1.554  10.756  23.272  0.00  0.00    +0.000 A 
ATOM     12  C   UNL     1      -0.345  10.196  22.868  0.00  0.00    +0.000 A 
ATOM     13  C   UNL     1       0.271  10.721  21.671  0.00  0.00    +0.000 A 
ATOM     14  C   UNL     1       1.517  11.423  21.362  0.00  0.00    +0.000 A 
ATOM     15  N   UNL     1       1.583  12.058  20.128  0.00  0.00    +0.000 N 
ATOM     16  C   UNL     1       1.999  13.443  19.912  0.00  0.00    +0.000 C 
ENDROOT
BRANCH   1  23
ATOM     17  N   UNL     1       2.943   4.394  20.109  0.00  0.00    +0.000 N 
ATOM     18  C   UNL     1       3.828   3.428  19.713  0.00  0.00    +0.000 A 
ATOM     19  C   UNL     1       4.562   3.937  18.664  0.00  0.00    +0.000 A 
ATOM     20  C   UNL     1       4.095   5.256  18.404  0.00  0.00    +0.000 A 
ATOM     21  C   UNL     1       4.446   6.265  17.500  0.00  0.00    +0.000 A 
ATOM     22  C   UNL     1       3.711   7.471  17.513  0.00  0.00    +0.000 A 
ATOM     23  C   UNL     1       2.609   7.689  18.382  0.00  0.00    +0.000 A 
ATOM     24  C   UNL     1       2.291   6.674  19.279  0.00  0.00    +0.000 A 
ATOM     25  C   UNL     1       3.046   5.494  19.290  0.00  0.00    +0.000 A 
BRANCH  17  27
ATOM     26  C   UNL     1       1.699   2.871  21.591  0.00  0.00    +0.000 C 
ATOM     27  C   UNL     1       2.053   4.307  21.255  0.00  0.00    +0.000 C 
ENDBRANCH  17  27
ENDBRANCH   1  23
TORSDOF 2
ENDMDL
MODEL 6
REMARK VINA RESULT:      -7.7      0.921      1.081
REMARK  Name = 
REMARK  5 active torsions:
REMARK  status: ('A' for Active; 'I' for Inactive)
REMARK    1  A    between atoms: C_1  and  C_2
REMARK    2  A    between atoms: C_2  and  N_3
REMARK    3  A    between atoms: C_9  and  C_10
REMARK    4  A    between atoms: C_17  and  C_18
REMARK    5  A    between atoms: N_24  and  C_25
REMARK                            x       y       z     vdW  Elec       q    Type
REMARK                         _______ _______ _______ _____ _____    ______ ____
ROOT
ATOM      1  C   UNL     1       2.456   7.848  18.913  0.00  0.00    +0.000 A 
ATOM      2  C   UNL     1       3.062   7.695  17.669  0.00  0.00    +0.000 A 
ATOM      3  C   UNL     1       3.627   6.479  17.330  0.00  0.00    +0.000 A 
ATOM      4  C   UNL     1       3.398   5.392  18.202  0.00  0.00    +0.000 A 
ATOM      5  C   UNL     1       3.287   5.533  19.555  0.00  0.00    +0.000 A 
ATOM      6  C   UNL     1       2.702   6.821  19.894  0.00  0.00    +0.000 A 
ATOM      7  C   UNL     1       3.045   4.211  20.181  0.00  0.00    +0.000 A 
ATOM      8  C   UNL     1       3.564   2.817  20.266  0.00  0.00    +0.000 A 
ATOM      9  C   UNL     1       3.890   1.882  19.082  0.00  0.00    +0.000 C 
ATOM     10  C   UNL     1       3.004   1.997  21.277  0.00  0.00    +0.000 A 
ATOM     11  C   UNL     1       1.813   2.411  21.846  0.00  0.00    +0.000 A 
ATOM     12  C   UNL     1       1.137   3.434  21.185  0.00  0.00    +0.000 A 
ATOM     13  C   UNL     1       1.771   4.017  20.025  0.00  0.00    +0.000 A 
ATOM     14  C   UNL     1       1.458   4.100  18.598  0.00  0.00    +0.000 A 
ATOM     15  N   UNL     1       2.501   4.461  17.754  0.00  0.00    +0.000 N 
ATOM     16  C   UNL     1       2.887   3.749  16.537  0.00  0.00    +0.000 C 
ENDROOT
BRANCH   1  23
ATOM     17  N   UNL     1      -0.823  10.488  21.606  0.00  0.00    +0.000 N 
ATOM     18  C   UNL     1      -1.495  11.660  21.386  0.00  0.00    +0.000 A 
ATOM     19  C   UNL     1      -1.200  12.080  20.108  0.00  0.00    +0.000 A 
ATOM     20  C   UNL     1      -0.304  11.135  19.535  0.00  0.00    +0.000 A 
ATOM     21  C   UNL     1       0.324  11.002  18.291  0.00  0.00    +0.000 A 
ATOM     22  C   UNL     1       1.205   9.916  18.090  0.00  0.00    +0.000 A 
ATOM     23  C   UNL     1       1.506   8.973  19.109  0.00  0.00    +0.000 A 
ATOM     24  C   UNL     1       0.858   9.123  20.331  0.00  0.00    +0.000 A 
ATOM     25  C   UNL     1      -0.045  10.179  20.515  0.00  0.00    +0.000 A 
BRANCH  17  27
ATOM     26  C   UNL     1       0.355   9.600  23.577  0.00  0.00    +0.000 C 
ATOM     27  C   UNL     1      -0.941   9.655  22.790  0.00  0.00    +0.000 C 
ENDBRANCH  17  27
ENDBRANCH   1  23
TORSDOF 2
ENDMDL
MODEL 7
REMARK VINA RESULT:      -7.5      1.951      8.634
REMARK  Name = 
REMARK  5 active torsions:
REMARK  status: ('A' for Active; 'I' for Inactive)
REMARK    1  A    between atoms: C_1  and  C_2
REMARK    2  A    between atoms: C_2  and  N_3
REMARK    3  A    between atoms: C_9  and  C_10
REMARK    4  A    between atoms: C_17  and  C_18
REMARK    5  A    between atoms: N_24  and  C_25
REMARK                            x       y       z     vdW  Elec       q    Type
REMARK                         _______ _______ _______ _____ _____    ______ ____
ROOT
ATOM      1  C   UNL     1       0.867   9.979  21.004  0.00  0.00    +0.000 A 
ATOM      2  C   UNL     1       0.006   9.624  22.039  0.00  0.00    +0.000 A 
ATOM      3  C   UNL     1      -0.772  10.594  22.643  0.00  0.00    +0.000 A 
ATOM      4  C   UNL     1      -0.785  11.877  22.050  0.00  0.00    +0.000 A 
ATOM      5  C   UNL     1       0.301  12.421  21.429  0.00  0.00    +0.000 A 
ATOM      6  C   UNL     1       1.115  11.386  20.809  0.00  0.00    +0.000 A 
ATOM      7  C   UNL     1      -0.038  13.768  20.910  0.00  0.00    +0.000 A 
ATOM      8  C   UNL     1      -0.606  15.089  21.299  0.00  0.00    +0.000 A 
ATOM      9  C   UNL     1      -1.946  15.339  22.022  0.00  0.00    +0.000 C 
ATOM     10  C   UNL     1      -0.460  16.139  20.359  0.00  0.00    +0.000 A 
ATOM     11  C   UNL     1      -0.145  15.790  19.058  0.00  0.00    +0.000 A 
ATOM     12  C   UNL     1      -0.277  14.442  18.732  0.00  0.00    +0.000 A 
ATOM     13  C   UNL     1      -0.649  13.530  19.790  0.00  0.00    +0.000 A 
ATOM     14  C   UNL     1      -1.793  12.658  20.059  0.00  0.00    +0.000 A 
ATOM     15  N   UNL     1      -1.924  12.191  21.361  0.00  0.00    +0.000 N 
ATOM     16  C   UNL     1      -3.147  12.256  22.161  0.00  0.00    +0.000 C 
ENDROOT
BRANCH   1  23
ATOM     17  N   UNL     1       2.269   5.290  19.992  0.00  0.00    +0.000 N 
ATOM     18  C   UNL     1       2.642   4.646  18.843  0.00  0.00    +0.000 A 
ATOM     19  C   UNL     1       2.681   5.580  17.831  0.00  0.00    +0.000 A 
ATOM     20  C   UNL     1       2.302   6.836  18.383  0.00  0.00    +0.000 A 
ATOM     21  C   UNL     1       2.174   8.135  17.878  0.00  0.00    +0.000 A 
ATOM     22  C   UNL     1       1.725   9.157  18.744  0.00  0.00    +0.000 A 
ATOM     23  C   UNL     1       1.369   8.914  20.098  0.00  0.00    +0.000 A 
ATOM     24  C   UNL     1       1.519   7.616  20.576  0.00  0.00    +0.000 A 
ATOM     25  C   UNL     1       2.001   6.613  19.725  0.00  0.00    +0.000 A 
BRANCH  17  27
ATOM     26  C   UNL     1       1.617   3.299  21.283  0.00  0.00    +0.000 C 
ATOM     27  C   UNL     1       2.210   4.694  21.315  0.00  0.00    +0.000 C 
ENDBRANCH  17  27
ENDBRANCH   1  23
TORSDOF 2
ENDMDL
MODEL 8
REMARK VINA RESULT:      -7.3      1.393      8.034
REMARK  Name = 
REMARK  5 active torsions:
REMARK  status: ('A' for Active; 'I' for Inactive)
REMARK    1  A    between atoms: C_1  and  C_2
REMARK    2  A    between atoms: C_2  and  N_3
REMARK    3  A    between atoms: C_9  and  C_10
REMARK    4  A    between atoms: C_17  and  C_18
REMARK    5  A    between atoms: N_24  and  C_25
REMARK                            x       y       z     vdW  Elec       q    Type
REMARK                         _______ _______ _______ _____ _____    ______ ____
ROOT
ATOM      1  C   UNL     1       1.848   7.566  20.312  0.00  0.00    +0.000 A 
ATOM      2  C   UNL     1       2.015   7.930  21.645  0.00  0.00    +0.000 A 
ATOM      3  C   UNL     1       1.599   9.179  22.070  0.00  0.00    +0.000 A 
ATOM      4  C   UNL     1       0.854   9.959  21.157  0.00  0.00    +0.000 A 
ATOM      5  C   UNL     1       1.065   9.932  19.810  0.00  0.00    +0.000 A 
ATOM      6  C   UNL     1       1.513   8.615  19.382  0.00  0.00    +0.000 A 
ATOM      7  C   UNL     1       0.121  10.855  19.133  0.00  0.00    +0.000 A 
ATOM      8  C   UNL     1      -0.382  12.257  19.131  0.00  0.00    +0.000 A 
ATOM      9  C   UNL     1      -0.921  13.045  20.343  0.00  0.00    +0.000 C 
ATOM     10  C   UNL     1      -1.180  12.637  18.023  0.00  0.00    +0.000 A 
ATOM     11  C   UNL     1      -1.716  11.626  17.247  0.00  0.00    +0.000 A 
ATOM     12  C   UNL     1      -1.657  10.341  17.782  0.00  0.00    +0.000 A 
ATOM     13  C   UNL     1      -0.979  10.172  19.047  0.00  0.00    +0.000 A 
ATOM     14  C   UNL     1      -1.373   9.750  20.392  0.00  0.00    +0.000 A 
ATOM     15  N   UNL     1      -0.486  10.045  21.419  0.00  0.00    +0.000 N 
ATOM     16  C   UNL     1      -0.841  10.698  22.679  0.00  0.00    +0.000 C 
ENDROOT
BRANCH   1  23
ATOM     17  N   UNL     1       3.582   3.686  17.683  0.00  0.00    +0.000 N 
ATOM     18  C   UNL     1       3.370   2.336  17.746  0.00  0.00    +0.000 A 
ATOM     19  C   UNL     1       2.412   2.106  18.709  0.00  0.00    +0.000 A 
ATOM     20  C   UNL     1       2.040   3.363  19.262  0.00  0.00    +0.000 A 
ATOM     21  C   UNL     1       1.126   3.778  20.237  0.00  0.00    +0.000 A 
ATOM     22  C   UNL     1       1.055   5.152  20.559  0.00  0.00    +0.000 A 
ATOM     23  C   UNL     1       1.896   6.125  19.955  0.00  0.00    +0.000 A 
ATOM     24  C   UNL     1       2.786   5.685  18.980  0.00  0.00    +0.000 A 
ATOM     25  C   UNL     1       2.827   4.328  18.637  0.00  0.00    +0.000 A 
BRANCH  17  27
ATOM     26  C   UNL     1       5.860   4.504  17.229  0.00  0.00    +0.000 C 
ATOM     27  C   UNL     1       4.437   4.364  16.723  0.00  0.00    +0.000 C 
ENDBRANCH  17  27
ENDBRANCH   1  23
TORSDOF 2
ENDMDL
MODEL 9
REMARK VINA RESULT:      -7.1      3.746     10.311
REMARK  Name = 
REMARK  5 active torsions:
REMARK  status: ('A' for Active; 'I' for Inactive)
REMARK    1  A    between atoms: C_1  and  C_2
REMARK    2  A    between atoms: C_2  and  N_3
REMARK    3  A    between atoms: C_9  and  C_10
REMARK    4  A    between atoms: C_17  and  C_18
REMARK    5  A    between atoms: N_24  and  C_25
REMARK                            x       y       z     vdW  Elec       q    Type
REMARK                         _______ _______ _______ _____ _____    ______ ____
ROOT
ATOM      1  C   UNL     1      -2.522  12.482  22.458  0.00  0.00    +0.000 A 
ATOM      2  C   UNL     1      -3.000  12.676  23.751  0.00  0.00    +0.000 A 
ATOM      3  C   UNL     1      -4.172  13.383  23.947  0.00  0.00    +0.000 A 
ATOM      4  C   UNL     1      -4.926  13.720  22.801  0.00  0.00    +0.000 A 
ATOM      5  C   UNL     1      -4.357  14.016  21.597  0.00  0.00    +0.000 A 
ATOM      6  C   UNL     1      -3.119  13.273  21.412  0.00  0.00    +0.000 A 
ATOM      7  C   UNL     1      -5.413  14.321  20.601  0.00  0.00    +0.000 A 
ATOM      8  C   UNL     1      -6.616  15.164  20.357  0.00  0.00    +0.000 A 
ATOM      9  C   UNL     1      -7.840  15.314  21.284  0.00  0.00    +0.000 C 
ATOM     10  C   UNL     1      -7.117  15.177  19.032  0.00  0.00    +0.000 A 
ATOM     11  C   UNL     1      -6.700  14.168  18.183  0.00  0.00    +0.000 A 
ATOM     12  C   UNL     1      -6.056  13.087  18.780  0.00  0.00    +0.000 A 
ATOM     13  C   UNL     1      -5.816  13.153  20.203  0.00  0.00    +0.000 A 
ATOM     14  C   UNL     1      -6.258  12.389  21.371  0.00  0.00    +0.000 A 
ATOM     15  N   UNL     1      -6.063  12.984  22.611  0.00  0.00    +0.000 N 
ATOM     16  C   UNL     1      -7.083  13.123  23.650  0.00  0.00    +0.000 C 
ENDROOT
BRANCH   1  23
ATOM     17  N   UNL     1       0.516   9.793  19.540  0.00  0.00    +0.000 N 
ATOM     18  C   UNL     1       1.424   8.799  19.788  0.00  0.00    +0.000 A 
ATOM     19  C   UNL     1       1.359   8.497  21.131  0.00  0.00    +0.000 A 
ATOM     20  C   UNL     1       0.386   9.350  21.723  0.00  0.00    +0.000 A 
ATOM     21  C   UNL     1      -0.132   9.506  23.014  0.00  0.00    +0.000 A 
ATOM     22  C   UNL     1      -1.094  10.515  23.240  0.00  0.00    +0.000 A 
ATOM     23  C   UNL     1      -1.534  11.399  22.219  0.00  0.00    +0.000 A 
ATOM     24  C   UNL     1      -1.012  11.212  20.942  0.00  0.00    +0.000 A 
ATOM     25  C   UNL     1      -0.086  10.185  20.713  0.00  0.00    +0.000 A 
BRANCH  17  27
ATOM     26  C   UNL     1      -1.188   9.893  17.767  0.00  0.00    +0.000 C 
ATOM     27  C   UNL     1       0.188  10.331  18.231  0.00  0.00    +0.000 C 
ENDBRANCH  17  27
ENDBRANCH   1  23
TORSDOF 2
ENDMDL
