MODEL 1
REMARK VINA RESULT:      -6.7      0.000      0.000
REMARK  Name = 
REMARK  4 active torsions:
REMARK  status: ('A' for Active; 'I' for Inactive)
REMARK    1  A    between atoms: C_1  and  C_2
REMARK    2  A    between atoms: C_8  and  O_9
REMARK    3  A    between atoms: C_13  and  C_14
REMARK    4  A    between atoms: C_14  and  C_16
REMARK                            x       y       z     vdW  Elec       q    Type
REMARK                         _______ _______ _______ _____ _____    ______ ____
ROOT
ATOM      1  C   UNL     1       1.660   8.991  17.940  0.00  0.00    +0.000 C 
ATOM      2  C   UNL     1       2.609   7.863  17.763  0.00  0.00    +0.000 A 
ATOM      3  O   UNL     1       3.336   7.952  16.622  0.00  0.00    +0.000 OA
ATOM      4  C   UNL     1       4.209   6.923  16.605  0.00  0.00    +0.000 A 
ATOM      5  C   UNL     1       5.126   6.730  15.574  0.00  0.00    +0.000 A 
ATOM      6  C   UNL     1       5.974   5.636  15.694  0.00  0.00    +0.000 A 
ATOM      7 BR   UNL     1       7.245   5.329  14.318  0.00  0.00    +0.000 Br
ATOM      8  C   UNL     1       5.891   4.784  16.795  0.00  0.00    +0.000 A 
ATOM      9  C   UNL     1       4.942   5.002  17.824  0.00  0.00    +0.000 A 
ATOM     10 BR   UNL     1       4.899   3.757  19.260  0.00  0.00    +0.000 Br
ATOM     11  C   UNL     1       4.063   6.119  17.732  0.00  0.00    +0.000 A 
ATOM     12  C   UNL     1       2.977   6.729  18.490  0.00  0.00    +0.000 A 
ENDROOT
BRANCH   8  13
ATOM     13  O   UNL     1       6.742   3.707  16.889  0.00  0.00    +0.000 OA
ATOM     14  H   UNL     1       6.510   3.202  17.689  0.00  0.00    +0.000 HD
ENDBRANCH   8  13
BRANCH  12  15
ATOM     15  C   UNL     1       2.429   6.316  19.782  0.00  0.00    +0.000 C 
ATOM     16  O   UNL     1       2.302   7.102  20.719  0.00  0.00    +0.000 OA
BRANCH  15  17
ATOM     17  C   UNL     1       1.939   4.935  20.017  0.00  0.00    +0.000 A 
ATOM     18  C   UNL     1       1.392   4.241  18.927  0.00  0.00    +0.000 A 
ATOM     19  C   UNL     1       0.952   2.922  19.079  0.00  0.00    +0.000 A 
ATOM     20  C   UNL     1       1.063   2.299  20.320  0.00  0.00    +0.000 A 
ATOM     21  C   UNL     1       1.573   2.996  21.415  0.00  0.00    +0.000 A 
ATOM     22  C   UNL     1       1.975   4.325  21.273  0.00  0.00    +0.000 A 
ENDBRANCH  15  17
ENDBRANCH  12  15
TORSDOF 3
ENDMDL
MODEL 2
REMARK VINA RESULT:      -6.7      2.629      5.836
REMARK  Name = 
REMARK  4 active torsions:
REMARK  status: ('A' for Active; 'I' for Inactive)
REMARK    1  A    between atoms: C_1  and  C_2
REMARK    2  A    between atoms: C_8  and  O_9
REMARK    3  A    between atoms: C_13  and  C_14
REMARK    4  A    between atoms: C_14  and  C_16
REMARK                            x       y       z     vdW  Elec       q    Type
REMARK                         _______ _______ _______ _____ _____    ______ ____
ROOT
ATOM      1  C   UNL     1       2.287   3.123  21.394  0.00  0.00    +0.000 C 
ATOM      2  C   UNL     1       2.266   4.403  20.641  0.00  0.00    +0.000 A 
ATOM      3  O   UNL     1       1.550   5.374  21.260  0.00  0.00    +0.000 OA
ATOM      4  C   UNL     1       1.664   6.503  20.528  0.00  0.00    +0.000 A 
ATOM      5  C   UNL     1       1.063   7.703  20.898  0.00  0.00    +0.000 A 
ATOM      6  C   UNL     1       1.274   8.789  20.057  0.00  0.00    +0.000 A 
ATOM      7 BR   UNL     1       0.481  10.450  20.517  0.00  0.00    +0.000 Br
ATOM      8  C   UNL     1       2.048   8.660  18.904  0.00  0.00    +0.000 A 
ATOM      9  C   UNL     1       2.640   7.423  18.550  0.00  0.00    +0.000 A 
ATOM     10 BR   UNL     1       3.647   7.357  16.939  0.00  0.00    +0.000 Br
ATOM     11  C   UNL     1       2.446   6.293  19.395  0.00  0.00    +0.000 A 
ATOM     12  C   UNL     1       2.824   4.886  19.456  0.00  0.00    +0.000 A 
ENDROOT
BRANCH   8  13
ATOM     13  O   UNL     1       2.242   9.751  18.088  0.00  0.00    +0.000 OA
ATOM     14  H   UNL     1       1.795  10.518  18.490  0.00  0.00    +0.000 HD
ENDBRANCH   8  13
BRANCH  12  15
ATOM     15  C   UNL     1       3.678   4.136  18.534  0.00  0.00    +0.000 C 
ATOM     16  O   UNL     1       3.252   3.195  17.868  0.00  0.00    +0.000 OA
BRANCH  15  17
ATOM     17  C   UNL     1       5.096   4.509  18.305  0.00  0.00    +0.000 A 
ATOM     18  C   UNL     1       5.768   5.186  19.335  0.00  0.00    +0.000 A 
ATOM     19  C   UNL     1       7.118   5.526  19.192  0.00  0.00    +0.000 A 
ATOM     20  C   UNL     1       7.793   5.185  18.022  0.00  0.00    +0.000 A 
ATOM     21  C   UNL     1       7.120   4.543  16.982  0.00  0.00    +0.000 A 
ATOM     22  C   UNL     1       5.764   4.240  17.109  0.00  0.00    +0.000 A 
ENDBRANCH  15  17
ENDBRANCH  12  15
TORSDOF 3
ENDMDL
MODEL 3
REMARK VINA RESULT:      -6.7      0.171      1.064
REMARK  Name = 
REMARK  4 active torsions:
REMARK  status: ('A' for Active; 'I' for Inactive)
REMARK    1  A    between atoms: C_1  and  C_2
REMARK    2  A    between atoms: C_8  and  O_9
REMARK    3  A    between atoms: C_13  and  C_14
REMARK    4  A    between atoms: C_14  and  C_16
REMARK                            x       y       z     vdW  Elec       q    Type
REMARK                         _______ _______ _______ _____ _____    ______ ____
ROOT
ATOM      1  C   UNL     1       1.667   9.049  17.876  0.00  0.00    +0.000 C 
ATOM      2  C   UNL     1       2.611   7.914  17.722  0.00  0.00    +0.000 A 
ATOM      3  O   UNL     1       3.344   7.980  16.582  0.00  0.00    +0.000 OA
ATOM      4  C   UNL     1       4.212   6.947  16.587  0.00  0.00    +0.000 A 
ATOM      5  C   UNL     1       5.132   6.732  15.564  0.00  0.00    +0.000 A 
ATOM      6  C   UNL     1       5.974   5.636  15.705  0.00  0.00    +0.000 A 
ATOM      7 BR   UNL     1       7.250   5.301  14.341  0.00  0.00    +0.000 Br
ATOM      8  C   UNL     1       5.882   4.803  16.820  0.00  0.00    +0.000 A 
ATOM      9  C   UNL     1       4.930   5.042  17.841  0.00  0.00    +0.000 A 
ATOM     10 BR   UNL     1       4.873   3.822  19.297  0.00  0.00    +0.000 Br
ATOM     11  C   UNL     1       4.056   6.162  17.727  0.00  0.00    +0.000 A 
ATOM     12  C   UNL     1       2.970   6.791  18.469  0.00  0.00    +0.000 A 
ENDROOT
BRANCH   8  13
ATOM     13  O   UNL     1       6.727   3.724  16.936  0.00  0.00    +0.000 OA
ATOM     14  H   UNL     1       6.232   2.919  16.695  0.00  0.00    +0.000 HD
ENDBRANCH   8  13
BRANCH  12  15
ATOM     15  C   UNL     1       2.414   6.402  19.765  0.00  0.00    +0.000 C 
ATOM     16  O   UNL     1       2.239   7.214  20.671  0.00  0.00    +0.000 OA
BRANCH  15  17
ATOM     17  C   UNL     1       1.973   5.011  20.041  0.00  0.00    +0.000 A 
ATOM     18  C   UNL     1       2.224   4.487  21.318  0.00  0.00    +0.000 A 
ATOM     19  C   UNL     1       1.795   3.197  21.647  0.00  0.00    +0.000 A 
ATOM     20  C   UNL     1       1.113   2.436  20.700  0.00  0.00    +0.000 A 
ATOM     21  C   UNL     1       0.892   2.940  19.419  0.00  0.00    +0.000 A 
ATOM     22  C   UNL     1       1.355   4.211  19.077  0.00  0.00    +0.000 A 
ENDBRANCH  15  17
ENDBRANCH  12  15
TORSDOF 3
ENDMDL
MODEL 4
REMARK VINA RESULT:      -6.7      2.612      5.850
REMARK  Name = 
REMARK  4 active torsions:
REMARK  status: ('A' for Active; 'I' for Inactive)
REMARK    1  A    between atoms: C_1  and  C_2
REMARK    2  A    between atoms: C_8  and  O_9
REMARK    3  A    between atoms: C_13  and  C_14
REMARK    4  A    between atoms: C_14  and  C_16
REMARK                            x       y       z     vdW  Elec       q    Type
REMARK                         _______ _______ _______ _____ _____    ______ ____
ROOT
ATOM      1  C   UNL     1       2.436   2.686  21.118  0.00  0.00    +0.000 C 
ATOM      2  C   UNL     1       2.358   4.030  20.491  0.00  0.00    +0.000 A 
ATOM      3  O   UNL     1       1.638   4.918  21.221  0.00  0.00    +0.000 OA
ATOM      4  C   UNL     1       1.699   6.114  20.597  0.00  0.00    +0.000 A 
ATOM      5  C   UNL     1       1.080   7.256  21.098  0.00  0.00    +0.000 A 
ATOM      6  C   UNL     1       1.236   8.422  20.358  0.00  0.00    +0.000 A 
ATOM      7 BR   UNL     1       0.416  10.009  20.997  0.00  0.00    +0.000 Br
ATOM      8  C   UNL     1       1.974   8.424  19.174  0.00  0.00    +0.000 A 
ATOM      9  C   UNL     1       2.586   7.244  18.686  0.00  0.00    +0.000 A 
ATOM     10 BR   UNL     1       3.540   7.359  17.046  0.00  0.00    +0.000 Br
ATOM     11  C   UNL     1       2.448   6.034  19.426  0.00  0.00    +0.000 A 
ATOM     12  C   UNL     1       2.863   4.639  19.341  0.00  0.00    +0.000 A 
ENDROOT
BRANCH   8  13
ATOM     13  O   UNL     1       2.113   9.592  18.460  0.00  0.00    +0.000 OA
ATOM     14  H   UNL     1       1.331   9.697  17.889  0.00  0.00    +0.000 HD
ENDBRANCH   8  13
BRANCH  12  15
ATOM     15  C   UNL     1       3.705   4.004  18.326  0.00  0.00    +0.000 C 
ATOM     16  O   UNL     1       3.275   3.133  17.572  0.00  0.00    +0.000 OA
BRANCH  15  17
ATOM     17  C   UNL     1       5.114   4.418  18.109  0.00  0.00    +0.000 A 
ATOM     18  C   UNL     1       5.683   4.166  16.852  0.00  0.00    +0.000 A 
ATOM     19  C   UNL     1       6.993   4.572  16.577  0.00  0.00    +0.000 A 
ATOM     20  C   UNL     1       7.729   5.232  17.558  0.00  0.00    +0.000 A 
ATOM     21  C   UNL     1       7.180   5.454  18.820  0.00  0.00    +0.000 A 
ATOM     22  C   UNL     1       5.887   5.014  19.108  0.00  0.00    +0.000 A 
ENDBRANCH  15  17
ENDBRANCH  12  15
TORSDOF 3
ENDMDL
MODEL 5
REMARK VINA RESULT:      -6.4      3.046      6.276
REMARK  Name = 
REMARK  4 active torsions:
REMARK  status: ('A' for Active; 'I' for Inactive)
REMARK    1  A    between atoms: C_1  and  C_2
REMARK    2  A    between atoms: C_8  and  O_9
REMARK    3  A    between atoms: C_13  and  C_14
REMARK    4  A    between atoms: C_14  and  C_16
REMARK                            x       y       z     vdW  Elec       q    Type
REMARK                         _______ _______ _______ _____ _____    ______ ____
ROOT
ATOM      1  C   UNL     1       2.883   3.316  20.710  0.00  0.00    +0.000 C 
ATOM      2  C   UNL     1       2.529   4.710  20.339  0.00  0.00    +0.000 A 
ATOM      3  O   UNL     1       1.696   5.304  21.229  0.00  0.00    +0.000 OA
ATOM      4  C   UNL     1       1.506   6.580  20.830  0.00  0.00    +0.000 A 
ATOM      5  C   UNL     1       0.714   7.480  21.540  0.00  0.00    +0.000 A 
ATOM      6  C   UNL     1       0.617   8.764  21.021  0.00  0.00    +0.000 A 
ATOM      7 BR   UNL     1      -0.446  10.032  21.950  0.00  0.00    +0.000 Br
ATOM      8  C   UNL     1       1.282   9.113  19.845  0.00  0.00    +0.000 A 
ATOM      9  C   UNL     1       2.074   8.173  19.142  0.00  0.00    +0.000 A 
ATOM     10 BR   UNL     1       2.908   8.751  17.534  0.00  0.00    +0.000 Br
ATOM     11  C   UNL     1       2.198   6.849  19.652  0.00  0.00    +0.000 A 
ATOM     12  C   UNL     1       2.856   5.594  19.309  0.00  0.00    +0.000 A 
ENDROOT
BRANCH   8  13
ATOM     13  O   UNL     1       1.169  10.393  19.352  0.00  0.00    +0.000 OA
ATOM     14  H   UNL     1       1.008  10.996  20.100  0.00  0.00    +0.000 HD
ENDBRANCH   8  13
BRANCH  12  15
ATOM     15  C   UNL     1       3.748   5.317  18.183  0.00  0.00    +0.000 C 
ATOM     16  O   UNL     1       3.347   4.794  17.145  0.00  0.00    +0.000 OA
BRANCH  15  17
ATOM     17  C   UNL     1       5.180   5.706  18.206  0.00  0.00    +0.000 A 
ATOM     18  C   UNL     1       5.652   6.526  17.170  0.00  0.00    +0.000 A 
ATOM     19  C   UNL     1       6.982   6.959  17.163  0.00  0.00    +0.000 A 
ATOM     20  C   UNL     1       7.836   6.573  18.193  0.00  0.00    +0.000 A 
ATOM     21  C   UNL     1       7.382   5.730  19.207  0.00  0.00    +0.000 A 
ATOM     22  C   UNL     1       6.066   5.266  19.192  0.00  0.00    +0.000 A 
ENDBRANCH  15  17
ENDBRANCH  12  15
TORSDOF 3
ENDMDL
MODEL 6
REMARK VINA RESULT:      -6.3      3.043      6.314
REMARK  Name = 
REMARK  4 active torsions:
REMARK  status: ('A' for Active; 'I' for Inactive)
REMARK    1  A    between atoms: C_1  and  C_2
REMARK    2  A    between atoms: C_8  and  O_9
REMARK    3  A    between atoms: C_13  and  C_14
REMARK    4  A    between atoms: C_14  and  C_16
REMARK                            x       y       z     vdW  Elec       q    Type
REMARK                         _______ _______ _______ _____ _____    ______ ____
ROOT
ATOM      1  C   UNL     1       2.704   3.399  20.827  0.00  0.00    +0.000 C 
ATOM      2  C   UNL     1       2.392   4.790  20.411  0.00  0.00    +0.000 A 
ATOM      3  O   UNL     1       1.588   5.442  21.288  0.00  0.00    +0.000 OA
ATOM      4  C   UNL     1       1.435   6.708  20.847  0.00  0.00    +0.000 A 
ATOM      5  C   UNL     1       0.681   7.657  21.533  0.00  0.00    +0.000 A 
ATOM      6  C   UNL     1       0.620   8.926  20.971  0.00  0.00    +0.000 A 
ATOM      7 BR   UNL     1      -0.392  10.259  21.866  0.00  0.00    +0.000 Br
ATOM      8  C   UNL     1       1.283   9.212  19.777  0.00  0.00    +0.000 A 
ATOM      9  C   UNL     1       2.037   8.223  19.099  0.00  0.00    +0.000 A 
ATOM     10 BR   UNL     1       2.872   8.718  17.465  0.00  0.00    +0.000 Br
ATOM     11  C   UNL     1       2.123   6.914  19.654  0.00  0.00    +0.000 A 
ATOM     12  C   UNL     1       2.736   5.627  19.348  0.00  0.00    +0.000 A 
ENDROOT
BRANCH   8  13
ATOM     13  O   UNL     1       1.207  10.477  19.241  0.00  0.00    +0.000 OA
ATOM     14  H   UNL     1       2.085  10.893  19.310  0.00  0.00    +0.000 HD
ENDBRANCH   8  13
BRANCH  12  15
ATOM     15  C   UNL     1       3.606   5.282  18.223  0.00  0.00    +0.000 C 
ATOM     16  O   UNL     1       3.189   4.684  17.234  0.00  0.00    +0.000 OA
BRANCH  15  17
ATOM     17  C   UNL     1       5.034   5.688  18.187  0.00  0.00    +0.000 A 
ATOM     18  C   UNL     1       5.850   5.306  19.263  0.00  0.00    +0.000 A 
ATOM     19  C   UNL     1       7.211   5.625  19.263  0.00  0.00    +0.000 A 
ATOM     20  C   UNL     1       7.755   6.322  18.187  0.00  0.00    +0.000 A 
ATOM     21  C   UNL     1       6.941   6.735  17.132  0.00  0.00    +0.000 A 
ATOM     22  C   UNL     1       5.575   6.452  17.150  0.00  0.00    +0.000 A 
ENDBRANCH  15  17
ENDBRANCH  12  15
TORSDOF 3
ENDMDL
MODEL 7
REMARK VINA RESULT:      -6.3      2.297      3.801
REMARK  Name = 
REMARK  4 active torsions:
REMARK  status: ('A' for Active; 'I' for Inactive)
REMARK    1  A    between atoms: C_1  and  C_2
REMARK    2  A    between atoms: C_8  and  O_9
REMARK    3  A    between atoms: C_13  and  C_14
REMARK    4  A    between atoms: C_14  and  C_16
REMARK                            x       y       z     vdW  Elec       q    Type
REMARK                         _______ _______ _______ _____ _____    ______ ____
ROOT
ATOM      1  C   UNL     1       1.625   3.498  17.954  0.00  0.00    +0.000 C 
ATOM      2  C   UNL     1       2.923   3.957  17.398  0.00  0.00    +0.000 A 
ATOM      3  O   UNL     1       3.246   3.351  16.229  0.00  0.00    +0.000 OA
ATOM      4  C   UNL     1       4.398   3.896  15.784  0.00  0.00    +0.000 A 
ATOM      5  C   UNL     1       5.000   3.511  14.588  0.00  0.00    +0.000 A 
ATOM      6  C   UNL     1       6.177   4.165  14.246  0.00  0.00    +0.000 A 
ATOM      7 BR   UNL     1       7.036   3.683  12.624  0.00  0.00    +0.000 Br
ATOM      8  C   UNL     1       6.714   5.150  15.075  0.00  0.00    +0.000 A 
ATOM      9  C   UNL     1       6.083   5.514  16.290  0.00  0.00    +0.000 A 
ATOM     10 BR   UNL     1       6.922   6.846  17.355  0.00  0.00    +0.000 Br
ATOM     11  C   UNL     1       4.871   4.865  16.665  0.00  0.00    +0.000 A 
ATOM     12  C   UNL     1       3.903   4.885  17.755  0.00  0.00    +0.000 A 
ENDROOT
BRANCH   8  13
ATOM     13  O   UNL     1       7.881   5.783  14.714  0.00  0.00    +0.000 OA
ATOM     14  H   UNL     1       7.663   6.486  14.075  0.00  0.00    +0.000 HD
ENDBRANCH   8  13
BRANCH  12  15
ATOM     15  C   UNL     1       3.888   5.746  18.937  0.00  0.00    +0.000 C 
ATOM     16  O   UNL     1       4.634   5.555  19.895  0.00  0.00    +0.000 OA
BRANCH  15  17
ATOM     17  C   UNL     1       3.009   6.940  19.022  0.00  0.00    +0.000 A 
ATOM     18  C   UNL     1       2.981   7.810  17.922  0.00  0.00    +0.000 A 
ATOM     19  C   UNL     1       2.140   8.929  17.930  0.00  0.00    +0.000 A 
ATOM     20  C   UNL     1       1.328   9.172  19.035  0.00  0.00    +0.000 A 
ATOM     21  C   UNL     1       1.379   8.329  20.145  0.00  0.00    +0.000 A 
ATOM     22  C   UNL     1       2.247   7.236  20.154  0.00  0.00    +0.000 A 
ENDBRANCH  15  17
ENDBRANCH  12  15
TORSDOF 3
ENDMDL
MODEL 8
REMARK VINA RESULT:      -6.2      2.265      3.889
REMARK  Name = 
REMARK  4 active torsions:
REMARK  status: ('A' for Active; 'I' for Inactive)
REMARK    1  A    between atoms: C_1  and  C_2
REMARK    2  A    between atoms: C_8  and  O_9
REMARK    3  A    between atoms: C_13  and  C_14
REMARK    4  A    between atoms: C_14  and  C_16
REMARK                            x       y       z     vdW  Elec       q    Type
REMARK                         _______ _______ _______ _____ _____    ______ ____
ROOT
ATOM      1  C   UNL     1       1.576   3.501  18.020  0.00  0.00    +0.000 C 
ATOM      2  C   UNL     1       2.873   3.962  17.463  0.00  0.00    +0.000 A 
ATOM      3  O   UNL     1       3.206   3.343  16.303  0.00  0.00    +0.000 OA
ATOM      4  C   UNL     1       4.355   3.892  15.855  0.00  0.00    +0.000 A 
ATOM      5  C   UNL     1       4.964   3.496  14.667  0.00  0.00    +0.000 A 
ATOM      6  C   UNL     1       6.137   4.155  14.322  0.00  0.00    +0.000 A 
ATOM      7 BR   UNL     1       7.007   3.658  12.710  0.00  0.00    +0.000 Br
ATOM      8  C   UNL     1       6.663   5.156  15.139  0.00  0.00    +0.000 A 
ATOM      9  C   UNL     1       6.024   5.531  16.346  0.00  0.00    +0.000 A 
ATOM     10 BR   UNL     1       6.848   6.884  17.396  0.00  0.00    +0.000 Br
ATOM     11  C   UNL     1       4.816   4.876  16.725  0.00  0.00    +0.000 A 
ATOM     12  C   UNL     1       3.844   4.903  17.811  0.00  0.00    +0.000 A 
ENDROOT
BRANCH   8  13
ATOM     13  O   UNL     1       7.826   5.793  14.774  0.00  0.00    +0.000 OA
ATOM     14  H   UNL     1       7.677   6.755  14.822  0.00  0.00    +0.000 HD
ENDBRANCH   8  13
BRANCH  12  15
ATOM     15  C   UNL     1       3.816   5.781  18.982  0.00  0.00    +0.000 C 
ATOM     16  O   UNL     1       4.560   5.608  19.945  0.00  0.00    +0.000 OA
BRANCH  15  17
ATOM     17  C   UNL     1       2.928   6.968  19.047  0.00  0.00    +0.000 A 
ATOM     18  C   UNL     1       2.193   7.170  20.225  0.00  0.00    +0.000 A 
ATOM     19  C   UNL     1       1.371   8.294  20.359  0.00  0.00    +0.000 A 
ATOM     20  C   UNL     1       1.289   9.215  19.317  0.00  0.00    +0.000 A 
ATOM     21  C   UNL     1       1.990   9.000  18.131  0.00  0.00    +0.000 A 
ATOM     22  C   UNL     1       2.779   7.859  17.982  0.00  0.00    +0.000 A 
ENDBRANCH  15  17
ENDBRANCH  12  15
TORSDOF 3
ENDMDL
MODEL 9
REMARK VINA RESULT:      -6.2      6.226      8.696
REMARK  Name = 
REMARK  4 active torsions:
REMARK  status: ('A' for Active; 'I' for Inactive)
REMARK    1  A    between atoms: C_1  and  C_2
REMARK    2  A    between atoms: C_8  and  O_9
REMARK    3  A    between atoms: C_13  and  C_14
REMARK    4  A    between atoms: C_14  and  C_16
REMARK                            x       y       z     vdW  Elec       q    Type
REMARK                         _______ _______ _______ _____ _____    ______ ____
ROOT
ATOM      1  C   UNL     1       1.773   9.173  17.818  0.00  0.00    +0.000 C 
ATOM      2  C   UNL     1       1.586  10.585  18.236  0.00  0.00    +0.000 A 
ATOM      3  O   UNL     1       2.662  11.367  17.973  0.00  0.00    +0.000 OA
ATOM      4  C   UNL     1       2.352  12.633  18.324  0.00  0.00    +0.000 A 
ATOM      5  C   UNL     1       3.236  13.697  18.162  0.00  0.00    +0.000 A 
ATOM      6  C   UNL     1       2.779  14.949  18.554  0.00  0.00    +0.000 A 
ATOM      7 BR   UNL     1       3.942  16.435  18.352  0.00  0.00    +0.000 Br
ATOM      8  C   UNL     1       1.499  15.109  19.086  0.00  0.00    +0.000 A 
ATOM      9  C   UNL     1       0.626  14.005  19.245  0.00  0.00    +0.000 A 
ATOM     10 BR   UNL     1      -1.083  14.337  20.010  0.00  0.00    +0.000 Br
ATOM     11  C   UNL     1       1.064  12.709  18.847  0.00  0.00    +0.000 A 
ATOM     12  C   UNL     1       0.564  11.340  18.815  0.00  0.00    +0.000 A 
ENDROOT
BRANCH   8  13
ATOM     13  O   UNL     1       1.071  16.359  19.467  0.00  0.00    +0.000 OA
ATOM     14  H   UNL     1       1.585  17.023  18.973  0.00  0.00    +0.000 HD
ENDBRANCH   8  13
BRANCH  12  15
ATOM     15  C   UNL     1      -0.755  10.847  19.214  0.00  0.00    +0.000 C 
ATOM     16  O   UNL     1      -1.010  10.527  20.373  0.00  0.00    +0.000 OA
BRANCH  15  17
ATOM     17  C   UNL     1      -1.881  10.762  18.249  0.00  0.00    +0.000 A 
ATOM     18  C   UNL     1      -3.015  11.550  18.498  0.00  0.00    +0.000 A 
ATOM     19  C   UNL     1      -4.089  11.541  17.602  0.00  0.00    +0.000 A 
ATOM     20  C   UNL     1      -4.025  10.748  16.459  0.00  0.00    +0.000 A 
ATOM     21  C   UNL     1      -2.915   9.937  16.225  0.00  0.00    +0.000 A 
ATOM     22  C   UNL     1      -1.861   9.915  17.139  0.00  0.00    +0.000 A 
ENDBRANCH  15  17
ENDBRANCH  12  15
TORSDOF 3
ENDMDL
