MODEL 1
REMARK VINA RESULT:      -7.2      0.000      0.000
REMARK  Name = 
REMARK  12 active torsions:
REMARK  status: ('A' for Active; 'I' for Inactive)
REMARK    1  A    between atoms: C_1  and  O_2
REMARK    2  A    between atoms: O_2  and  C_3
REMARK    3  A    between atoms: C_5  and  C_6
REMARK    4  A    between atoms: C_6  and  C_7
REMARK    5  A    between atoms: C_13  and  N_14
REMARK    6  A    between atoms: C_16  and  O_17
REMARK    7  A    between atoms: O_17  and  C_18
REMARK    8  A    between atoms: C_18  and  C_19
REMARK    9  A    between atoms: C_19  and  C_20
REMARK   10  A    between atoms: C_20  and  C_21
REMARK   11  A    between atoms: C_21  and  C_22
REMARK   12  A    between atoms: C_22  and  O_24
REMARK                            x       y       z     vdW  Elec       q    Type
REMARK                         _______ _______ _______ _____ _____    ______ ____
ROOT
ATOM      1  C   UNL     1       2.228   4.035  18.156  0.00  0.00    +0.000 A 
ATOM      2  C   UNL     1       1.859   5.381  18.043  0.00  0.00    +0.000 A 
ATOM      3  C   UNL     1       2.792   6.395  18.255  0.00  0.00    +0.000 A 
ATOM      4  C   UNL     1       4.085   6.051  18.652  0.00  0.00    +0.000 A 
ATOM      5  C   UNL     1       4.456   4.721  18.879  0.00  0.00    +0.000 A 
ATOM      6  C   UNL     1       3.529   3.706  18.590  0.00  0.00    +0.000 A 
ATOM      7 BR   UNL     1       4.042   1.875  18.757  0.00  0.00    +0.000 Br
ENDROOT
BRANCH   1   9
ATOM      8  C   UNL     1       0.517   2.612  18.970  0.00  0.00    +0.000 C 
ATOM      9  O   UNL     1       1.350   3.013  17.883  0.00  0.00    +0.000 OA
ENDBRANCH   1   9
BRANCH   3  10
ATOM     10  C   UNL     1       2.449   7.842  18.017  0.00  0.00    +0.000 C 
BRANCH  10  11
ATOM     11  C   UNL     1       1.714   8.474  19.160  0.00  0.00    +0.000 A 
ATOM     12  C   UNL     1       1.761   7.915  20.420  0.00  0.00    +0.000 A 
ATOM     13  N   UNL     1       1.142   8.428  21.496  0.00  0.00    +0.000 NA
ATOM     14  C   UNL     1       0.418   9.525  21.285  0.00  0.00    +0.000 A 
ATOM     15  N   UNL     1      -0.171  10.113  22.387  0.00  0.00    +0.000 N 
ATOM     16  N   UNL     1       0.281  10.138  20.106  0.00  0.00    +0.000 NA
ATOM     17  C   UNL     1       0.916   9.599  19.056  0.00  0.00    +0.000 A 
ATOM     18  H   UNL     1       0.326   9.828  23.220  0.00  0.00    +0.000 HD
ATOM     19  H   UNL     1      -0.275  11.104  22.226  0.00  0.00    +0.000 HD
BRANCH  17  20
ATOM     20  N   UNL     1       0.688  10.238  17.837  0.00  0.00    +0.000 N 
ATOM     21  H   UNL     1       1.333  11.025  17.790  0.00  0.00    +0.000 HD
ATOM     22  H   UNL     1       0.802   9.620  17.044  0.00  0.00    +0.000 HD
ENDBRANCH  17  20
ENDBRANCH  10  11
ENDBRANCH   3  10
BRANCH   5  23
ATOM     23  O   UNL     1       5.701   4.383  19.367  0.00  0.00    +0.000 OA
BRANCH  23  24
ATOM     24  C   UNL     1       6.737   5.314  19.032  0.00  0.00    +0.000 C 
BRANCH  24  25
ATOM     25  C   UNL     1       7.507   4.869  17.799  0.00  0.00    +0.000 C 
BRANCH  25  26
ATOM     26  C   UNL     1       7.228   5.772  16.594  0.00  0.00    +0.000 C 
BRANCH  26  27
ATOM     27  C   UNL     1       5.984   5.326  15.828  0.00  0.00    +0.000 C 
BRANCH  27  28
ATOM     28  C   UNL     1       6.220   4.074  15.014  0.00  0.00    +0.000 C 
ATOM     29  O   UNL     1       6.622   4.051  13.857  0.00  0.00    +0.000 OA
BRANCH  28  30
ATOM     30  O   UNL     1       5.916   2.944  15.692  0.00  0.00    +0.000 OA
ATOM     31  H   UNL     1       6.180   2.123  15.236  0.00  0.00    +0.000 HD
ENDBRANCH  28  30
ENDBRANCH  27  28
ENDBRANCH  26  27
ENDBRANCH  25  26
ENDBRANCH  24  25
ENDBRANCH  23  24
ENDBRANCH   5  23
TORSDOF 11
ENDMDL
MODEL 2
REMARK VINA RESULT:      -7.0      4.640      7.682
REMARK  Name = 
REMARK  12 active torsions:
REMARK  status: ('A' for Active; 'I' for Inactive)
REMARK    1  A    between atoms: C_1  and  O_2
REMARK    2  A    between atoms: O_2  and  C_3
REMARK    3  A    between atoms: C_5  and  C_6
REMARK    4  A    between atoms: C_6  and  C_7
REMARK    5  A    between atoms: C_13  and  N_14
REMARK    6  A    between atoms: C_16  and  O_17
REMARK    7  A    between atoms: O_17  and  C_18
REMARK    8  A    between atoms: C_18  and  C_19
REMARK    9  A    between atoms: C_19  and  C_20
REMARK   10  A    between atoms: C_20  and  C_21
REMARK   11  A    between atoms: C_21  and  C_22
REMARK   12  A    between atoms: C_22  and  O_24
REMARK                            x       y       z     vdW  Elec       q    Type
REMARK                         _______ _______ _______ _____ _____    ______ ____
ROOT
ATOM      1  C   UNL     1       3.731   3.275  19.712  0.00  0.00    +0.000 A 
ATOM      2  C   UNL     1       4.749   3.970  19.048  0.00  0.00    +0.000 A 
ATOM      3  C   UNL     1       4.730   5.362  18.974  0.00  0.00    +0.000 A 
ATOM      4  C   UNL     1       3.643   6.052  19.513  0.00  0.00    +0.000 A 
ATOM      5  C   UNL     1       2.557   5.382  20.088  0.00  0.00    +0.000 A 
ATOM      6  C   UNL     1       2.624   3.984  20.222  0.00  0.00    +0.000 A 
ATOM      7 BR   UNL     1       1.226   3.048  21.122  0.00  0.00    +0.000 Br
ENDROOT
BRANCH   1   9
ATOM      8  C   UNL     1       3.627   1.155  18.658  0.00  0.00    +0.000 C 
ATOM      9  O   UNL     1       3.760   1.909  19.863  0.00  0.00    +0.000 OA
ENDBRANCH   1   9
BRANCH   3  10
ATOM     10  C   UNL     1       5.876   6.135  18.375  0.00  0.00    +0.000 C 
BRANCH  10  11
ATOM     11  C   UNL     1       6.243   5.678  16.996  0.00  0.00    +0.000 A 
ATOM     12  C   UNL     1       5.491   6.065  15.905  0.00  0.00    +0.000 A 
ATOM     13  N   UNL     1       5.763   5.709  14.638  0.00  0.00    +0.000 NA
ATOM     14  C   UNL     1       6.809   4.902  14.470  0.00  0.00    +0.000 A 
ATOM     15  N   UNL     1       7.152   4.578  13.172  0.00  0.00    +0.000 N 
ATOM     16  N   UNL     1       7.590   4.446  15.452  0.00  0.00    +0.000 NA
ATOM     17  C   UNL     1       7.291   4.825  16.702  0.00  0.00    +0.000 A 
ATOM     18  H   UNL     1       6.781   5.280  12.546  0.00  0.00    +0.000 HD
ATOM     19  H   UNL     1       8.143   4.389  13.121  0.00  0.00    +0.000 HD
BRANCH  17  20
ATOM     20  N   UNL     1       8.097   4.270  17.696  0.00  0.00    +0.000 N 
ATOM     21  H   UNL     1       8.574   3.472  17.279  0.00  0.00    +0.000 HD
ATOM     22  H   UNL     1       8.756   4.934  18.082  0.00  0.00    +0.000 HD
ENDBRANCH  17  20
ENDBRANCH  10  11
ENDBRANCH   3  10
BRANCH   5  23
ATOM     23  O   UNL     1       1.436   6.052  20.531  0.00  0.00    +0.000 OA
BRANCH  23  24
ATOM     24  C   UNL     1       1.701   7.357  21.060  0.00  0.00    +0.000 C 
BRANCH  24  25
ATOM     25  C   UNL     1       1.297   8.448  20.080  0.00  0.00    +0.000 C 
BRANCH  25  26
ATOM     26  C   UNL     1       0.266   9.405  20.684  0.00  0.00    +0.000 C 
BRANCH  26  27
ATOM     27  C   UNL     1      -0.413   8.805  21.914  0.00  0.00    +0.000 C 
BRANCH  27  28
ATOM     28  C   UNL     1      -0.304   9.696  23.130  0.00  0.00    +0.000 C 
ATOM     29  O   UNL     1       0.573   9.622  23.982  0.00  0.00    +0.000 OA
BRANCH  28  30
ATOM     30  O   UNL     1      -1.310  10.597  23.210  0.00  0.00    +0.000 OA
ATOM     31  H   UNL     1      -2.173  10.257  22.908  0.00  0.00    +0.000 HD
ENDBRANCH  28  30
ENDBRANCH  27  28
ENDBRANCH  26  27
ENDBRANCH  25  26
ENDBRANCH  24  25
ENDBRANCH  23  24
ENDBRANCH   5  23
TORSDOF 11
ENDMDL
MODEL 3
REMARK VINA RESULT:      -7.0      1.236      2.408
REMARK  Name = 
REMARK  12 active torsions:
REMARK  status: ('A' for Active; 'I' for Inactive)
REMARK    1  A    between atoms: C_1  and  O_2
REMARK    2  A    between atoms: O_2  and  C_3
REMARK    3  A    between atoms: C_5  and  C_6
REMARK    4  A    between atoms: C_6  and  C_7
REMARK    5  A    between atoms: C_13  and  N_14
REMARK    6  A    between atoms: C_16  and  O_17
REMARK    7  A    between atoms: O_17  and  C_18
REMARK    8  A    between atoms: C_18  and  C_19
REMARK    9  A    between atoms: C_19  and  C_20
REMARK   10  A    between atoms: C_20  and  C_21
REMARK   11  A    between atoms: C_21  and  C_22
REMARK   12  A    between atoms: C_22  and  O_24
REMARK                            x       y       z     vdW  Elec       q    Type
REMARK                         _______ _______ _______ _____ _____    ______ ____
ROOT
ATOM      1  C   UNL     1       2.227   4.457  19.041  0.00  0.00    +0.000 A 
ATOM      2  C   UNL     1       2.084   5.849  19.105  0.00  0.00    +0.000 A 
ATOM      3  C   UNL     1       2.748   6.675  18.200  0.00  0.00    +0.000 A 
ATOM      4  C   UNL     1       3.615   6.099  17.270  0.00  0.00    +0.000 A 
ATOM      5  C   UNL     1       3.863   4.721  17.250  0.00  0.00    +0.000 A 
ATOM      6  C   UNL     1       3.132   3.894  18.119  0.00  0.00    +0.000 A 
ATOM      7 BR   UNL     1       3.343   1.999  18.028  0.00  0.00    +0.000 Br
ENDROOT
BRANCH   1   9
ATOM      8  C   UNL     1       1.813   3.753  21.266  0.00  0.00    +0.000 C 
ATOM      9  O   UNL     1       1.530   3.615  19.874  0.00  0.00    +0.000 OA
ENDBRANCH   1   9
BRANCH   3  10
ATOM     10  C   UNL     1       2.511   8.162  18.170  0.00  0.00    +0.000 C 
BRANCH  10  11
ATOM     11  C   UNL     1       1.640   8.646  19.290  0.00  0.00    +0.000 A 
ATOM     12  C   UNL     1       1.798   8.149  20.567  0.00  0.00    +0.000 A 
ATOM     13  N   UNL     1       1.067   8.541  21.624  0.00  0.00    +0.000 NA
ATOM     14  C   UNL     1       0.117   9.441  21.376  0.00  0.00    +0.000 A 
ATOM     15  N   UNL     1      -0.601   9.912  22.456  0.00  0.00    +0.000 N 
ATOM     16  N   UNL     1      -0.141   9.971  20.178  0.00  0.00    +0.000 NA
ATOM     17  C   UNL     1       0.611   9.559  19.148  0.00  0.00    +0.000 A 
ATOM     18  H   UNL     1      -0.062   9.771  23.300  0.00  0.00    +0.000 HD
ATOM     19  H   UNL     1      -0.924  10.850  22.265  0.00  0.00    +0.000 HD
BRANCH  17  20
ATOM     20  N   UNL     1       0.259  10.094  17.909  0.00  0.00    +0.000 N 
ATOM     21  H   UNL     1      -0.550   9.570  17.579  0.00  0.00    +0.000 HD
ATOM     22  H   UNL     1       0.063  11.086  17.952  0.00  0.00    +0.000 HD
ENDBRANCH  17  20
ENDBRANCH  10  11
ENDBRANCH   3  10
BRANCH   5  23
ATOM     23  O   UNL     1       4.794   4.159  16.402  0.00  0.00    +0.000 OA
BRANCH  23  24
ATOM     24  C   UNL     1       5.696   5.102  15.809  0.00  0.00    +0.000 C 
BRANCH  24  25
ATOM     25  C   UNL     1       7.129   4.592  15.835  0.00  0.00    +0.000 C 
BRANCH  25  26
ATOM     26  C   UNL     1       7.677   4.500  17.261  0.00  0.00    +0.000 C 
BRANCH  26  27
ATOM     27  C   UNL     1       7.439   5.790  18.044  0.00  0.00    +0.000 C 
BRANCH  27  28
ATOM     28  C   UNL     1       6.999   5.533  19.468  0.00  0.00    +0.000 C 
ATOM     29  O   UNL     1       5.838   5.387  19.831  0.00  0.00    +0.000 OA
BRANCH  28  30
ATOM     30  O   UNL     1       8.034   5.499  20.337  0.00  0.00    +0.000 OA
ATOM     31  H   UNL     1       8.670   4.777  20.171  0.00  0.00    +0.000 HD
ENDBRANCH  28  30
ENDBRANCH  27  28
ENDBRANCH  26  27
ENDBRANCH  25  26
ENDBRANCH  24  25
ENDBRANCH  23  24
ENDBRANCH   5  23
TORSDOF 11
ENDMDL
MODEL 4
REMARK VINA RESULT:      -6.9      1.595      2.160
REMARK  Name = 
REMARK  12 active torsions:
REMARK  status: ('A' for Active; 'I' for Inactive)
REMARK    1  A    between atoms: C_1  and  O_2
REMARK    2  A    between atoms: O_2  and  C_3
REMARK    3  A    between atoms: C_5  and  C_6
REMARK    4  A    between atoms: C_6  and  C_7
REMARK    5  A    between atoms: C_13  and  N_14
REMARK    6  A    between atoms: C_16  and  O_17
REMARK    7  A    between atoms: O_17  and  C_18
REMARK    8  A    between atoms: C_18  and  C_19
REMARK    9  A    between atoms: C_19  and  C_20
REMARK   10  A    between atoms: C_20  and  C_21
REMARK   11  A    between atoms: C_21  and  C_22
REMARK   12  A    between atoms: C_22  and  O_24
REMARK                            x       y       z     vdW  Elec       q    Type
REMARK                         _______ _______ _______ _____ _____    ______ ____
ROOT
ATOM      1  C   UNL     1       2.054   4.018  18.054  0.00  0.00    +0.000 A 
ATOM      2  C   UNL     1       1.799   5.394  18.011  0.00  0.00    +0.000 A 
ATOM      3  C   UNL     1       2.829   6.315  18.193  0.00  0.00    +0.000 A 
ATOM      4  C   UNL     1       4.109   5.847  18.491  0.00  0.00    +0.000 A 
ATOM      5  C   UNL     1       4.376   4.482  18.648  0.00  0.00    +0.000 A 
ATOM      6  C   UNL     1       3.346   3.562  18.389  0.00  0.00    +0.000 A 
ATOM      7 BR   UNL     1       3.705   1.689  18.461  0.00  0.00    +0.000 Br
ENDROOT
BRANCH   1   9
ATOM      8  C   UNL     1       0.445   2.534  18.964  0.00  0.00    +0.000 C 
ATOM      9  O   UNL     1       1.074   3.087  17.808  0.00  0.00    +0.000 OA
ENDBRANCH   1   9
BRANCH   3  10
ATOM     10  C   UNL     1       2.601   7.795  18.026  0.00  0.00    +0.000 C 
BRANCH  10  11
ATOM     11  C   UNL     1       1.793   8.400  19.134  0.00  0.00    +0.000 A 
ATOM     12  C   UNL     1       1.779   7.824  20.388  0.00  0.00    +0.000 A 
ATOM     13  N   UNL     1       1.093   8.312  21.434  0.00  0.00    +0.000 NA
ATOM     14  C   UNL     1       0.362   9.401  21.197  0.00  0.00    +0.000 A 
ATOM     15  N   UNL     1      -0.296   9.964  22.271  0.00  0.00    +0.000 N 
ATOM     16  N   UNL     1       0.281  10.027  20.020  0.00  0.00    +0.000 NA
ATOM     17  C   UNL     1       0.983   9.513  19.000  0.00  0.00    +0.000 A 
ATOM     18  H   UNL     1       0.158   9.676  23.127  0.00  0.00    +0.000 HD
ATOM     19  H   UNL     1      -0.408  10.956  22.118  0.00  0.00    +0.000 HD
BRANCH  17  20
ATOM     20  N   UNL     1       0.812  10.164  17.779  0.00  0.00    +0.000 N 
ATOM     21  H   UNL     1       1.648   9.980  17.225  0.00  0.00    +0.000 HD
ATOM     22  H   UNL     1      -0.025   9.870  17.292  0.00  0.00    +0.000 HD
ENDBRANCH  17  20
ENDBRANCH  10  11
ENDBRANCH   3  10
BRANCH   5  23
ATOM     23  O   UNL     1       5.615   4.020  19.041  0.00  0.00    +0.000 OA
BRANCH  23  24
ATOM     24  C   UNL     1       6.674   4.972  18.886  0.00  0.00    +0.000 C 
BRANCH  24  25
ATOM     25  C   UNL     1       7.433   4.753  17.586  0.00  0.00    +0.000 C 
BRANCH  25  26
ATOM     26  C   UNL     1       7.482   6.023  16.733  0.00  0.00    +0.000 C 
BRANCH  26  27
ATOM     27  C   UNL     1       6.907   7.228  17.475  0.00  0.00    +0.000 C 
BRANCH  27  28
ATOM     28  C   UNL     1       7.980   8.167  17.978  0.00  0.00    +0.000 C 
ATOM     29  O   UNL     1       8.214   9.279  17.522  0.00  0.00    +0.000 OA
BRANCH  28  30
ATOM     30  O   UNL     1       8.698   7.642  18.997  0.00  0.00    +0.000 OA
ATOM     31  H   UNL     1       8.154   7.236  19.699  0.00  0.00    +0.000 HD
ENDBRANCH  28  30
ENDBRANCH  27  28
ENDBRANCH  26  27
ENDBRANCH  25  26
ENDBRANCH  24  25
ENDBRANCH  23  24
ENDBRANCH   5  23
TORSDOF 11
ENDMDL
MODEL 5
REMARK VINA RESULT:      -6.8      4.688      7.580
REMARK  Name = 
REMARK  12 active torsions:
REMARK  status: ('A' for Active; 'I' for Inactive)
REMARK    1  A    between atoms: C_1  and  O_2
REMARK    2  A    between atoms: O_2  and  C_3
REMARK    3  A    between atoms: C_5  and  C_6
REMARK    4  A    between atoms: C_6  and  C_7
REMARK    5  A    between atoms: C_13  and  N_14
REMARK    6  A    between atoms: C_16  and  O_17
REMARK    7  A    between atoms: O_17  and  C_18
REMARK    8  A    between atoms: C_18  and  C_19
REMARK    9  A    between atoms: C_19  and  C_20
REMARK   10  A    between atoms: C_20  and  C_21
REMARK   11  A    between atoms: C_21  and  C_22
REMARK   12  A    between atoms: C_22  and  O_24
REMARK                            x       y       z     vdW  Elec       q    Type
REMARK                         _______ _______ _______ _____ _____    ______ ____
ROOT
ATOM      1  C   UNL     1       2.522   4.857  20.039  0.00  0.00    +0.000 A 
ATOM      2  C   UNL     1       3.046   3.909  19.151  0.00  0.00    +0.000 A 
ATOM      3  C   UNL     1       3.662   4.307  17.966  0.00  0.00    +0.000 A 
ATOM      4  C   UNL     1       3.688   5.664  17.641  0.00  0.00    +0.000 A 
ATOM      5  C   UNL     1       3.078   6.627  18.453  0.00  0.00    +0.000 A 
ATOM      6  C   UNL     1       2.526   6.220  19.680  0.00  0.00    +0.000 A 
ATOM      7 BR   UNL     1       1.806   7.522  20.875  0.00  0.00    +0.000 Br
ENDROOT
BRANCH   1   9
ATOM      8  C   UNL     1       1.375   3.203  21.291  0.00  0.00    +0.000 C 
ATOM      9  O   UNL     1       1.973   4.499  21.247  0.00  0.00    +0.000 OA
ENDBRANCH   1   9
BRANCH   3  10
ATOM     10  C   UNL     1       4.342   3.314  17.060  0.00  0.00    +0.000 C 
BRANCH  10  11
ATOM     11  C   UNL     1       5.421   3.922  16.217  0.00  0.00    +0.000 A 
ATOM     12  C   UNL     1       5.265   4.032  14.850  0.00  0.00    +0.000 A 
ATOM     13  N   UNL     1       6.179   4.576  14.029  0.00  0.00    +0.000 NA
ATOM     14  C   UNL     1       7.307   4.991  14.603  0.00  0.00    +0.000 A 
ATOM     15  N   UNL     1       8.232   5.618  13.792  0.00  0.00    +0.000 N 
ATOM     16  N   UNL     1       7.576   4.912  15.908  0.00  0.00    +0.000 NA
ATOM     17  C   UNL     1       6.639   4.367  16.697  0.00  0.00    +0.000 A 
ATOM     18  H   UNL     1       7.764   5.979  12.972  0.00  0.00    +0.000 HD
ATOM     19  H   UNL     1       8.776   6.269  14.340  0.00  0.00    +0.000 HD
BRANCH  17  20
ATOM     20  N   UNL     1       6.995   4.249  18.041  0.00  0.00    +0.000 N 
ATOM     21  H   UNL     1       7.561   5.065  18.270  0.00  0.00    +0.000 HD
ATOM     22  H   UNL     1       6.193   4.172  18.653  0.00  0.00    +0.000 HD
ENDBRANCH  17  20
ENDBRANCH  10  11
ENDBRANCH   3  10
BRANCH   5  23
ATOM     23  O   UNL     1       3.013   7.955  18.087  0.00  0.00    +0.000 OA
BRANCH  23  24
ATOM     24  C   UNL     1       1.710   8.389  17.677  0.00  0.00    +0.000 C 
BRANCH  24  25
ATOM     25  C   UNL     1       1.470   9.847  18.038  0.00  0.00    +0.000 C 
BRANCH  25  26
ATOM     26  C   UNL     1      -0.003  10.124  18.350  0.00  0.00    +0.000 C 
BRANCH  26  27
ATOM     27  C   UNL     1      -0.173  11.351  19.244  0.00  0.00    +0.000 C 
BRANCH  27  28
ATOM     28  C   UNL     1       0.257  11.094  20.671  0.00  0.00    +0.000 C 
ATOM     29  O   UNL     1       1.245  11.580  21.208  0.00  0.00    +0.000 OA
BRANCH  28  30
ATOM     30  O   UNL     1      -0.562  10.232  21.316  0.00  0.00    +0.000 OA
ATOM     31  H   UNL     1      -1.489  10.531  21.371  0.00  0.00    +0.000 HD
ENDBRANCH  28  30
ENDBRANCH  27  28
ENDBRANCH  26  27
ENDBRANCH  25  26
ENDBRANCH  24  25
ENDBRANCH  23  24
ENDBRANCH   5  23
TORSDOF 11
ENDMDL
MODEL 6
REMARK VINA RESULT:      -6.8      4.198      6.376
REMARK  Name = 
REMARK  12 active torsions:
REMARK  status: ('A' for Active; 'I' for Inactive)
REMARK    1  A    between atoms: C_1  and  O_2
REMARK    2  A    between atoms: O_2  and  C_3
REMARK    3  A    between atoms: C_5  and  C_6
REMARK    4  A    between atoms: C_6  and  C_7
REMARK    5  A    between atoms: C_13  and  N_14
REMARK    6  A    between atoms: C_16  and  O_17
REMARK    7  A    between atoms: O_17  and  C_18
REMARK    8  A    between atoms: C_18  and  C_19
REMARK    9  A    between atoms: C_19  and  C_20
REMARK   10  A    between atoms: C_20  and  C_21
REMARK   11  A    between atoms: C_21  and  C_22
REMARK   12  A    between atoms: C_22  and  O_24
REMARK                            x       y       z     vdW  Elec       q    Type
REMARK                         _______ _______ _______ _____ _____    ______ ____
ROOT
ATOM      1  C   UNL     1       1.694   9.173  19.019  0.00  0.00    +0.000 A 
ATOM      2  C   UNL     1       2.535   8.844  17.950  0.00  0.00    +0.000 A 
ATOM      3  C   UNL     1       3.036   7.551  17.809  0.00  0.00    +0.000 A 
ATOM      4  C   UNL     1       2.744   6.603  18.790  0.00  0.00    +0.000 A 
ATOM      5  C   UNL     1       1.996   6.927  19.928  0.00  0.00    +0.000 A 
ATOM      6  C   UNL     1       1.436   8.213  20.020  0.00  0.00    +0.000 A 
ATOM      7 BR   UNL     1       0.299   8.651  21.489  0.00  0.00    +0.000 Br
ENDROOT
BRANCH   1   9
ATOM      8  C   UNL     1      -0.122  10.597  18.478  0.00  0.00    +0.000 C 
ATOM      9  O   UNL     1       1.128  10.419  19.145  0.00  0.00    +0.000 OA
ENDBRANCH   1   9
BRANCH   3  10
ATOM     10  C   UNL     1       3.838   7.145  16.600  0.00  0.00    +0.000 C 
BRANCH  10  11
ATOM     11  C   UNL     1       5.049   6.329  16.938  0.00  0.00    +0.000 A 
ATOM     12  C   UNL     1       6.257   6.942  17.201  0.00  0.00    +0.000 A 
ATOM     13  N   UNL     1       7.382   6.283  17.524  0.00  0.00    +0.000 NA
ATOM     14  C   UNL     1       7.294   4.953  17.545  0.00  0.00    +0.000 A 
ATOM     15  N   UNL     1       8.417   4.255  17.943  0.00  0.00    +0.000 N 
ATOM     16  N   UNL     1       6.187   4.255  17.284  0.00  0.00    +0.000 NA
ATOM     17  C   UNL     1       5.083   4.947  16.969  0.00  0.00    +0.000 A 
ATOM     18  H   UNL     1       9.009   4.863  18.491  0.00  0.00    +0.000 HD
ATOM     19  H   UNL     1       8.139   3.378  18.361  0.00  0.00    +0.000 HD
BRANCH  17  20
ATOM     20  N   UNL     1       3.972   4.169  16.642  0.00  0.00    +0.000 N 
ATOM     21  H   UNL     1       4.215   3.202  16.854  0.00  0.00    +0.000 HD
ATOM     22  H   UNL     1       3.135   4.456  17.133  0.00  0.00    +0.000 HD
ENDBRANCH  17  20
ENDBRANCH  10  11
ENDBRANCH   3  10
BRANCH   5  23
ATOM     23  O   UNL     1       1.789   6.024  20.949  0.00  0.00    +0.000 OA
BRANCH  23  24
ATOM     24  C   UNL     1       2.544   4.812  20.823  0.00  0.00    +0.000 C 
BRANCH  24  25
ATOM     25  C   UNL     1       1.837   3.645  21.495  0.00  0.00    +0.000 C 
BRANCH  25  26
ATOM     26  C   UNL     1       1.846   2.390  20.618  0.00  0.00    +0.000 C 
BRANCH  26  27
ATOM     27  C   UNL     1       2.970   2.428  19.585  0.00  0.00    +0.000 C 
BRANCH  27  28
ATOM     28  C   UNL     1       4.333   2.203  20.201  0.00  0.00    +0.000 C 
ATOM     29  O   UNL     1       4.537   1.668  21.283  0.00  0.00    +0.000 OA
BRANCH  28  30
ATOM     30  O   UNL     1       5.339   2.681  19.434  0.00  0.00    +0.000 OA
ATOM     31  H   UNL     1       5.638   3.575  19.684  0.00  0.00    +0.000 HD
ENDBRANCH  28  30
ENDBRANCH  27  28
ENDBRANCH  26  27
ENDBRANCH  25  26
ENDBRANCH  24  25
ENDBRANCH  23  24
ENDBRANCH   5  23
TORSDOF 11
ENDMDL
MODEL 7
REMARK VINA RESULT:      -6.8      0.879      1.067
REMARK  Name = 
REMARK  12 active torsions:
REMARK  status: ('A' for Active; 'I' for Inactive)
REMARK    1  A    between atoms: C_1  and  O_2
REMARK    2  A    between atoms: O_2  and  C_3
REMARK    3  A    between atoms: C_5  and  C_6
REMARK    4  A    between atoms: C_6  and  C_7
REMARK    5  A    between atoms: C_13  and  N_14
REMARK    6  A    between atoms: C_16  and  O_17
REMARK    7  A    between atoms: O_17  and  C_18
REMARK    8  A    between atoms: C_18  and  C_19
REMARK    9  A    between atoms: C_19  and  C_20
REMARK   10  A    between atoms: C_20  and  C_21
REMARK   11  A    between atoms: C_21  and  C_22
REMARK   12  A    between atoms: C_22  and  O_24
REMARK                            x       y       z     vdW  Elec       q    Type
REMARK                         _______ _______ _______ _____ _____    ______ ____
ROOT
ATOM      1  C   UNL     1       2.484   4.011  18.400  0.00  0.00    +0.000 A 
ATOM      2  C   UNL     1       1.993   5.301  18.166  0.00  0.00    +0.000 A 
ATOM      3  C   UNL     1       2.807   6.418  18.352  0.00  0.00    +0.000 A 
ATOM      4  C   UNL     1       4.100   6.236  18.843  0.00  0.00    +0.000 A 
ATOM      5  C   UNL     1       4.585   4.970  19.190  0.00  0.00    +0.000 A 
ATOM      6  C   UNL     1       3.781   3.847  18.928  0.00  0.00    +0.000 A 
ATOM      7 BR   UNL     1       4.459   2.095  19.261  0.00  0.00    +0.000 Br
ENDROOT
BRANCH   1   9
ATOM      8  C   UNL     1       0.709   2.614  19.119  0.00  0.00    +0.000 C 
ATOM      9  O   UNL     1       1.728   2.889  18.158  0.00  0.00    +0.000 OA
ENDBRANCH   1   9
BRANCH   3  10
ATOM     10  C   UNL     1       2.339   7.802  17.986  0.00  0.00    +0.000 C 
BRANCH  10  11
ATOM     11  C   UNL     1       1.659   8.516  19.114  0.00  0.00    +0.000 A 
ATOM     12  C   UNL     1       1.711   8.011  20.397  0.00  0.00    +0.000 A 
ATOM     13  N   UNL     1       1.140   8.598  21.462  0.00  0.00    +0.000 NA
ATOM     14  C   UNL     1       0.459   9.717  21.217  0.00  0.00    +0.000 A 
ATOM     15  N   UNL     1      -0.078  10.378  22.303  0.00  0.00    +0.000 N 
ATOM     16  N   UNL     1       0.322  10.282  20.015  0.00  0.00    +0.000 NA
ATOM     17  C   UNL     1       0.909   9.670  18.977  0.00  0.00    +0.000 A 
ATOM     18  H   UNL     1       0.425  10.108  23.138  0.00  0.00    +0.000 HD
ATOM     19  H   UNL     1      -0.143  11.365  22.101  0.00  0.00    +0.000 HD
BRANCH  17  20
ATOM     20  N   UNL     1       0.681  10.264  17.736  0.00  0.00    +0.000 N 
ATOM     21  H   UNL     1       1.338  11.038  17.653  0.00  0.00    +0.000 HD
ATOM     22  H   UNL     1       0.778   9.613  16.967  0.00  0.00    +0.000 HD
ENDBRANCH  17  20
ENDBRANCH  10  11
ENDBRANCH   3  10
BRANCH   5  23
ATOM     23  O   UNL     1       5.824   4.796  19.769  0.00  0.00    +0.000 OA
BRANCH  23  24
ATOM     24  C   UNL     1       6.912   4.774  18.837  0.00  0.00    +0.000 C 
BRANCH  24  25
ATOM     25  C   UNL     1       7.453   6.173  18.581  0.00  0.00    +0.000 C 
BRANCH  25  26
ATOM     26  C   UNL     1       7.315   6.579  17.112  0.00  0.00    +0.000 C 
BRANCH  26  27
ATOM     27  C   UNL     1       7.002   5.380  16.219  0.00  0.00    +0.000 C 
BRANCH  27  28
ATOM     28  C   UNL     1       5.617   5.449  15.617  0.00  0.00    +0.000 C 
ATOM     29  O   UNL     1       4.911   4.482  15.359  0.00  0.00    +0.000 OA
BRANCH  28  30
ATOM     30  O   UNL     1       5.221   6.717  15.360  0.00  0.00    +0.000 OA
ATOM     31  H   UNL     1       4.411   6.984  15.835  0.00  0.00    +0.000 HD
ENDBRANCH  28  30
ENDBRANCH  27  28
ENDBRANCH  26  27
ENDBRANCH  25  26
ENDBRANCH  24  25
ENDBRANCH  23  24
ENDBRANCH   5  23
TORSDOF 11
ENDMDL
MODEL 8
REMARK VINA RESULT:      -6.8      4.003      5.677
REMARK  Name = 
REMARK  12 active torsions:
REMARK  status: ('A' for Active; 'I' for Inactive)
REMARK    1  A    between atoms: C_1  and  O_2
REMARK    2  A    between atoms: O_2  and  C_3
REMARK    3  A    between atoms: C_5  and  C_6
REMARK    4  A    between atoms: C_6  and  C_7
REMARK    5  A    between atoms: C_13  and  N_14
REMARK    6  A    between atoms: C_16  and  O_17
REMARK    7  A    between atoms: O_17  and  C_18
REMARK    8  A    between atoms: C_18  and  C_19
REMARK    9  A    between atoms: C_19  and  C_20
REMARK   10  A    between atoms: C_20  and  C_21
REMARK   11  A    between atoms: C_21  and  C_22
REMARK   12  A    between atoms: C_22  and  O_24
REMARK                            x       y       z     vdW  Elec       q    Type
REMARK                         _______ _______ _______ _____ _____    ______ ____
ROOT
ATOM      1  C   UNL     1       1.253   8.374  20.163  0.00  0.00    +0.000 A 
ATOM      2  C   UNL     1       1.277   7.155  20.853  0.00  0.00    +0.000 A 
ATOM      3  C   UNL     1       2.076   6.102  20.409  0.00  0.00    +0.000 A 
ATOM      4  C   UNL     1       2.799   6.255  19.225  0.00  0.00    +0.000 A 
ATOM      5  C   UNL     1       2.712   7.420  18.455  0.00  0.00    +0.000 A 
ATOM      6  C   UNL     1       1.962   8.500  18.951  0.00  0.00    +0.000 A 
ATOM      7 BR   UNL     1       1.930  10.152  17.996  0.00  0.00    +0.000 Br
ENDROOT
BRANCH   1   9
ATOM      8  C   UNL     1       0.795   9.848  21.962  0.00  0.00    +0.000 C 
ATOM      9  O   UNL     1       0.531   9.452  20.616  0.00  0.00    +0.000 OA
ENDBRANCH   1   9
BRANCH   3  10
ATOM     10  C   UNL     1       2.213   4.830  21.204  0.00  0.00    +0.000 C 
BRANCH  10  11
ATOM     11  C   UNL     1       2.718   3.675  20.393  0.00  0.00    +0.000 A 
ATOM     12  C   UNL     1       4.073   3.470  20.232  0.00  0.00    +0.000 A 
ATOM     13  N   UNL     1       4.603   2.453  19.533  0.00  0.00    +0.000 NA
ATOM     14  C   UNL     1       3.734   1.633  18.943  0.00  0.00    +0.000 A 
ATOM     15  N   UNL     1       4.251   0.540  18.278  0.00  0.00    +0.000 N 
ATOM     16  N   UNL     1       2.405   1.749  19.011  0.00  0.00    +0.000 NA
ATOM     17  C   UNL     1       1.913   2.774  19.721  0.00  0.00    +0.000 A 
ATOM     18  H   UNL     1       5.173   0.337  18.639  0.00  0.00    +0.000 HD
ATOM     19  H   UNL     1       3.575  -0.211  18.286  0.00  0.00    +0.000 HD
BRANCH  17  20
ATOM     20  N   UNL     1       0.523   2.889  19.706  0.00  0.00    +0.000 N 
ATOM     21  H   UNL     1       0.246   3.017  18.734  0.00  0.00    +0.000 HD
ATOM     22  H   UNL     1       0.060   2.089  20.119  0.00  0.00    +0.000 HD
ENDBRANCH  17  20
ENDBRANCH  10  11
ENDBRANCH   3  10
BRANCH   5  23
ATOM     23  O   UNL     1       3.344   7.537  17.235  0.00  0.00    +0.000 OA
BRANCH  23  24
ATOM     24  C   UNL     1       4.740   7.212  17.261  0.00  0.00    +0.000 C 
BRANCH  24  25
ATOM     25  C   UNL     1       5.136   6.363  16.063  0.00  0.00    +0.000 C 
BRANCH  25  26
ATOM     26  C   UNL     1       4.667   4.913  16.211  0.00  0.00    +0.000 C 
BRANCH  26  27
ATOM     27  C   UNL     1       5.814   3.923  16.014  0.00  0.00    +0.000 C 
BRANCH  27  28
ATOM     28  C   UNL     1       7.162   4.603  15.945  0.00  0.00    +0.000 C 
ATOM     29  O   UNL     1       7.579   5.248  14.990  0.00  0.00    +0.000 OA
BRANCH  28  30
ATOM     30  O   UNL     1       7.903   4.411  17.060  0.00  0.00    +0.000 OA
ATOM     31  H   UNL     1       8.042   5.219  17.589  0.00  0.00    +0.000 HD
ENDBRANCH  28  30
ENDBRANCH  27  28
ENDBRANCH  26  27
ENDBRANCH  25  26
ENDBRANCH  24  25
ENDBRANCH  23  24
ENDBRANCH   5  23
TORSDOF 11
ENDMDL
MODEL 9
REMARK VINA RESULT:      -6.6      4.072      6.353
REMARK  Name = 
REMARK  12 active torsions:
REMARK  status: ('A' for Active; 'I' for Inactive)
REMARK    1  A    between atoms: C_1  and  O_2
REMARK    2  A    between atoms: O_2  and  C_3
REMARK    3  A    between atoms: C_5  and  C_6
REMARK    4  A    between atoms: C_6  and  C_7
REMARK    5  A    between atoms: C_13  and  N_14
REMARK    6  A    between atoms: C_16  and  O_17
REMARK    7  A    between atoms: O_17  and  C_18
REMARK    8  A    between atoms: C_18  and  C_19
REMARK    9  A    between atoms: C_19  and  C_20
REMARK   10  A    between atoms: C_20  and  C_21
REMARK   11  A    between atoms: C_21  and  C_22
REMARK   12  A    between atoms: C_22  and  O_24
REMARK                            x       y       z     vdW  Elec       q    Type
REMARK                         _______ _______ _______ _____ _____    ______ ____
ROOT
ATOM      1  C   UNL     1       1.564   9.137  18.892  0.00  0.00    +0.000 A 
ATOM      2  C   UNL     1       2.476   8.887  17.860  0.00  0.00    +0.000 A 
ATOM      3  C   UNL     1       3.103   7.647  17.748  0.00  0.00    +0.000 A 
ATOM      4  C   UNL     1       2.863   6.679  18.723  0.00  0.00    +0.000 A 
ATOM      5  C   UNL     1       2.042   6.933  19.827  0.00  0.00    +0.000 A 
ATOM      6  C   UNL     1       1.358   8.160  19.888  0.00  0.00    +0.000 A 
ATOM      7 BR   UNL     1       0.125   8.491  21.307  0.00  0.00    +0.000 Br
ENDROOT
BRANCH   1   9
ATOM      8  C   UNL     1       1.684  11.490  19.146  0.00  0.00    +0.000 C 
ATOM      9  O   UNL     1       0.877  10.323  18.987  0.00  0.00    +0.000 OA
ENDBRANCH   1   9
BRANCH   3  10
ATOM     10  C   UNL     1       3.989   7.316  16.575  0.00  0.00    +0.000 C 
BRANCH  10  11
ATOM     11  C   UNL     1       5.148   6.437  16.936  0.00  0.00    +0.000 A 
ATOM     12  C   UNL     1       6.335   6.987  17.375  0.00  0.00    +0.000 A 
ATOM     13  N   UNL     1       7.412   6.267  17.730  0.00  0.00    +0.000 NA
ATOM     14  C   UNL     1       7.301   4.946  17.601  0.00  0.00    +0.000 A 
ATOM     15  N   UNL     1       8.368   4.179  18.025  0.00  0.00    +0.000 N 
ATOM     16  N   UNL     1       6.211   4.308  17.164  0.00  0.00    +0.000 NA
ATOM     17  C   UNL     1       5.155   5.059  16.823  0.00  0.00    +0.000 A 
ATOM     18  H   UNL     1       8.915   4.711  18.689  0.00  0.00    +0.000 HD
ATOM     19  H   UNL     1       8.036   3.272  18.320  0.00  0.00    +0.000 HD
BRANCH  17  20
ATOM     20  N   UNL     1       4.068   4.350  16.312  0.00  0.00    +0.000 N 
ATOM     21  H   UNL     1       3.339   5.032  16.108  0.00  0.00    +0.000 HD
ATOM     22  H   UNL     1       4.305   3.807  15.492  0.00  0.00    +0.000 HD
ENDBRANCH  17  20
ENDBRANCH  10  11
ENDBRANCH   3  10
BRANCH   5  23
ATOM     23  O   UNL     1       1.880   6.016  20.845  0.00  0.00    +0.000 OA
BRANCH  23  24
ATOM     24  C   UNL     1       2.955   5.076  20.965  0.00  0.00    +0.000 C 
BRANCH  24  25
ATOM     25  C   UNL     1       2.469   3.648  20.771  0.00  0.00    +0.000 C 
BRANCH  25  26
ATOM     26  C   UNL     1       0.963   3.589  20.500  0.00  0.00    +0.000 C 
BRANCH  26  27
ATOM     27  C   UNL     1       0.631   2.647  19.345  0.00  0.00    +0.000 C 
BRANCH  27  28
ATOM     28  C   UNL     1       1.431   2.952  18.098  0.00  0.00    +0.000 C 
ATOM     29  O   UNL     1       1.315   3.963  17.416  0.00  0.00    +0.000 OA
BRANCH  28  30
ATOM     30  O   UNL     1       2.298   1.965  17.778  0.00  0.00    +0.000 OA
ATOM     31  H   UNL     1       3.029   1.857  18.416  0.00  0.00    +0.000 HD
ENDBRANCH  28  30
ENDBRANCH  27  28
ENDBRANCH  26  27
ENDBRANCH  25  26
ENDBRANCH  24  25
ENDBRANCH  23  24
ENDBRANCH   5  23
TORSDOF 11
ENDMDL
