MODEL 1
REMARK VINA RESULT:      -8.2      0.000      0.000
REMARK  Name = 
REMARK  6 active torsions:
REMARK  status: ('A' for Active; 'I' for Inactive)
REMARK    1  A    between atoms: N_6  and  C_7
REMARK    2  A    between atoms: C_7  and  C_8
REMARK    3  A    between atoms: C_8  and  C_9
REMARK    4  A    between atoms: C_9  and  C_10
REMARK    5  A    between atoms: C_10  and  C_11
REMARK    6  A    between atoms: C_11  and  N_12
REMARK                            x       y       z     vdW  Elec       q    Type
REMARK                         _______ _______ _______ _____ _____    ______ ____
ROOT
ATOM      1  C   UNL     1       1.449   2.940  20.589  0.00  0.00    +0.000 C 
ENDROOT
BRANCH   1   2
ATOM      2  C   UNL     1       2.944   2.608  20.483  0.00  0.00    +0.000 C 
BRANCH   2   3
ATOM      3  C   UNL     1       3.346   2.172  19.078  0.00  0.00    +0.000 C 
BRANCH   3   9
ATOM      4  C   UNL     1       7.325   6.955  17.432  0.00  0.00    +0.000 A 
ATOM      5  C   UNL     1       7.686   6.461  18.683  0.00  0.00    +0.000 A 
ATOM      6  C   UNL     1       6.971   5.406  19.247  0.00  0.00    +0.000 A 
ATOM      7  C   UNL     1       5.899   4.833  18.553  0.00  0.00    +0.000 A 
ATOM      8  C   UNL     1       5.165   3.786  19.100  0.00  0.00    +0.000 A 
ATOM      9  N   UNL     1       4.139   3.234  18.424  0.00  0.00    +0.000 N 
ATOM     10  C   UNL     1       3.800   3.673  17.190  0.00  0.00    +0.000 A 
ATOM     11  C   UNL     1       4.485   4.723  16.598  0.00  0.00    +0.000 A 
ATOM     12  C   UNL     1       5.542   5.321  17.281  0.00  0.00    +0.000 A 
ATOM     13  C   UNL     1       6.260   6.393  16.731  0.00  0.00    +0.000 A 
ENDBRANCH   3   9
ENDBRANCH   2   3
ENDBRANCH   1   2
BRANCH   1  14
ATOM     14  C   UNL     1       1.097   4.413  20.344  0.00  0.00    +0.000 C 
BRANCH  14  15
ATOM     15  C   UNL     1       2.182   5.360  20.843  0.00  0.00    +0.000 C 
BRANCH  15  16
ATOM     16  N   UNL     1       2.082   6.660  20.157  0.00  0.00    +0.000 N 
ATOM     17  C   UNL     1       2.522   6.795  18.884  0.00  0.00    +0.000 A 
ATOM     18  C   UNL     1       2.321   7.972  18.181  0.00  0.00    +0.000 A 
ATOM     19  C   UNL     1       1.647   9.027  18.798  0.00  0.00    +0.000 A 
ATOM     20  C   UNL     1       1.368  10.216  18.112  0.00  0.00    +0.000 A 
ATOM     21  C   UNL     1       0.672  11.244  18.748  0.00  0.00    +0.000 A 
ATOM     22  C   UNL     1       0.266  11.105  20.072  0.00  0.00    +0.000 A 
ATOM     23  C   UNL     1       0.544   9.934  20.769  0.00  0.00    +0.000 A 
ATOM     24  C   UNL     1       1.224   8.886  20.133  0.00  0.00    +0.000 A 
ATOM     25  C   UNL     1       1.470   7.685  20.790  0.00  0.00    +0.000 A 
ENDBRANCH  15  16
ENDBRANCH  14  15
ENDBRANCH   1  14
TORSDOF 6
ENDMDL
MODEL 2
REMARK VINA RESULT:      -7.8      0.610      5.718
REMARK  Name = 
REMARK  6 active torsions:
REMARK  status: ('A' for Active; 'I' for Inactive)
REMARK    1  A    between atoms: N_6  and  C_7
REMARK    2  A    between atoms: C_7  and  C_8
REMARK    3  A    between atoms: C_8  and  C_9
REMARK    4  A    between atoms: C_9  and  C_10
REMARK    5  A    between atoms: C_10  and  C_11
REMARK    6  A    between atoms: C_11  and  N_12
REMARK                            x       y       z     vdW  Elec       q    Type
REMARK                         _______ _______ _______ _____ _____    ______ ____
ROOT
ATOM      1  C   UNL     1       1.201   3.622  18.886  0.00  0.00    +0.000 C 
ENDROOT
BRANCH   1   2
ATOM      2  C   UNL     1       0.945   4.066  20.332  0.00  0.00    +0.000 C 
BRANCH   2   3
ATOM      3  C   UNL     1       2.048   4.972  20.868  0.00  0.00    +0.000 C 
BRANCH   3   9
ATOM      4  C   UNL     1       1.176  10.951  18.652  0.00  0.00    +0.000 A 
ATOM      5  C   UNL     1       0.662  10.855  19.942  0.00  0.00    +0.000 A 
ATOM      6  C   UNL     1       0.747   9.650  20.637  0.00  0.00    +0.000 A 
ATOM      7  C   UNL     1       1.359   8.539  20.045  0.00  0.00    +0.000 A 
ATOM      8  C   UNL     1       1.447   7.323  20.715  0.00  0.00    +0.000 A 
ATOM      9  N   UNL     1       2.044   6.260  20.144  0.00  0.00    +0.000 N 
ATOM     10  C   UNL     1       2.586   6.347  18.907  0.00  0.00    +0.000 A 
ATOM     11  C   UNL     1       2.517   7.527  18.182  0.00  0.00    +0.000 A 
ATOM     12  C   UNL     1       1.894   8.638  18.746  0.00  0.00    +0.000 A 
ATOM     13  C   UNL     1       1.789   9.853  18.052  0.00  0.00    +0.000 A 
ENDBRANCH   3   9
ENDBRANCH   2   3
ENDBRANCH   1   2
BRANCH   1  14
ATOM     14  C   UNL     1       1.749   2.197  18.735  0.00  0.00    +0.000 C 
BRANCH  14  15
ATOM     15  C   UNL     1       3.185   2.073  19.231  0.00  0.00    +0.000 C 
BRANCH  15  16
ATOM     16  N   UNL     1       4.065   2.988  18.482  0.00  0.00    +0.000 N 
ATOM     17  C   UNL     1       3.838   3.233  17.171  0.00  0.00    +0.000 A 
ATOM     18  C   UNL     1       4.575   4.185  16.485  0.00  0.00    +0.000 A 
ATOM     19  C   UNL     1       5.559   4.905  17.164  0.00  0.00    +0.000 A 
ATOM     20  C   UNL     1       6.291   5.917  16.532  0.00  0.00    +0.000 A 
ATOM     21  C   UNL     1       7.253   6.635  17.244  0.00  0.00    +0.000 A 
ATOM     22  C   UNL     1       7.504   6.340  18.581  0.00  0.00    +0.000 A 
ATOM     23  C   UNL     1       6.791   5.330  19.220  0.00  0.00    +0.000 A 
ATOM     24  C   UNL     1       5.808   4.618  18.520  0.00  0.00    +0.000 A 
ATOM     25  C   UNL     1       5.045   3.639  19.149  0.00  0.00    +0.000 A 
ENDBRANCH  15  16
ENDBRANCH  14  15
ENDBRANCH   1  14
TORSDOF 6
ENDMDL
MODEL 3
REMARK VINA RESULT:      -7.7      0.767      6.279
REMARK  Name = 
REMARK  6 active torsions:
REMARK  status: ('A' for Active; 'I' for Inactive)
REMARK    1  A    between atoms: N_6  and  C_7
REMARK    2  A    between atoms: C_7  and  C_8
REMARK    3  A    between atoms: C_8  and  C_9
REMARK    4  A    between atoms: C_9  and  C_10
REMARK    5  A    between atoms: C_10  and  C_11
REMARK    6  A    between atoms: C_11  and  N_12
REMARK                            x       y       z     vdW  Elec       q    Type
REMARK                         _______ _______ _______ _____ _____    ______ ____
ROOT
ATOM      1  C   UNL     1       1.921   4.067  20.742  0.00  0.00    +0.000 C 
ENDROOT
BRANCH   1   2
ATOM      2  C   UNL     1       1.610   5.570  20.711  0.00  0.00    +0.000 C 
BRANCH   2   3
ATOM      3  C   UNL     1       2.586   6.349  19.835  0.00  0.00    +0.000 C 
BRANCH   3   9
ATOM      4  C   UNL     1      -0.450  12.022  19.685  0.00  0.00    +0.000 A 
ATOM      5  C   UNL     1      -0.606  11.446  20.943  0.00  0.00    +0.000 A 
ATOM      6  C   UNL     1      -0.022  10.210  21.220  0.00  0.00    +0.000 A 
ATOM      7  C   UNL     1       0.732   9.554  20.239  0.00  0.00    +0.000 A 
ATOM      8  C   UNL     1       1.316   8.317  20.489  0.00  0.00    +0.000 A 
ATOM      9  N   UNL     1       2.046   7.694  19.545  0.00  0.00    +0.000 N 
ATOM     10  C   UNL     1       2.242   8.257  18.331  0.00  0.00    +0.000 A 
ATOM     11  C   UNL     1       1.674   9.482  18.016  0.00  0.00    +0.000 A 
ATOM     12  C   UNL     1       0.904  10.143  18.971  0.00  0.00    +0.000 A 
ATOM     13  C   UNL     1       0.298  11.379  18.701  0.00  0.00    +0.000 A 
ENDBRANCH   3   9
ENDBRANCH   2   3
ENDBRANCH   1   2
BRANCH   1  14
ATOM     14  C   UNL     1       1.873   3.370  19.376  0.00  0.00    +0.000 C 
BRANCH  14  15
ATOM     15  C   UNL     1       3.202   2.720  19.009  0.00  0.00    +0.000 C 
BRANCH  15  16
ATOM     16  N   UNL     1       4.103   3.710  18.393  0.00  0.00    +0.000 N 
ATOM     17  C   UNL     1       3.757   4.322  17.237  0.00  0.00    +0.000 A 
ATOM     18  C   UNL     1       4.530   5.344  16.712  0.00  0.00    +0.000 A 
ATOM     19  C   UNL     1       5.677   5.752  17.395  0.00  0.00    +0.000 A 
ATOM     20  C   UNL     1       6.460   6.818  16.937  0.00  0.00    +0.000 A 
ATOM     21  C   UNL     1       7.588   7.217  17.654  0.00  0.00    +0.000 A 
ATOM     22  C   UNL     1       7.954   6.548  18.819  0.00  0.00    +0.000 A 
ATOM     23  C   UNL     1       7.191   5.481  19.281  0.00  0.00    +0.000 A 
ATOM     24  C   UNL     1       6.044   5.086  18.580  0.00  0.00    +0.000 A 
ATOM     25  C   UNL     1       5.234   4.055  19.047  0.00  0.00    +0.000 A 
ENDBRANCH  15  16
ENDBRANCH  14  15
ENDBRANCH   1  14
TORSDOF 6
ENDMDL
MODEL 4
REMARK VINA RESULT:      -7.6      4.773      7.698
REMARK  Name = 
REMARK  6 active torsions:
REMARK  status: ('A' for Active; 'I' for Inactive)
REMARK    1  A    between atoms: N_6  and  C_7
REMARK    2  A    between atoms: C_7  and  C_8
REMARK    3  A    between atoms: C_8  and  C_9
REMARK    4  A    between atoms: C_9  and  C_10
REMARK    5  A    between atoms: C_10  and  C_11
REMARK    6  A    between atoms: C_11  and  N_12
REMARK                            x       y       z     vdW  Elec       q    Type
REMARK                         _______ _______ _______ _____ _____    ______ ____
ROOT
ATOM      1  C   UNL     1       7.703   7.678  17.247  0.00  0.00    +0.000 C 
ENDROOT
BRANCH   1   2
ATOM      2  C   UNL     1       7.985   9.103  17.742  0.00  0.00    +0.000 C 
BRANCH   2   3
ATOM      3  C   UNL     1       8.828   9.122  19.013  0.00  0.00    +0.000 C 
BRANCH   3   9
ATOM      4  C   UNL     1      11.805  14.809  18.546  0.00  0.00    +0.000 A 
ATOM      5  C   UNL     1      11.578  14.298  17.271  0.00  0.00    +0.000 A 
ATOM      6  C   UNL     1      10.931  13.073  17.117  0.00  0.00    +0.000 A 
ATOM      7  C   UNL     1      10.498  12.361  18.242  0.00  0.00    +0.000 A 
ATOM      8  C   UNL     1       9.859  11.132  18.113  0.00  0.00    +0.000 A 
ATOM      9  N   UNL     1       9.437  10.456  19.198  0.00  0.00    +0.000 N 
ATOM     10  C   UNL     1       9.612  10.956  20.443  0.00  0.00    +0.000 A 
ATOM     11  C   UNL     1      10.255  12.169  20.638  0.00  0.00    +0.000 A 
ATOM     12  C   UNL     1      10.712  12.883  19.532  0.00  0.00    +0.000 A 
ATOM     13  C   UNL     1      11.378  14.110  19.674  0.00  0.00    +0.000 A 
ENDBRANCH   3   9
ENDBRANCH   2   3
ENDBRANCH   1   2
BRANCH   1  14
ATOM     14  C   UNL     1       6.383   7.072  17.741  0.00  0.00    +0.000 C 
BRANCH  14  15
ATOM     15  C   UNL     1       6.443   5.552  17.840  0.00  0.00    +0.000 C 
BRANCH  15  16
ATOM     16  N   UNL     1       5.086   4.993  17.967  0.00  0.00    +0.000 N 
ATOM     17  C   UNL     1       4.555   4.255  16.964  0.00  0.00    +0.000 A 
ATOM     18  C   UNL     1       3.335   3.618  17.117  0.00  0.00    +0.000 A 
ATOM     19  C   UNL     1       2.651   3.735  18.328  0.00  0.00    +0.000 A 
ATOM     20  C   UNL     1       1.443   3.064  18.553  0.00  0.00    +0.000 A 
ATOM     21  C   UNL     1       0.795   3.182  19.783  0.00  0.00    +0.000 A 
ATOM     22  C   UNL     1       1.332   3.982  20.787  0.00  0.00    +0.000 A 
ATOM     23  C   UNL     1       2.527   4.662  20.575  0.00  0.00    +0.000 A 
ATOM     24  C   UNL     1       3.198   4.532  19.352  0.00  0.00    +0.000 A 
ATOM     25  C   UNL     1       4.420   5.160  19.131  0.00  0.00    +0.000 A 
ENDBRANCH  15  16
ENDBRANCH  14  15
ENDBRANCH   1  14
TORSDOF 6
ENDMDL
MODEL 5
REMARK VINA RESULT:      -7.6      5.429      8.416
REMARK  Name = 
REMARK  6 active torsions:
REMARK  status: ('A' for Active; 'I' for Inactive)
REMARK    1  A    between atoms: N_6  and  C_7
REMARK    2  A    between atoms: C_7  and  C_8
REMARK    3  A    between atoms: C_8  and  C_9
REMARK    4  A    between atoms: C_9  and  C_10
REMARK    5  A    between atoms: C_10  and  C_11
REMARK    6  A    between atoms: C_11  and  N_12
REMARK                            x       y       z     vdW  Elec       q    Type
REMARK                         _______ _______ _______ _____ _____    ______ ____
ROOT
ATOM      1  C   UNL     1       8.261   8.166  18.405  0.00  0.00    +0.000 C 
ENDROOT
BRANCH   1   2
ATOM      2  C   UNL     1       8.559   9.618  18.010  0.00  0.00    +0.000 C 
BRANCH   2   3
ATOM      3  C   UNL     1       9.233  10.400  19.133  0.00  0.00    +0.000 C 
BRANCH   3   9
ATOM      4  C   UNL     1      10.579  16.322  17.001  0.00  0.00    +0.000 A 
ATOM      5  C   UNL     1       9.354  16.335  17.663  0.00  0.00    +0.000 A 
ATOM      6  C   UNL     1       8.855  15.161  18.225  0.00  0.00    +0.000 A 
ATOM      7  C   UNL     1       9.589  13.972  18.137  0.00  0.00    +0.000 A 
ATOM      8  C   UNL     1       9.107  12.787  18.682  0.00  0.00    +0.000 A 
ATOM      9  N   UNL     1       9.821  11.648  18.600  0.00  0.00    +0.000 N 
ATOM     10  C   UNL     1      11.032  11.626  17.997  0.00  0.00    +0.000 A 
ATOM     11  C   UNL     1      11.560  12.772  17.422  0.00  0.00    +0.000 A 
ATOM     12  C   UNL     1      10.836  13.961  17.481  0.00  0.00    +0.000 A 
ATOM     13  C   UNL     1      11.320  15.145  16.907  0.00  0.00    +0.000 A 
ENDBRANCH   3   9
ENDBRANCH   2   3
ENDBRANCH   1   2
BRANCH   1  14
ATOM     14  C   UNL     1       7.517   7.348  17.342  0.00  0.00    +0.000 C 
BRANCH  14  15
ATOM     15  C   UNL     1       7.316   5.896  17.762  0.00  0.00    +0.000 C 
BRANCH  15  16
ATOM     16  N   UNL     1       5.879   5.595  17.890  0.00  0.00    +0.000 N 
ATOM     17  C   UNL     1       4.955   6.543  17.608  0.00  0.00    +0.000 A 
ATOM     18  C   UNL     1       3.603   6.241  17.600  0.00  0.00    +0.000 A 
ATOM     19  C   UNL     1       3.194   4.936  17.879  0.00  0.00    +0.000 A 
ATOM     20  C   UNL     1       1.844   4.567  17.827  0.00  0.00    +0.000 A 
ATOM     21  C   UNL     1       1.469   3.249  18.088  0.00  0.00    +0.000 A 
ATOM     22  C   UNL     1       2.428   2.296  18.419  0.00  0.00    +0.000 A 
ATOM     23  C   UNL     1       3.772   2.651  18.484  0.00  0.00    +0.000 A 
ATOM     24  C   UNL     1       4.163   3.967  18.202  0.00  0.00    +0.000 A 
ATOM     25  C   UNL     1       5.504   4.336  18.209  0.00  0.00    +0.000 A 
ENDBRANCH  15  16
ENDBRANCH  14  15
ENDBRANCH   1  14
TORSDOF 6
ENDMDL
MODEL 6
REMARK VINA RESULT:      -7.6      1.157      1.902
REMARK  Name = 
REMARK  6 active torsions:
REMARK  status: ('A' for Active; 'I' for Inactive)
REMARK    1  A    between atoms: N_6  and  C_7
REMARK    2  A    between atoms: C_7  and  C_8
REMARK    3  A    between atoms: C_8  and  C_9
REMARK    4  A    between atoms: C_9  and  C_10
REMARK    5  A    between atoms: C_10  and  C_11
REMARK    6  A    between atoms: C_11  and  N_12
REMARK                            x       y       z     vdW  Elec       q    Type
REMARK                         _______ _______ _______ _____ _____    ______ ____
ROOT
ATOM      1  C   UNL     1       1.792   4.552  19.412  0.00  0.00    +0.000 C 
ENDROOT
BRANCH   1   2
ATOM      2  C   UNL     1       2.339   3.210  19.920  0.00  0.00    +0.000 C 
BRANCH   2   3
ATOM      3  C   UNL     1       3.361   2.600  18.967  0.00  0.00    +0.000 C 
BRANCH   3   9
ATOM      4  C   UNL     1       7.602   7.234  17.568  0.00  0.00    +0.000 A 
ATOM      5  C   UNL     1       7.979   6.602  18.750  0.00  0.00    +0.000 A 
ATOM      6  C   UNL     1       7.214   5.550  19.250  0.00  0.00    +0.000 A 
ATOM      7  C   UNL     1       6.075   5.119  18.561  0.00  0.00    +0.000 A 
ATOM      8  C   UNL     1       5.291   4.077  19.046  0.00  0.00    +0.000 A 
ATOM      9  N   UNL     1       4.200   3.662  18.374  0.00  0.00    +0.000 N 
ATOM     10  C   UNL     1       3.842   4.237  17.203  0.00  0.00    +0.000 A 
ATOM     11  C   UNL     1       4.575   5.289  16.674  0.00  0.00    +0.000 A 
ATOM     12  C   UNL     1       5.701   5.746  17.356  0.00  0.00    +0.000 A 
ATOM     13  C   UNL     1       6.470   6.814  16.871  0.00  0.00    +0.000 A 
ENDBRANCH   3   9
ENDBRANCH   2   3
ENDBRANCH   1   2
BRANCH   1  14
ATOM     14  C   UNL     1       2.168   5.767  20.270  0.00  0.00    +0.000 C 
BRANCH  14  15
ATOM     15  C   UNL     1       2.555   6.976  19.426  0.00  0.00    +0.000 C 
BRANCH  15  16
ATOM     16  N   UNL     1       1.811   8.169  19.868  0.00  0.00    +0.000 N 
ATOM     17  C   UNL     1       1.548   9.170  18.996  0.00  0.00    +0.000 A 
ATOM     18  C   UNL     1       0.743  10.238  19.360  0.00  0.00    +0.000 A 
ATOM     19  C   UNL     1       0.191  10.271  20.641  0.00  0.00    +0.000 A 
ATOM     20  C   UNL     1      -0.675  11.297  21.037  0.00  0.00    +0.000 A 
ATOM     21  C   UNL     1      -1.230  11.290  22.317  0.00  0.00    +0.000 A 
ATOM     22  C   UNL     1      -0.913  10.275  23.216  0.00  0.00    +0.000 A 
ATOM     23  C   UNL     1      -0.047   9.254  22.839  0.00  0.00    +0.000 A 
ATOM     24  C   UNL     1       0.499   9.239  21.548  0.00  0.00    +0.000 A 
ATOM     25  C   UNL     1       1.327   8.203  21.129  0.00  0.00    +0.000 A 
ENDBRANCH  15  16
ENDBRANCH  14  15
ENDBRANCH   1  14
TORSDOF 6
ENDMDL
MODEL 7
REMARK VINA RESULT:      -7.6      1.007      6.549
REMARK  Name = 
REMARK  6 active torsions:
REMARK  status: ('A' for Active; 'I' for Inactive)
REMARK    1  A    between atoms: N_6  and  C_7
REMARK    2  A    between atoms: C_7  and  C_8
REMARK    3  A    between atoms: C_8  and  C_9
REMARK    4  A    between atoms: C_9  and  C_10
REMARK    5  A    between atoms: C_10  and  C_11
REMARK    6  A    between atoms: C_11  and  N_12
REMARK                            x       y       z     vdW  Elec       q    Type
REMARK                         _______ _______ _______ _____ _____    ______ ____
ROOT
ATOM      1  C   UNL     1       1.626   3.806  21.067  0.00  0.00    +0.000 C 
ENDROOT
BRANCH   1   2
ATOM      2  C   UNL     1       1.344   4.978  20.117  0.00  0.00    +0.000 C 
BRANCH   2   3
ATOM      3  C   UNL     1       2.412   6.063  20.197  0.00  0.00    +0.000 C 
BRANCH   3   9
ATOM      4  C   UNL     1      -0.878  11.347  21.834  0.00  0.00    +0.000 A 
ATOM      5  C   UNL     1      -0.842  10.470  22.915  0.00  0.00    +0.000 A 
ATOM      6  C   UNL     1      -0.171   9.254  22.801  0.00  0.00    +0.000 A 
ATOM      7  C   UNL     1       0.479   8.918  21.608  0.00  0.00    +0.000 A 
ATOM      8  C   UNL     1       1.147   7.706  21.468  0.00  0.00    +0.000 A 
ATOM      9  N   UNL     1       1.776   7.392  20.320  0.00  0.00    +0.000 N 
ATOM     10  C   UNL     1       1.788   8.250  19.274  0.00  0.00    +0.000 A 
ATOM     11  C   UNL     1       1.127   9.467  19.346  0.00  0.00    +0.000 A 
ATOM     12  C   UNL     1       0.457   9.811  20.519  0.00  0.00    +0.000 A 
ATOM     13  C   UNL     1      -0.235  11.025  20.641  0.00  0.00    +0.000 A 
ENDBRANCH   3   9
ENDBRANCH   2   3
ENDBRANCH   1   2
BRANCH   1  14
ATOM     14  C   UNL     1       2.917   3.032  20.771  0.00  0.00    +0.000 C 
BRANCH  14  15
ATOM     15  C   UNL     1       2.984   2.546  19.327  0.00  0.00    +0.000 C 
BRANCH  15  16
ATOM     16  N   UNL     1       3.950   3.353  18.560  0.00  0.00    +0.000 N 
ATOM     17  C   UNL     1       3.751   3.582  17.241  0.00  0.00    +0.000 A 
ATOM     18  C   UNL     1       4.578   4.441  16.535  0.00  0.00    +0.000 A 
ATOM     19  C   UNL     1       5.624   5.082  17.200  0.00  0.00    +0.000 A 
ATOM     20  C   UNL     1       6.451   6.002  16.545  0.00  0.00    +0.000 A 
ATOM     21  C   UNL     1       7.474   6.645  17.244  0.00  0.00    +0.000 A 
ATOM     22  C   UNL     1       7.692   6.363  18.589  0.00  0.00    +0.000 A 
ATOM     23  C   UNL     1       6.884   5.444  19.251  0.00  0.00    +0.000 A 
ATOM     24  C   UNL     1       5.839   4.809  18.565  0.00  0.00    +0.000 A 
ATOM     25  C   UNL     1       4.984   3.925  19.215  0.00  0.00    +0.000 A 
ENDBRANCH  15  16
ENDBRANCH  14  15
ENDBRANCH   1  14
TORSDOF 6
ENDMDL
MODEL 8
REMARK VINA RESULT:      -7.5      0.997      1.814
REMARK  Name = 
REMARK  6 active torsions:
REMARK  status: ('A' for Active; 'I' for Inactive)
REMARK    1  A    between atoms: N_6  and  C_7
REMARK    2  A    between atoms: C_7  and  C_8
REMARK    3  A    between atoms: C_8  and  C_9
REMARK    4  A    between atoms: C_9  and  C_10
REMARK    5  A    between atoms: C_10  and  C_11
REMARK    6  A    between atoms: C_11  and  N_12
REMARK                            x       y       z     vdW  Elec       q    Type
REMARK                         _______ _______ _______ _____ _____    ______ ____
ROOT
ATOM      1  C   UNL     1       1.173   2.827  20.679  0.00  0.00    +0.000 C 
ENDROOT
BRANCH   1   2
ATOM      2  C   UNL     1       2.416   2.296  19.952  0.00  0.00    +0.000 C 
BRANCH   2   3
ATOM      3  C   UNL     1       2.383   2.583  18.455  0.00  0.00    +0.000 C 
BRANCH   3   9
ATOM      4  C   UNL     1       7.437   5.197  15.447  0.00  0.00    +0.000 A 
ATOM      5  C   UNL     1       6.474   4.837  14.509  0.00  0.00    +0.000 A 
ATOM      6  C   UNL     1       5.277   4.258  14.927  0.00  0.00    +0.000 A 
ATOM      7  C   UNL     1       5.036   4.049  16.290  0.00  0.00    +0.000 A 
ATOM      8  C   UNL     1       3.853   3.464  16.730  0.00  0.00    +0.000 A 
ATOM      9  N   UNL     1       3.624   3.273  18.043  0.00  0.00    +0.000 N 
ATOM     10  C   UNL     1       4.530   3.654  18.972  0.00  0.00    +0.000 A 
ATOM     11  C   UNL     1       5.734   4.229  18.595  0.00  0.00    +0.000 A 
ATOM     12  C   UNL     1       6.002   4.427  17.242  0.00  0.00    +0.000 A 
ATOM     13  C   UNL     1       7.209   4.995  16.808  0.00  0.00    +0.000 A 
ENDBRANCH   3   9
ENDBRANCH   2   3
ENDBRANCH   1   2
BRANCH   1  14
ATOM     14  C   UNL     1       0.882   4.316  20.454  0.00  0.00    +0.000 C 
BRANCH  14  15
ATOM     15  C   UNL     1       1.998   5.211  20.979  0.00  0.00    +0.000 C 
BRANCH  15  16
ATOM     16  N   UNL     1       2.020   6.487  20.242  0.00  0.00    +0.000 N 
ATOM     17  C   UNL     1       2.505   6.538  18.980  0.00  0.00    +0.000 A 
ATOM     18  C   UNL     1       2.416   7.699  18.228  0.00  0.00    +0.000 A 
ATOM     19  C   UNL     1       1.810   8.826  18.784  0.00  0.00    +0.000 A 
ATOM     20  C   UNL     1       1.644  10.005  18.046  0.00  0.00    +0.000 A 
ATOM     21  C   UNL     1       1.012  11.108  18.621  0.00  0.00    +0.000 A 
ATOM     22  C   UNL     1       0.559  11.053  19.936  0.00  0.00    +0.000 A 
ATOM     23  C   UNL     1       0.725   9.891  20.685  0.00  0.00    +0.000 A 
ATOM     24  C   UNL     1       1.339   8.770  20.109  0.00  0.00    +0.000 A 
ATOM     25  C   UNL     1       1.471   7.580  20.818  0.00  0.00    +0.000 A 
ENDBRANCH  15  16
ENDBRANCH  14  15
ENDBRANCH   1  14
TORSDOF 6
ENDMDL
MODEL 9
REMARK VINA RESULT:      -7.5      1.397      6.837
REMARK  Name = 
REMARK  6 active torsions:
REMARK  status: ('A' for Active; 'I' for Inactive)
REMARK    1  A    between atoms: N_6  and  C_7
REMARK    2  A    between atoms: C_7  and  C_8
REMARK    3  A    between atoms: C_8  and  C_9
REMARK    4  A    between atoms: C_9  and  C_10
REMARK    5  A    between atoms: C_10  and  C_11
REMARK    6  A    between atoms: C_11  and  N_12
REMARK                            x       y       z     vdW  Elec       q    Type
REMARK                         _______ _______ _______ _____ _____    ______ ____
ROOT
ATOM      1  C   UNL     1       5.146   6.796  17.093  0.00  0.00    +0.000 C 
ENDROOT
BRANCH   1   2
ATOM      2  C   UNL     1       3.907   7.678  17.304  0.00  0.00    +0.000 C 
BRANCH   2   3
ATOM      3  C   UNL     1       2.894   7.042  18.251  0.00  0.00    +0.000 C 
BRANCH   3   9
ATOM      4  C   UNL     1      -0.701  10.788  22.053  0.00  0.00    +0.000 A 
ATOM      5  C   UNL     1      -0.104   9.790  22.817  0.00  0.00    +0.000 A 
ATOM      6  C   UNL     1       0.737   8.858  22.210  0.00  0.00    +0.000 A 
ATOM      7  C   UNL     1       0.991   8.932  20.836  0.00  0.00    +0.000 A 
ATOM      8  C   UNL     1       1.819   8.008  20.206  0.00  0.00    +0.000 A 
ATOM      9  N   UNL     1       2.066   8.089  18.885  0.00  0.00    +0.000 N 
ATOM     10  C   UNL     1       1.527   9.077  18.134  0.00  0.00    +0.000 A 
ATOM     11  C   UNL     1       0.683  10.020  18.701  0.00  0.00    +0.000 A 
ATOM     12  C   UNL     1       0.400   9.951  20.063  0.00  0.00    +0.000 A 
ATOM     13  C   UNL     1      -0.455  10.873  20.684  0.00  0.00    +0.000 A 
ENDBRANCH   3   9
ENDBRANCH   2   3
ENDBRANCH   1   2
BRANCH   1  14
ATOM     14  C   UNL     1       5.169   6.023  15.767  0.00  0.00    +0.000 C 
BRANCH  14  15
ATOM     15  C   UNL     1       5.417   4.533  15.970  0.00  0.00    +0.000 C 
BRANCH  15  16
ATOM     16  N   UNL     1       4.747   4.065  17.196  0.00  0.00    +0.000 N 
ATOM     17  C   UNL     1       5.419   4.033  18.371  0.00  0.00    +0.000 A 
ATOM     18  C   UNL     1       4.771   3.717  19.554  0.00  0.00    +0.000 A 
ATOM     19  C   UNL     1       3.404   3.438  19.529  0.00  0.00    +0.000 A 
ATOM     20  C   UNL     1       2.692   3.171  20.705  0.00  0.00    +0.000 A 
ATOM     21  C   UNL     1       1.321   2.918  20.651  0.00  0.00    +0.000 A 
ATOM     22  C   UNL     1       0.654   2.912  19.429  0.00  0.00    +0.000 A 
ATOM     23  C   UNL     1       1.350   3.167  18.251  0.00  0.00    +0.000 A 
ATOM     24  C   UNL     1       2.724   3.443  18.297  0.00  0.00    +0.000 A 
ATOM     25  C   UNL     1       3.434   3.752  17.141  0.00  0.00    +0.000 A 
ENDBRANCH  15  16
ENDBRANCH  14  15
ENDBRANCH   1  14
TORSDOF 6
ENDMDL
